data_ADARAA_clean_PM
_symmetry_space_group_name_H-M	'P1'
_cell_length_a	38.805000
_cell_length_b	38.805000
_cell_length_c	38.805000
_cell_angle_alpha	90.000000
_cell_angle_beta	90.000000
_cell_angle_gamma	90.000000
_symmetry_Int_Tables_number 1

loop_
_symmetry_equiv_pos_as_xyz
'x,y,z'

loop_
_atom_site_label
_atom_site_type_symbol
_atom_site_fract_x
_atom_site_fract_y
_atom_site_fract_z
_atom_site_charge
Co1	Co	0.950340	0.366260	0.973910	1.156430231548
Co2	Co	0.959950	0.225340	0.468590	1.069459840973
Co3	Co	0.966440	0.314490	0.704000	0.772362165701
Co4	Co	0.549660	0.633740	0.473910	1.156430231548
Co5	Co	0.540050	0.774660	0.968590	1.069459840973
Co6	Co	0.533560	0.685510	0.204000	0.772362165701
Co7	Co	0.049660	0.866260	0.526090	1.156430231548
Co8	Co	0.040050	0.725340	0.031410	1.069459840973
Co9	Co	0.033560	0.814490	0.796000	0.772362165701
Co10	Co	0.450340	0.133740	0.026090	1.156430231548
Co11	Co	0.459950	0.274660	0.531410	1.069459840973
Co12	Co	0.466440	0.185510	0.296000	0.772362165701
Co13	Co	0.973910	0.950340	0.366260	1.156430231548
Co14	Co	0.468590	0.959950	0.225340	1.069459840973
Co15	Co	0.704000	0.966440	0.314490	0.772362165701
Co16	Co	0.473910	0.549660	0.633740	1.156430231548
Co17	Co	0.968590	0.540050	0.774660	1.069459840973
Co18	Co	0.204000	0.533560	0.685510	0.772362165701
Co19	Co	0.526090	0.049660	0.866260	1.156430231548
Co20	Co	0.031410	0.040050	0.725340	1.069459840973
Co21	Co	0.796000	0.033560	0.814490	0.772362165701
Co22	Co	0.026090	0.450340	0.133740	1.156430231548
Co23	Co	0.531410	0.459950	0.274660	1.069459840973
Co24	Co	0.296000	0.466440	0.185510	0.772362165701
Co25	Co	0.366260	0.973910	0.950340	1.156430231548
Co26	Co	0.225340	0.468590	0.959950	1.069459840973
Co27	Co	0.314490	0.704000	0.966440	0.772362165701
Co28	Co	0.633740	0.473910	0.549660	1.156430231548
Co29	Co	0.774660	0.968590	0.540050	1.069459840973
Co30	Co	0.685510	0.204000	0.533560	0.772362165701
Co31	Co	0.866260	0.526090	0.049660	1.156430231548
Co32	Co	0.725340	0.031410	0.040050	1.069459840973
Co33	Co	0.814490	0.796000	0.033560	0.772362165701
Co34	Co	0.133740	0.026090	0.450340	1.156430231548
Co35	Co	0.274660	0.531410	0.459950	1.069459840973
Co36	Co	0.185510	0.296000	0.466440	0.772362165701
Co37	Co	0.049660	0.633740	0.026090	1.156430231548
Co38	Co	0.040050	0.774660	0.531410	1.069459840973
Co39	Co	0.033560	0.685510	0.296000	0.772362165701
Co40	Co	0.450340	0.366260	0.526090	1.156430231548
Co41	Co	0.459950	0.225340	0.031410	1.069459840973
Co42	Co	0.466440	0.314490	0.796000	0.772362165701
Co43	Co	0.950340	0.133740	0.473910	1.156430231548
Co44	Co	0.959950	0.274660	0.968590	1.069459840973
Co45	Co	0.966440	0.185510	0.204000	0.772362165701
Co46	Co	0.549660	0.866260	0.973910	1.156430231548
Co47	Co	0.540050	0.725340	0.468590	1.069459840973
Co48	Co	0.533560	0.814490	0.704000	0.772362165701
Co49	Co	0.026090	0.049660	0.633740	1.156430231548
Co50	Co	0.531410	0.040050	0.774660	1.069459840973
Co51	Co	0.296000	0.033560	0.685510	0.772362165701
Co52	Co	0.526090	0.450340	0.366260	1.156430231548
Co53	Co	0.031410	0.459950	0.225340	1.069459840973
Co54	Co	0.796000	0.466440	0.314490	0.772362165701
Co55	Co	0.473910	0.950340	0.133740	1.156430231548
Co56	Co	0.968590	0.959950	0.274660	1.069459840973
Co57	Co	0.204000	0.966440	0.185510	0.772362165701
Co58	Co	0.973910	0.549660	0.866260	1.156430231548
Co59	Co	0.468590	0.540050	0.725340	1.069459840973
Co60	Co	0.704000	0.533560	0.814490	0.772362165701
Co61	Co	0.633740	0.026090	0.049660	1.156430231548
Co62	Co	0.774660	0.531410	0.040050	1.069459840973
Co63	Co	0.685510	0.296000	0.033560	0.772362165701
Co64	Co	0.366260	0.526090	0.450340	1.156430231548
Co65	Co	0.225340	0.031410	0.459950	1.069459840973
Co66	Co	0.314490	0.796000	0.466440	0.772362165701
Co67	Co	0.133740	0.473910	0.950340	1.156430231548
Co68	Co	0.274660	0.968590	0.959950	1.069459840973
Co69	Co	0.185510	0.204000	0.966440	0.772362165701
Co70	Co	0.866260	0.973910	0.549660	1.156430231548
Co71	Co	0.725340	0.468590	0.540050	1.069459840973
Co72	Co	0.814490	0.704000	0.533560	0.772362165701
H1	H	0.984000	0.135600	0.575100	0.104135857950
H2	H	0.961800	0.233500	0.580800	0.107730704085
H3	H	0.996600	0.188400	0.664600	0.107730704085
H4	H	0.937200	0.350900	0.834000	0.107730704085
H5	H	0.948000	0.440600	0.884400	0.104135857950
H6	H	0.959800	0.436500	0.781800	0.107730704085
H7	H	0.893300	0.407000	0.764400	0.122026186681
H8	H	0.854900	0.381700	0.719900	0.122026186681
H9	H	0.867200	0.284900	0.629300	0.122026186681
H10	H	0.909500	0.243700	0.606100	0.122026186681
H11	H	0.807100	0.385000	0.613800	0.115572445131
H12	H	0.760000	0.360800	0.642600	0.102987978704
H13	H	0.769000	0.319900	0.686000	0.115572445131
H14	H	0.043700	0.230000	0.639400	0.122026186681
H15	H	0.086200	0.262200	0.675100	0.122026186681
H16	H	0.069400	0.348300	0.779900	0.122026186681
H17	H	0.018500	0.374900	0.807600	0.122026186681
H18	H	0.154600	0.277200	0.768000	0.115572445131
H19	H	0.186100	0.320400	0.739900	0.102987978704
H20	H	0.158100	0.359000	0.703100	0.115572445131
H21	H	0.516000	0.864400	0.075100	0.104135857950
H22	H	0.538200	0.766500	0.080800	0.107730704085
H23	H	0.503400	0.811600	0.164600	0.107730704085
H24	H	0.562800	0.649100	0.334000	0.107730704085
H25	H	0.552000	0.559400	0.384400	0.104135857950
H26	H	0.540200	0.563500	0.281800	0.107730704085
H27	H	0.606700	0.593000	0.264400	0.122026186681
H28	H	0.645100	0.618300	0.219900	0.122026186681
H29	H	0.632800	0.715100	0.129300	0.122026186681
H30	H	0.590500	0.756300	0.106100	0.122026186681
H31	H	0.692900	0.615000	0.113800	0.115572445131
H32	H	0.740000	0.639200	0.142600	0.102987978704
H33	H	0.731000	0.680100	0.186000	0.115572445131
H34	H	0.456300	0.770000	0.139400	0.122026186681
H35	H	0.413800	0.737800	0.175100	0.122026186681
H36	H	0.430600	0.651700	0.279900	0.122026186681
H37	H	0.481500	0.625100	0.307600	0.122026186681
H38	H	0.345400	0.722800	0.268000	0.115572445131
H39	H	0.313900	0.679600	0.239900	0.102987978704
H40	H	0.341900	0.641000	0.203100	0.115572445131
H41	H	0.016000	0.635600	0.924900	0.104135857950
H42	H	0.038200	0.733500	0.919200	0.107730704085
H43	H	0.003400	0.688400	0.835400	0.107730704085
H44	H	0.062800	0.850900	0.666000	0.107730704085
H45	H	0.052000	0.940600	0.615600	0.104135857950
H46	H	0.040200	0.936500	0.718200	0.107730704085
H47	H	0.106700	0.907000	0.735600	0.122026186681
H48	H	0.145100	0.881700	0.780100	0.122026186681
H49	H	0.132800	0.784900	0.870700	0.122026186681
H50	H	0.090500	0.743700	0.893900	0.122026186681
H51	H	0.192900	0.885000	0.886200	0.115572445131
H52	H	0.240000	0.860800	0.857400	0.102987978704
H53	H	0.231000	0.819900	0.814000	0.115572445131
H54	H	0.956300	0.730000	0.860600	0.122026186681
H55	H	0.913800	0.762200	0.824900	0.122026186681
H56	H	0.930600	0.848300	0.720100	0.122026186681
H57	H	0.981500	0.874900	0.692400	0.122026186681
H58	H	0.845400	0.777200	0.732000	0.115572445131
H59	H	0.813900	0.820400	0.760100	0.102987978704
H60	H	0.841900	0.859000	0.796900	0.115572445131
H61	H	0.484000	0.364400	0.424900	0.104135857950
H62	H	0.461800	0.266500	0.419200	0.107730704085
H63	H	0.496600	0.311600	0.335400	0.107730704085
H64	H	0.437200	0.149100	0.166000	0.107730704085
H65	H	0.448000	0.059400	0.115600	0.104135857950
H66	H	0.459800	0.063500	0.218200	0.107730704085
H67	H	0.393300	0.093000	0.235600	0.122026186681
H68	H	0.354900	0.118300	0.280100	0.122026186681
H69	H	0.367200	0.215100	0.370700	0.122026186681
H70	H	0.409500	0.256300	0.393900	0.122026186681
H71	H	0.307100	0.115000	0.386200	0.115572445131
H72	H	0.260000	0.139200	0.357400	0.102987978704
H73	H	0.269000	0.180100	0.314000	0.115572445131
H74	H	0.543700	0.270000	0.360600	0.122026186681
H75	H	0.586200	0.237800	0.324900	0.122026186681
H76	H	0.569400	0.151700	0.220100	0.122026186681
H77	H	0.518500	0.125100	0.192400	0.122026186681
H78	H	0.654600	0.222800	0.232000	0.115572445131
H79	H	0.686100	0.179600	0.260100	0.102987978704
H80	H	0.658100	0.141000	0.296900	0.115572445131
H81	H	0.575100	0.984000	0.135600	0.104135857950
H82	H	0.580800	0.961800	0.233500	0.107730704085
H83	H	0.664600	0.996600	0.188400	0.107730704085
H84	H	0.834000	0.937200	0.350900	0.107730704085
H85	H	0.884400	0.948000	0.440600	0.104135857950
H86	H	0.781800	0.959800	0.436500	0.107730704085
H87	H	0.764400	0.893300	0.407000	0.122026186681
H88	H	0.719900	0.854900	0.381700	0.122026186681
H89	H	0.629300	0.867200	0.284900	0.122026186681
H90	H	0.606100	0.909500	0.243700	0.122026186681
H91	H	0.613800	0.807100	0.385000	0.115572445131
H92	H	0.642600	0.760000	0.360800	0.102987978704
H93	H	0.686000	0.769000	0.319900	0.115572445131
H94	H	0.639400	0.043700	0.230000	0.122026186681
H95	H	0.675100	0.086200	0.262200	0.122026186681
H96	H	0.779900	0.069400	0.348300	0.122026186681
H97	H	0.807600	0.018500	0.374900	0.122026186681
H98	H	0.768000	0.154600	0.277200	0.115572445131
H99	H	0.739900	0.186100	0.320400	0.102987978704
H100	H	0.703100	0.158100	0.359000	0.115572445131
H101	H	0.075100	0.516000	0.864400	0.104135857950
H102	H	0.080800	0.538200	0.766500	0.107730704085
H103	H	0.164600	0.503400	0.811600	0.107730704085
H104	H	0.334000	0.562800	0.649100	0.107730704085
H105	H	0.384400	0.552000	0.559400	0.104135857950
H106	H	0.281800	0.540200	0.563500	0.107730704085
H107	H	0.264400	0.606700	0.593000	0.122026186681
H108	H	0.219900	0.645100	0.618300	0.122026186681
H109	H	0.129300	0.632800	0.715100	0.122026186681
H110	H	0.106100	0.590500	0.756300	0.122026186681
H111	H	0.113800	0.692900	0.615000	0.115572445131
H112	H	0.142600	0.740000	0.639200	0.102987978704
H113	H	0.186000	0.731000	0.680100	0.115572445131
H114	H	0.139400	0.456300	0.770000	0.122026186681
H115	H	0.175100	0.413800	0.737800	0.122026186681
H116	H	0.279900	0.430600	0.651700	0.122026186681
H117	H	0.307600	0.481500	0.625100	0.122026186681
H118	H	0.268000	0.345400	0.722800	0.115572445131
H119	H	0.239900	0.313900	0.679600	0.102987978704
H120	H	0.203100	0.341900	0.641000	0.115572445131
H121	H	0.924900	0.016000	0.635600	0.104135857950
H122	H	0.919200	0.038200	0.733500	0.107730704085
H123	H	0.835400	0.003400	0.688400	0.107730704085
H124	H	0.666000	0.062800	0.850900	0.107730704085
H125	H	0.615600	0.052000	0.940600	0.104135857950
H126	H	0.718200	0.040200	0.936500	0.107730704085
H127	H	0.735600	0.106700	0.907000	0.122026186681
H128	H	0.780100	0.145100	0.881700	0.122026186681
H129	H	0.870700	0.132800	0.784900	0.122026186681
H130	H	0.893900	0.090500	0.743700	0.122026186681
H131	H	0.886200	0.192900	0.885000	0.115572445131
H132	H	0.857400	0.240000	0.860800	0.102987978704
H133	H	0.814000	0.231000	0.819900	0.115572445131
H134	H	0.860600	0.956300	0.730000	0.122026186681
H135	H	0.824900	0.913800	0.762200	0.122026186681
H136	H	0.720100	0.930600	0.848300	0.122026186681
H137	H	0.692400	0.981500	0.874900	0.122026186681
H138	H	0.732000	0.845400	0.777200	0.115572445131
H139	H	0.760100	0.813900	0.820400	0.102987978704
H140	H	0.796900	0.841900	0.859000	0.115572445131
H141	H	0.424900	0.484000	0.364400	0.104135857950
H142	H	0.419200	0.461800	0.266500	0.107730704085
H143	H	0.335400	0.496600	0.311600	0.107730704085
H144	H	0.166000	0.437200	0.149100	0.107730704085
H145	H	0.115600	0.448000	0.059400	0.104135857950
H146	H	0.218200	0.459800	0.063500	0.107730704085
H147	H	0.235600	0.393300	0.093000	0.122026186681
H148	H	0.280100	0.354900	0.118300	0.122026186681
H149	H	0.370700	0.367200	0.215100	0.122026186681
H150	H	0.393900	0.409500	0.256300	0.122026186681
H151	H	0.386200	0.307100	0.115000	0.115572445131
H152	H	0.357400	0.260000	0.139200	0.102987978704
H153	H	0.314000	0.269000	0.180100	0.115572445131
H154	H	0.360600	0.543700	0.270000	0.122026186681
H155	H	0.324900	0.586200	0.237800	0.122026186681
H156	H	0.220100	0.569400	0.151700	0.122026186681
H157	H	0.192400	0.518500	0.125100	0.122026186681
H158	H	0.232000	0.654600	0.222800	0.115572445131
H159	H	0.260100	0.686100	0.179600	0.102987978704
H160	H	0.296900	0.658100	0.141000	0.115572445131
H161	H	0.135600	0.575100	0.984000	0.104135857950
H162	H	0.233500	0.580800	0.961800	0.107730704085
H163	H	0.188400	0.664600	0.996600	0.107730704085
H164	H	0.350900	0.834000	0.937200	0.107730704085
H165	H	0.440600	0.884400	0.948000	0.104135857950
H166	H	0.436500	0.781800	0.959800	0.107730704085
H167	H	0.407000	0.764400	0.893300	0.122026186681
H168	H	0.381700	0.719900	0.854900	0.122026186681
H169	H	0.284900	0.629300	0.867200	0.122026186681
H170	H	0.243700	0.606100	0.909500	0.122026186681
H171	H	0.385000	0.613800	0.807100	0.115572445131
H172	H	0.360800	0.642600	0.760000	0.102987978704
H173	H	0.319900	0.686000	0.769000	0.115572445131
H174	H	0.230000	0.639400	0.043700	0.122026186681
H175	H	0.262200	0.675100	0.086200	0.122026186681
H176	H	0.348300	0.779900	0.069400	0.122026186681
H177	H	0.374900	0.807600	0.018500	0.122026186681
H178	H	0.277200	0.768000	0.154600	0.115572445131
H179	H	0.320400	0.739900	0.186100	0.102987978704
H180	H	0.359000	0.703100	0.158100	0.115572445131
H181	H	0.864400	0.075100	0.516000	0.104135857950
H182	H	0.766500	0.080800	0.538200	0.107730704085
H183	H	0.811600	0.164600	0.503400	0.107730704085
H184	H	0.649100	0.334000	0.562800	0.107730704085
H185	H	0.559400	0.384400	0.552000	0.104135857950
H186	H	0.563500	0.281800	0.540200	0.107730704085
H187	H	0.593000	0.264400	0.606700	0.122026186681
H188	H	0.618300	0.219900	0.645100	0.122026186681
H189	H	0.715100	0.129300	0.632800	0.122026186681
H190	H	0.756300	0.106100	0.590500	0.122026186681
H191	H	0.615000	0.113800	0.692900	0.115572445131
H192	H	0.639200	0.142600	0.740000	0.102987978704
H193	H	0.680100	0.186000	0.731000	0.115572445131
H194	H	0.770000	0.139400	0.456300	0.122026186681
H195	H	0.737800	0.175100	0.413800	0.122026186681
H196	H	0.651700	0.279900	0.430600	0.122026186681
H197	H	0.625100	0.307600	0.481500	0.122026186681
H198	H	0.722800	0.268000	0.345400	0.115572445131
H199	H	0.679600	0.239900	0.313900	0.102987978704
H200	H	0.641000	0.203100	0.341900	0.115572445131
H201	H	0.635600	0.924900	0.016000	0.104135857950
H202	H	0.733500	0.919200	0.038200	0.107730704085
H203	H	0.688400	0.835400	0.003400	0.107730704085
H204	H	0.850900	0.666000	0.062800	0.107730704085
H205	H	0.940600	0.615600	0.052000	0.104135857950
H206	H	0.936500	0.718200	0.040200	0.107730704085
H207	H	0.907000	0.735600	0.106700	0.122026186681
H208	H	0.881700	0.780100	0.145100	0.122026186681
H209	H	0.784900	0.870700	0.132800	0.122026186681
H210	H	0.743700	0.893900	0.090500	0.122026186681
H211	H	0.885000	0.886200	0.192900	0.115572445131
H212	H	0.860800	0.857400	0.240000	0.102987978704
H213	H	0.819900	0.814000	0.231000	0.115572445131
H214	H	0.730000	0.860600	0.956300	0.122026186681
H215	H	0.762200	0.824900	0.913800	0.122026186681
H216	H	0.848300	0.720100	0.930600	0.122026186681
H217	H	0.874900	0.692400	0.981500	0.122026186681
H218	H	0.777200	0.732000	0.845400	0.115572445131
H219	H	0.820400	0.760100	0.813900	0.102987978704
H220	H	0.859000	0.796900	0.841900	0.115572445131
H221	H	0.364400	0.424900	0.484000	0.104135857950
H222	H	0.266500	0.419200	0.461800	0.107730704085
H223	H	0.311600	0.335400	0.496600	0.107730704085
H224	H	0.149100	0.166000	0.437200	0.107730704085
H225	H	0.059400	0.115600	0.448000	0.104135857950
H226	H	0.063500	0.218200	0.459800	0.107730704085
H227	H	0.093000	0.235600	0.393300	0.122026186681
H228	H	0.118300	0.280100	0.354900	0.122026186681
H229	H	0.215100	0.370700	0.367200	0.122026186681
H230	H	0.256300	0.393900	0.409500	0.122026186681
H231	H	0.115000	0.386200	0.307100	0.115572445131
H232	H	0.139200	0.357400	0.260000	0.102987978704
H233	H	0.180100	0.314000	0.269000	0.115572445131
H234	H	0.270000	0.360600	0.543700	0.122026186681
H235	H	0.237800	0.324900	0.586200	0.122026186681
H236	H	0.151700	0.220100	0.569400	0.122026186681
H237	H	0.125100	0.192400	0.518500	0.122026186681
H238	H	0.222800	0.232000	0.654600	0.115572445131
H239	H	0.179600	0.260100	0.686100	0.102987978704
H240	H	0.141000	0.296900	0.658100	0.115572445131
H241	H	0.016000	0.864400	0.424900	0.104135857950
H242	H	0.038200	0.766500	0.419200	0.107730704085
H243	H	0.003400	0.811600	0.335400	0.107730704085
H244	H	0.062800	0.649100	0.166000	0.107730704085
H245	H	0.052000	0.559400	0.115600	0.104135857950
H246	H	0.040200	0.563500	0.218200	0.107730704085
H247	H	0.106700	0.593000	0.235600	0.122026186681
H248	H	0.145100	0.618300	0.280100	0.122026186681
H249	H	0.132800	0.715100	0.370700	0.122026186681
H250	H	0.090500	0.756300	0.393900	0.122026186681
H251	H	0.192900	0.615000	0.386200	0.115572445131
H252	H	0.240000	0.639200	0.357400	0.102987978704
H253	H	0.231000	0.680100	0.314000	0.115572445131
H254	H	0.956300	0.770000	0.360600	0.122026186681
H255	H	0.913800	0.737800	0.324900	0.122026186681
H256	H	0.930600	0.651700	0.220100	0.122026186681
H257	H	0.981500	0.625100	0.192400	0.122026186681
H258	H	0.845400	0.722800	0.232000	0.115572445131
H259	H	0.813900	0.679600	0.260100	0.102987978704
H260	H	0.841900	0.641000	0.296900	0.115572445131
H261	H	0.484000	0.135600	0.924900	0.104135857950
H262	H	0.461800	0.233500	0.919200	0.107730704085
H263	H	0.496600	0.188400	0.835400	0.107730704085
H264	H	0.437200	0.350900	0.666000	0.107730704085
H265	H	0.448000	0.440600	0.615600	0.104135857950
H266	H	0.459800	0.436500	0.718200	0.107730704085
H267	H	0.393300	0.407000	0.735600	0.122026186681
H268	H	0.354900	0.381700	0.780100	0.122026186681
H269	H	0.367200	0.284900	0.870700	0.122026186681
H270	H	0.409500	0.243700	0.893900	0.122026186681
H271	H	0.307100	0.385000	0.886200	0.115572445131
H272	H	0.260000	0.360800	0.857400	0.102987978704
H273	H	0.269000	0.319900	0.814000	0.115572445131
H274	H	0.543700	0.230000	0.860600	0.122026186681
H275	H	0.586200	0.262200	0.824900	0.122026186681
H276	H	0.569400	0.348300	0.720100	0.122026186681
H277	H	0.518500	0.374900	0.692400	0.122026186681
H278	H	0.654600	0.277200	0.732000	0.115572445131
H279	H	0.686100	0.320400	0.760100	0.102987978704
H280	H	0.658100	0.359000	0.796900	0.115572445131
H281	H	0.984000	0.364400	0.075100	0.104135857950
H282	H	0.961800	0.266500	0.080800	0.107730704085
H283	H	0.996600	0.311600	0.164600	0.107730704085
H284	H	0.937200	0.149100	0.334000	0.107730704085
H285	H	0.948000	0.059400	0.384400	0.104135857950
H286	H	0.959800	0.063500	0.281800	0.107730704085
H287	H	0.893300	0.093000	0.264400	0.122026186681
H288	H	0.854900	0.118300	0.219900	0.122026186681
H289	H	0.867200	0.215100	0.129300	0.122026186681
H290	H	0.909500	0.256300	0.106100	0.122026186681
H291	H	0.807100	0.115000	0.113800	0.115572445131
H292	H	0.760000	0.139200	0.142600	0.102987978704
H293	H	0.769000	0.180100	0.186000	0.115572445131
H294	H	0.043700	0.270000	0.139400	0.122026186681
H295	H	0.086200	0.237800	0.175100	0.122026186681
H296	H	0.069400	0.151700	0.279900	0.122026186681
H297	H	0.018500	0.125100	0.307600	0.122026186681
H298	H	0.154600	0.222800	0.268000	0.115572445131
H299	H	0.186100	0.179600	0.239900	0.102987978704
H300	H	0.158100	0.141000	0.203100	0.115572445131
H301	H	0.516000	0.635600	0.575100	0.104135857950
H302	H	0.538200	0.733500	0.580800	0.107730704085
H303	H	0.503400	0.688400	0.664600	0.107730704085
H304	H	0.562800	0.850900	0.834000	0.107730704085
H305	H	0.552000	0.940600	0.884400	0.104135857950
H306	H	0.540200	0.936500	0.781800	0.107730704085
H307	H	0.606700	0.907000	0.764400	0.122026186681
H308	H	0.645100	0.881700	0.719900	0.122026186681
H309	H	0.632800	0.784900	0.629300	0.122026186681
H310	H	0.590500	0.743700	0.606100	0.122026186681
H311	H	0.692900	0.885000	0.613800	0.115572445131
H312	H	0.740000	0.860800	0.642600	0.102987978704
H313	H	0.731000	0.819900	0.686000	0.115572445131
H314	H	0.456300	0.730000	0.639400	0.122026186681
H315	H	0.413800	0.762200	0.675100	0.122026186681
H316	H	0.430600	0.848300	0.779900	0.122026186681
H317	H	0.481500	0.874900	0.807600	0.122026186681
H318	H	0.345400	0.777200	0.768000	0.115572445131
H319	H	0.313900	0.820400	0.739900	0.102987978704
H320	H	0.341900	0.859000	0.703100	0.115572445131
H321	H	0.424900	0.016000	0.864400	0.104135857950
H322	H	0.419200	0.038200	0.766500	0.107730704085
H323	H	0.335400	0.003400	0.811600	0.107730704085
H324	H	0.166000	0.062800	0.649100	0.107730704085
H325	H	0.115600	0.052000	0.559400	0.104135857950
H326	H	0.218200	0.040200	0.563500	0.107730704085
H327	H	0.235600	0.106700	0.593000	0.122026186681
H328	H	0.280100	0.145100	0.618300	0.122026186681
H329	H	0.370700	0.132800	0.715100	0.122026186681
H330	H	0.393900	0.090500	0.756300	0.122026186681
H331	H	0.386200	0.192900	0.615000	0.115572445131
H332	H	0.357400	0.240000	0.639200	0.102987978704
H333	H	0.314000	0.231000	0.680100	0.115572445131
H334	H	0.360600	0.956300	0.770000	0.122026186681
H335	H	0.324900	0.913800	0.737800	0.122026186681
H336	H	0.220100	0.930600	0.651700	0.122026186681
H337	H	0.192400	0.981500	0.625100	0.122026186681
H338	H	0.232000	0.845400	0.722800	0.115572445131
H339	H	0.260100	0.813900	0.679600	0.102987978704
H340	H	0.296900	0.841900	0.641000	0.115572445131
H341	H	0.924900	0.484000	0.135600	0.104135857950
H342	H	0.919200	0.461800	0.233500	0.107730704085
H343	H	0.835400	0.496600	0.188400	0.107730704085
H344	H	0.666000	0.437200	0.350900	0.107730704085
H345	H	0.615600	0.448000	0.440600	0.104135857950
H346	H	0.718200	0.459800	0.436500	0.107730704085
H347	H	0.735600	0.393300	0.407000	0.122026186681
H348	H	0.780100	0.354900	0.381700	0.122026186681
H349	H	0.870700	0.367200	0.284900	0.122026186681
H350	H	0.893900	0.409500	0.243700	0.122026186681
H351	H	0.886200	0.307100	0.385000	0.115572445131
H352	H	0.857400	0.260000	0.360800	0.102987978704
H353	H	0.814000	0.269000	0.319900	0.115572445131
H354	H	0.860600	0.543700	0.230000	0.122026186681
H355	H	0.824900	0.586200	0.262200	0.122026186681
H356	H	0.720100	0.569400	0.348300	0.122026186681
H357	H	0.692400	0.518500	0.374900	0.122026186681
H358	H	0.732000	0.654600	0.277200	0.115572445131
H359	H	0.760100	0.686100	0.320400	0.102987978704
H360	H	0.796900	0.658100	0.359000	0.115572445131
H361	H	0.075100	0.984000	0.364400	0.104135857950
H362	H	0.080800	0.961800	0.266500	0.107730704085
H363	H	0.164600	0.996600	0.311600	0.107730704085
H364	H	0.334000	0.937200	0.149100	0.107730704085
H365	H	0.384400	0.948000	0.059400	0.104135857950
H366	H	0.281800	0.959800	0.063500	0.107730704085
H367	H	0.264400	0.893300	0.093000	0.122026186681
H368	H	0.219900	0.854900	0.118300	0.122026186681
H369	H	0.129300	0.867200	0.215100	0.122026186681
H370	H	0.106100	0.909500	0.256300	0.122026186681
H371	H	0.113800	0.807100	0.115000	0.115572445131
H372	H	0.142600	0.760000	0.139200	0.102987978704
H373	H	0.186000	0.769000	0.180100	0.115572445131
H374	H	0.139400	0.043700	0.270000	0.122026186681
H375	H	0.175100	0.086200	0.237800	0.122026186681
H376	H	0.279900	0.069400	0.151700	0.122026186681
H377	H	0.307600	0.018500	0.125100	0.122026186681
H378	H	0.268000	0.154600	0.222800	0.115572445131
H379	H	0.239900	0.186100	0.179600	0.102987978704
H380	H	0.203100	0.158100	0.141000	0.115572445131
H381	H	0.575100	0.516000	0.635600	0.104135857950
H382	H	0.580800	0.538200	0.733500	0.107730704085
H383	H	0.664600	0.503400	0.688400	0.107730704085
H384	H	0.834000	0.562800	0.850900	0.107730704085
H385	H	0.884400	0.552000	0.940600	0.104135857950
H386	H	0.781800	0.540200	0.936500	0.107730704085
H387	H	0.764400	0.606700	0.907000	0.122026186681
H388	H	0.719900	0.645100	0.881700	0.122026186681
H389	H	0.629300	0.632800	0.784900	0.122026186681
H390	H	0.606100	0.590500	0.743700	0.122026186681
H391	H	0.613800	0.692900	0.885000	0.115572445131
H392	H	0.642600	0.740000	0.860800	0.102987978704
H393	H	0.686000	0.731000	0.819900	0.115572445131
H394	H	0.639400	0.456300	0.730000	0.122026186681
H395	H	0.675100	0.413800	0.762200	0.122026186681
H396	H	0.779900	0.430600	0.848300	0.122026186681
H397	H	0.807600	0.481500	0.874900	0.122026186681
H398	H	0.768000	0.345400	0.777200	0.115572445131
H399	H	0.739900	0.313900	0.820400	0.102987978704
H400	H	0.703100	0.341900	0.859000	0.115572445131
H401	H	0.864400	0.424900	0.016000	0.104135857950
H402	H	0.766500	0.419200	0.038200	0.107730704085
H403	H	0.811600	0.335400	0.003400	0.107730704085
H404	H	0.649100	0.166000	0.062800	0.107730704085
H405	H	0.559400	0.115600	0.052000	0.104135857950
H406	H	0.563500	0.218200	0.040200	0.107730704085
H407	H	0.593000	0.235600	0.106700	0.122026186681
H408	H	0.618300	0.280100	0.145100	0.122026186681
H409	H	0.715100	0.370700	0.132800	0.122026186681
H410	H	0.756300	0.393900	0.090500	0.122026186681
H411	H	0.615000	0.386200	0.192900	0.115572445131
H412	H	0.639200	0.357400	0.240000	0.102987978704
H413	H	0.680100	0.314000	0.231000	0.115572445131
H414	H	0.770000	0.360600	0.956300	0.122026186681
H415	H	0.737800	0.324900	0.913800	0.122026186681
H416	H	0.651700	0.220100	0.930600	0.122026186681
H417	H	0.625100	0.192400	0.981500	0.122026186681
H418	H	0.722800	0.232000	0.845400	0.115572445131
H419	H	0.679600	0.260100	0.813900	0.102987978704
H420	H	0.641000	0.296900	0.841900	0.115572445131
H421	H	0.135600	0.924900	0.484000	0.104135857950
H422	H	0.233500	0.919200	0.461800	0.107730704085
H423	H	0.188400	0.835400	0.496600	0.107730704085
H424	H	0.350900	0.666000	0.437200	0.107730704085
H425	H	0.440600	0.615600	0.448000	0.104135857950
H426	H	0.436500	0.718200	0.459800	0.107730704085
H427	H	0.407000	0.735600	0.393300	0.122026186681
H428	H	0.381700	0.780100	0.354900	0.122026186681
H429	H	0.284900	0.870700	0.367200	0.122026186681
H430	H	0.243700	0.893900	0.409500	0.122026186681
H431	H	0.385000	0.886200	0.307100	0.115572445131
H432	H	0.360800	0.857400	0.260000	0.102987978704
H433	H	0.319900	0.814000	0.269000	0.115572445131
H434	H	0.230000	0.860600	0.543700	0.122026186681
H435	H	0.262200	0.824900	0.586200	0.122026186681
H436	H	0.348300	0.720100	0.569400	0.122026186681
H437	H	0.374900	0.692400	0.518500	0.122026186681
H438	H	0.277200	0.732000	0.654600	0.115572445131
H439	H	0.320400	0.760100	0.686100	0.102987978704
H440	H	0.359000	0.796900	0.658100	0.115572445131
H441	H	0.364400	0.075100	0.984000	0.104135857950
H442	H	0.266500	0.080800	0.961800	0.107730704085
H443	H	0.311600	0.164600	0.996600	0.107730704085
H444	H	0.149100	0.334000	0.937200	0.107730704085
H445	H	0.059400	0.384400	0.948000	0.104135857950
H446	H	0.063500	0.281800	0.959800	0.107730704085
H447	H	0.093000	0.264400	0.893300	0.122026186681
H448	H	0.118300	0.219900	0.854900	0.122026186681
H449	H	0.215100	0.129300	0.867200	0.122026186681
H450	H	0.256300	0.106100	0.909500	0.122026186681
H451	H	0.115000	0.113800	0.807100	0.115572445131
H452	H	0.139200	0.142600	0.760000	0.102987978704
H453	H	0.180100	0.186000	0.769000	0.115572445131
H454	H	0.270000	0.139400	0.043700	0.122026186681
H455	H	0.237800	0.175100	0.086200	0.122026186681
H456	H	0.151700	0.279900	0.069400	0.122026186681
H457	H	0.125100	0.307600	0.018500	0.122026186681
H458	H	0.222800	0.268000	0.154600	0.115572445131
H459	H	0.179600	0.239900	0.186100	0.102987978704
H460	H	0.141000	0.203100	0.158100	0.115572445131
H461	H	0.635600	0.575100	0.516000	0.104135857950
H462	H	0.733500	0.580800	0.538200	0.107730704085
H463	H	0.688400	0.664600	0.503400	0.107730704085
H464	H	0.850900	0.834000	0.562800	0.107730704085
H465	H	0.940600	0.884400	0.552000	0.104135857950
H466	H	0.936500	0.781800	0.540200	0.107730704085
H467	H	0.907000	0.764400	0.606700	0.122026186681
H468	H	0.881700	0.719900	0.645100	0.122026186681
H469	H	0.784900	0.629300	0.632800	0.122026186681
H470	H	0.743700	0.606100	0.590500	0.122026186681
H471	H	0.885000	0.613800	0.692900	0.115572445131
H472	H	0.860800	0.642600	0.740000	0.102987978704
H473	H	0.819900	0.686000	0.731000	0.115572445131
H474	H	0.730000	0.639400	0.456300	0.122026186681
H475	H	0.762200	0.675100	0.413800	0.122026186681
H476	H	0.848300	0.779900	0.430600	0.122026186681
H477	H	0.874900	0.807600	0.481500	0.122026186681
H478	H	0.777200	0.768000	0.345400	0.115572445131
H479	H	0.820400	0.739900	0.313900	0.102987978704
H480	H	0.859000	0.703100	0.341900	0.115572445131
C1	C	0.961500	0.182900	0.534800	0.726753407988
C2	C	0.006300	0.124800	0.640700	0.664479464142
C3	C	0.991000	0.154900	0.624800	-0.118822812848
C4	C	0.981400	0.155900	0.588400	0.010977484367
C5	C	0.969600	0.183400	0.573500	-0.146949362989
C6	C	0.968200	0.213000	0.592600	-0.072199249417
C7	C	0.975100	0.215900	0.626700	0.058685330685
C8	C	0.988500	0.186800	0.641600	-0.075145862072
C9	C	0.957200	0.481800	0.831300	0.726753407988
C10	C	0.937500	0.374100	0.898800	0.664479464142
C11	C	0.942200	0.374900	0.834000	-0.075145862072
C12	C	0.941500	0.393000	0.864900	-0.118822812848
C13	C	0.947200	0.427800	0.863600	0.010977484367
C14	C	0.951800	0.444500	0.832700	-0.146949362989
C15	C	0.954600	0.425200	0.802800	-0.072199249417
C16	C	0.950100	0.391400	0.802900	0.058685330685
C17	C	0.955800	0.369200	0.770200	-0.123376304720
C18	C	0.931700	0.373000	0.744600	0.241778043191
C19	C	0.899200	0.389600	0.748200	-0.149138573295
C20	C	0.878300	0.375700	0.724000	-0.149138573295
C21	C	0.897700	0.350100	0.705600	0.237115139370
C22	C	0.884600	0.329400	0.679800	-0.092584186721
C23	C	0.904900	0.306400	0.661900	0.237115139370
C24	C	0.890600	0.283800	0.636300	-0.149138573295
C25	C	0.913200	0.260900	0.623200	-0.149138573295
C26	C	0.944200	0.269000	0.641600	0.241778043191
C27	C	0.849400	0.334200	0.665700	0.011981978611
C28	C	0.844100	0.358500	0.640000	0.037027293440
C29	C	0.810700	0.368400	0.631400	-0.135853147703
C30	C	0.782800	0.354000	0.648500	0.006580021674
C31	C	0.788100	0.329700	0.674300	-0.135853147703
C32	C	0.821500	0.319800	0.682900	0.037027293440
C33	C	0.972800	0.248600	0.647700	-0.123376304720
C34	C	0.003700	0.260800	0.661800	0.241778043191
C35	C	0.038300	0.248000	0.655200	-0.149138573295
C36	C	0.061900	0.265100	0.674500	-0.149138573295
C37	C	0.040600	0.289000	0.694100	0.237115139370
C38	C	0.053900	0.310900	0.719900	-0.092584186721
C39	C	0.034000	0.332000	0.740500	0.237115139370
C40	C	0.046400	0.348000	0.771600	-0.149138573295
C41	C	0.018600	0.362500	0.786500	-0.149138573295
C42	C	0.989100	0.356000	0.765000	0.241778043191
C43	C	0.143300	0.292900	0.753000	-0.135853147703
C44	C	0.161900	0.318500	0.736400	0.006580021674
C45	C	0.145300	0.341500	0.714500	-0.135853147703
C46	C	0.110000	0.338800	0.709200	0.037027293440
C47	C	0.091300	0.313200	0.725900	0.011981978611
C48	C	0.107900	0.290200	0.747800	0.037027293440
C49	C	0.538500	0.817100	0.034800	0.726753407988
C50	C	0.493700	0.875200	0.140700	0.664479464142
C51	C	0.509000	0.845100	0.124800	-0.118822812848
C52	C	0.518600	0.844100	0.088400	0.010977484367
C53	C	0.530400	0.816600	0.073500	-0.146949362989
C54	C	0.531800	0.787000	0.092600	-0.072199249417
C55	C	0.524900	0.784100	0.126700	0.058685330685
C56	C	0.511500	0.813200	0.141600	-0.075145862072
C57	C	0.542800	0.518200	0.331300	0.726753407988
C58	C	0.562500	0.625900	0.398800	0.664479464142
C59	C	0.557800	0.625100	0.334000	-0.075145862072
C60	C	0.558500	0.607000	0.364900	-0.118822812848
C61	C	0.552800	0.572200	0.363600	0.010977484367
C62	C	0.548200	0.555500	0.332700	-0.146949362989
C63	C	0.545400	0.574800	0.302800	-0.072199249417
C64	C	0.549900	0.608600	0.302900	0.058685330685
C65	C	0.544200	0.630800	0.270200	-0.123376304720
C66	C	0.568300	0.627000	0.244600	0.241778043191
C67	C	0.600800	0.610400	0.248200	-0.149138573295
C68	C	0.621700	0.624300	0.224000	-0.149138573295
C69	C	0.602300	0.649900	0.205600	0.237115139370
C70	C	0.615400	0.670600	0.179800	-0.092584186721
C71	C	0.595100	0.693600	0.161900	0.237115139370
C72	C	0.609400	0.716200	0.136300	-0.149138573295
C73	C	0.586800	0.739100	0.123200	-0.149138573295
C74	C	0.555800	0.731000	0.141600	0.241778043191
C75	C	0.650600	0.665800	0.165700	0.011981978611
C76	C	0.655900	0.641500	0.140000	0.037027293440
C77	C	0.689300	0.631600	0.131400	-0.135853147703
C78	C	0.717200	0.646000	0.148500	0.006580021674
C79	C	0.711900	0.670300	0.174300	-0.135853147703
C80	C	0.678500	0.680200	0.182900	0.037027293440
C81	C	0.527200	0.751400	0.147700	-0.123376304720
C82	C	0.496300	0.739200	0.161800	0.241778043191
C83	C	0.461700	0.752000	0.155200	-0.149138573295
C84	C	0.438100	0.734900	0.174500	-0.149138573295
C85	C	0.459400	0.711000	0.194100	0.237115139370
C86	C	0.446100	0.689100	0.219900	-0.092584186721
C87	C	0.466000	0.668000	0.240500	0.237115139370
C88	C	0.453600	0.652000	0.271600	-0.149138573295
C89	C	0.481400	0.637500	0.286500	-0.149138573295
C90	C	0.510900	0.644000	0.265000	0.241778043191
C91	C	0.356700	0.707100	0.253000	-0.135853147703
C92	C	0.338100	0.681500	0.236400	0.006580021674
C93	C	0.354700	0.658500	0.214500	-0.135853147703
C94	C	0.390000	0.661200	0.209200	0.037027293440
C95	C	0.408700	0.686800	0.225900	0.011981978611
C96	C	0.392100	0.709800	0.247800	0.037027293440
C97	C	0.038500	0.682900	0.965200	0.726753407988
C98	C	0.993700	0.624800	0.859300	0.664479464142
C99	C	0.009000	0.654900	0.875200	-0.118822812848
C100	C	0.018600	0.655900	0.911600	0.010977484367
C101	C	0.030400	0.683400	0.926500	-0.146949362989
C102	C	0.031800	0.713000	0.907400	-0.072199249417
C103	C	0.024900	0.715900	0.873300	0.058685330685
C104	C	0.011500	0.686800	0.858400	-0.075145862072
C105	C	0.042800	0.981800	0.668700	0.726753407988
C106	C	0.062500	0.874100	0.601200	0.664479464142
C107	C	0.057800	0.874900	0.666000	-0.075145862072
C108	C	0.058500	0.893000	0.635100	-0.118822812848
C109	C	0.052800	0.927800	0.636400	0.010977484367
C110	C	0.048200	0.944500	0.667300	-0.146949362989
C111	C	0.045400	0.925200	0.697200	-0.072199249417
C112	C	0.049900	0.891400	0.697100	0.058685330685
C113	C	0.044200	0.869200	0.729800	-0.123376304720
C114	C	0.068300	0.873000	0.755400	0.241778043191
C115	C	0.100800	0.889600	0.751800	-0.149138573295
C116	C	0.121700	0.875700	0.776000	-0.149138573295
C117	C	0.102300	0.850100	0.794400	0.237115139370
C118	C	0.115400	0.829400	0.820200	-0.092584186721
C119	C	0.095100	0.806400	0.838100	0.237115139370
C120	C	0.109400	0.783800	0.863700	-0.149138573295
C121	C	0.086800	0.760900	0.876800	-0.149138573295
C122	C	0.055800	0.769000	0.858400	0.241778043191
C123	C	0.150600	0.834200	0.834300	0.011981978611
C124	C	0.155900	0.858500	0.860000	0.037027293440
C125	C	0.189300	0.868400	0.868600	-0.135853147703
C126	C	0.217200	0.854000	0.851500	0.006580021674
C127	C	0.211900	0.829700	0.825700	-0.135853147703
C128	C	0.178500	0.819800	0.817100	0.037027293440
C129	C	0.027200	0.748600	0.852300	-0.123376304720
C130	C	0.996300	0.760800	0.838200	0.241778043191
C131	C	0.961700	0.748000	0.844800	-0.149138573295
C132	C	0.938100	0.765100	0.825500	-0.149138573295
C133	C	0.959400	0.789000	0.805900	0.237115139370
C134	C	0.946100	0.810900	0.780100	-0.092584186721
C135	C	0.966000	0.832000	0.759500	0.237115139370
C136	C	0.953600	0.848000	0.728400	-0.149138573295
C137	C	0.981400	0.862500	0.713500	-0.149138573295
C138	C	0.010900	0.856000	0.735000	0.241778043191
C139	C	0.856700	0.792900	0.747000	-0.135853147703
C140	C	0.838100	0.818500	0.763600	0.006580021674
C141	C	0.854700	0.841500	0.785500	-0.135853147703
C142	C	0.890000	0.838800	0.790800	0.037027293440
C143	C	0.908700	0.813200	0.774100	0.011981978611
C144	C	0.892100	0.790200	0.752200	0.037027293440
C145	C	0.461500	0.317100	0.465200	0.726753407988
C146	C	0.506300	0.375200	0.359300	0.664479464142
C147	C	0.491000	0.345100	0.375200	-0.118822812848
C148	C	0.481400	0.344100	0.411600	0.010977484367
C149	C	0.469600	0.316600	0.426500	-0.146949362989
C150	C	0.468200	0.287000	0.407400	-0.072199249417
C151	C	0.475100	0.284100	0.373300	0.058685330685
C152	C	0.488500	0.313200	0.358400	-0.075145862072
C153	C	0.457200	0.018200	0.168700	0.726753407988
C154	C	0.437500	0.125900	0.101200	0.664479464142
C155	C	0.442200	0.125100	0.166000	-0.075145862072
C156	C	0.441500	0.107000	0.135100	-0.118822812848
C157	C	0.447200	0.072200	0.136400	0.010977484367
C158	C	0.451800	0.055500	0.167300	-0.146949362989
C159	C	0.454600	0.074800	0.197200	-0.072199249417
C160	C	0.450100	0.108600	0.197100	0.058685330685
C161	C	0.455800	0.130800	0.229800	-0.123376304720
C162	C	0.431700	0.127000	0.255400	0.241778043191
C163	C	0.399200	0.110400	0.251800	-0.149138573295
C164	C	0.378300	0.124300	0.276000	-0.149138573295
C165	C	0.397700	0.149900	0.294400	0.237115139370
C166	C	0.384600	0.170600	0.320200	-0.092584186721
C167	C	0.404900	0.193600	0.338100	0.237115139370
C168	C	0.390600	0.216200	0.363700	-0.149138573295
C169	C	0.413200	0.239100	0.376800	-0.149138573295
C170	C	0.444200	0.231000	0.358400	0.241778043191
C171	C	0.349400	0.165800	0.334300	0.011981978611
C172	C	0.344100	0.141500	0.360000	0.037027293440
C173	C	0.310700	0.131600	0.368600	-0.135853147703
C174	C	0.282800	0.146000	0.351500	0.006580021674
C175	C	0.288100	0.170300	0.325700	-0.135853147703
C176	C	0.321500	0.180200	0.317100	0.037027293440
C177	C	0.472800	0.251400	0.352300	-0.123376304720
C178	C	0.503700	0.239200	0.338200	0.241778043191
C179	C	0.538300	0.252000	0.344800	-0.149138573295
C180	C	0.561900	0.234900	0.325500	-0.149138573295
C181	C	0.540600	0.211000	0.305900	0.237115139370
C182	C	0.553900	0.189100	0.280100	-0.092584186721
C183	C	0.534000	0.168000	0.259500	0.237115139370
C184	C	0.546400	0.152000	0.228400	-0.149138573295
C185	C	0.518600	0.137500	0.213500	-0.149138573295
C186	C	0.489100	0.144000	0.235000	0.241778043191
C187	C	0.643300	0.207100	0.247000	-0.135853147703
C188	C	0.661900	0.181500	0.263600	0.006580021674
C189	C	0.645300	0.158500	0.285500	-0.135853147703
C190	C	0.610000	0.161200	0.290800	0.037027293440
C191	C	0.591300	0.186800	0.274100	0.011981978611
C192	C	0.607900	0.209800	0.252200	0.037027293440
C193	C	0.534800	0.961500	0.182900	0.726753407988
C194	C	0.640700	0.006300	0.124800	0.664479464142
C195	C	0.624800	0.991000	0.154900	-0.118822812848
C196	C	0.588400	0.981400	0.155900	0.010977484367
C197	C	0.573500	0.969600	0.183400	-0.146949362989
C198	C	0.592600	0.968200	0.213000	-0.072199249417
C199	C	0.626700	0.975100	0.215900	0.058685330685
C200	C	0.641600	0.988500	0.186800	-0.075145862072
C201	C	0.831300	0.957200	0.481800	0.726753407988
C202	C	0.898800	0.937500	0.374100	0.664479464142
C203	C	0.834000	0.942200	0.374900	-0.075145862072
C204	C	0.864900	0.941500	0.393000	-0.118822812848
C205	C	0.863600	0.947200	0.427800	0.010977484367
C206	C	0.832700	0.951800	0.444500	-0.146949362989
C207	C	0.802800	0.954600	0.425200	-0.072199249417
C208	C	0.802900	0.950100	0.391400	0.058685330685
C209	C	0.770200	0.955800	0.369200	-0.123376304720
C210	C	0.744600	0.931700	0.373000	0.241778043191
C211	C	0.748200	0.899200	0.389600	-0.149138573295
C212	C	0.724000	0.878300	0.375700	-0.149138573295
C213	C	0.705600	0.897700	0.350100	0.237115139370
C214	C	0.679800	0.884600	0.329400	-0.092584186721
C215	C	0.661900	0.904900	0.306400	0.237115139370
C216	C	0.636300	0.890600	0.283800	-0.149138573295
C217	C	0.623200	0.913200	0.260900	-0.149138573295
C218	C	0.641600	0.944200	0.269000	0.241778043191
C219	C	0.665700	0.849400	0.334200	0.011981978611
C220	C	0.640000	0.844100	0.358500	0.037027293440
C221	C	0.631400	0.810700	0.368400	-0.135853147703
C222	C	0.648500	0.782800	0.354000	0.006580021674
C223	C	0.674300	0.788100	0.329700	-0.135853147703
C224	C	0.682900	0.821500	0.319800	0.037027293440
C225	C	0.647700	0.972800	0.248600	-0.123376304720
C226	C	0.661800	0.003700	0.260800	0.241778043191
C227	C	0.655200	0.038300	0.248000	-0.149138573295
C228	C	0.674500	0.061900	0.265100	-0.149138573295
C229	C	0.694100	0.040600	0.289000	0.237115139370
C230	C	0.719900	0.053900	0.310900	-0.092584186721
C231	C	0.740500	0.034000	0.332000	0.237115139370
C232	C	0.771600	0.046400	0.348000	-0.149138573295
C233	C	0.786500	0.018600	0.362500	-0.149138573295
C234	C	0.765000	0.989100	0.356000	0.241778043191
C235	C	0.753000	0.143300	0.292900	-0.135853147703
C236	C	0.736400	0.161900	0.318500	0.006580021674
C237	C	0.714500	0.145300	0.341500	-0.135853147703
C238	C	0.709200	0.110000	0.338800	0.037027293440
C239	C	0.725900	0.091300	0.313200	0.011981978611
C240	C	0.747800	0.107900	0.290200	0.037027293440
C241	C	0.034800	0.538500	0.817100	0.726753407988
C242	C	0.140700	0.493700	0.875200	0.664479464142
C243	C	0.124800	0.509000	0.845100	-0.118822812848
C244	C	0.088400	0.518600	0.844100	0.010977484367
C245	C	0.073500	0.530400	0.816600	-0.146949362989
C246	C	0.092600	0.531800	0.787000	-0.072199249417
C247	C	0.126700	0.524900	0.784100	0.058685330685
C248	C	0.141600	0.511500	0.813200	-0.075145862072
C249	C	0.331300	0.542800	0.518200	0.726753407988
C250	C	0.398800	0.562500	0.625900	0.664479464142
C251	C	0.334000	0.557800	0.625100	-0.075145862072
C252	C	0.364900	0.558500	0.607000	-0.118822812848
C253	C	0.363600	0.552800	0.572200	0.010977484367
C254	C	0.332700	0.548200	0.555500	-0.146949362989
C255	C	0.302800	0.545400	0.574800	-0.072199249417
C256	C	0.302900	0.549900	0.608600	0.058685330685
C257	C	0.270200	0.544200	0.630800	-0.123376304720
C258	C	0.244600	0.568300	0.627000	0.241778043191
C259	C	0.248200	0.600800	0.610400	-0.149138573295
C260	C	0.224000	0.621700	0.624300	-0.149138573295
C261	C	0.205600	0.602300	0.649900	0.237115139370
C262	C	0.179800	0.615400	0.670600	-0.092584186721
C263	C	0.161900	0.595100	0.693600	0.237115139370
C264	C	0.136300	0.609400	0.716200	-0.149138573295
C265	C	0.123200	0.586800	0.739100	-0.149138573295
C266	C	0.141600	0.555800	0.731000	0.241778043191
C267	C	0.165700	0.650600	0.665800	0.011981978611
C268	C	0.140000	0.655900	0.641500	0.037027293440
C269	C	0.131400	0.689300	0.631600	-0.135853147703
C270	C	0.148500	0.717200	0.646000	0.006580021674
C271	C	0.174300	0.711900	0.670300	-0.135853147703
C272	C	0.182900	0.678500	0.680200	0.037027293440
C273	C	0.147700	0.527200	0.751400	-0.123376304720
C274	C	0.161800	0.496300	0.739200	0.241778043191
C275	C	0.155200	0.461700	0.752000	-0.149138573295
C276	C	0.174500	0.438100	0.734900	-0.149138573295
C277	C	0.194100	0.459400	0.711000	0.237115139370
C278	C	0.219900	0.446100	0.689100	-0.092584186721
C279	C	0.240500	0.466000	0.668000	0.237115139370
C280	C	0.271600	0.453600	0.652000	-0.149138573295
C281	C	0.286500	0.481400	0.637500	-0.149138573295
C282	C	0.265000	0.510900	0.644000	0.241778043191
C283	C	0.253000	0.356700	0.707100	-0.135853147703
C284	C	0.236400	0.338100	0.681500	0.006580021674
C285	C	0.214500	0.354700	0.658500	-0.135853147703
C286	C	0.209200	0.390000	0.661200	0.037027293440
C287	C	0.225900	0.408700	0.686800	0.011981978611
C288	C	0.247800	0.392100	0.709800	0.037027293440
C289	C	0.965200	0.038500	0.682900	0.726753407988
C290	C	0.859300	0.993700	0.624800	0.664479464142
C291	C	0.875200	0.009000	0.654900	-0.118822812848
C292	C	0.911600	0.018600	0.655900	0.010977484367
C293	C	0.926500	0.030400	0.683400	-0.146949362989
C294	C	0.907400	0.031800	0.713000	-0.072199249417
C295	C	0.873300	0.024900	0.715900	0.058685330685
C296	C	0.858400	0.011500	0.686800	-0.075145862072
C297	C	0.668700	0.042800	0.981800	0.726753407988
C298	C	0.601200	0.062500	0.874100	0.664479464142
C299	C	0.666000	0.057800	0.874900	-0.075145862072
C300	C	0.635100	0.058500	0.893000	-0.118822812848
C301	C	0.636400	0.052800	0.927800	0.010977484367
C302	C	0.667300	0.048200	0.944500	-0.146949362989
C303	C	0.697200	0.045400	0.925200	-0.072199249417
C304	C	0.697100	0.049900	0.891400	0.058685330685
C305	C	0.729800	0.044200	0.869200	-0.123376304720
C306	C	0.755400	0.068300	0.873000	0.241778043191
C307	C	0.751800	0.100800	0.889600	-0.149138573295
C308	C	0.776000	0.121700	0.875700	-0.149138573295
C309	C	0.794400	0.102300	0.850100	0.237115139370
C310	C	0.820200	0.115400	0.829400	-0.092584186721
C311	C	0.838100	0.095100	0.806400	0.237115139370
C312	C	0.863700	0.109400	0.783800	-0.149138573295
C313	C	0.876800	0.086800	0.760900	-0.149138573295
C314	C	0.858400	0.055800	0.769000	0.241778043191
C315	C	0.834300	0.150600	0.834200	0.011981978611
C316	C	0.860000	0.155900	0.858500	0.037027293440
C317	C	0.868600	0.189300	0.868400	-0.135853147703
C318	C	0.851500	0.217200	0.854000	0.006580021674
C319	C	0.825700	0.211900	0.829700	-0.135853147703
C320	C	0.817100	0.178500	0.819800	0.037027293440
C321	C	0.852300	0.027200	0.748600	-0.123376304720
C322	C	0.838200	0.996300	0.760800	0.241778043191
C323	C	0.844800	0.961700	0.748000	-0.149138573295
C324	C	0.825500	0.938100	0.765100	-0.149138573295
C325	C	0.805900	0.959400	0.789000	0.237115139370
C326	C	0.780100	0.946100	0.810900	-0.092584186721
C327	C	0.759500	0.966000	0.832000	0.237115139370
C328	C	0.728400	0.953600	0.848000	-0.149138573295
C329	C	0.713500	0.981400	0.862500	-0.149138573295
C330	C	0.735000	0.010900	0.856000	0.241778043191
C331	C	0.747000	0.856700	0.792900	-0.135853147703
C332	C	0.763600	0.838100	0.818500	0.006580021674
C333	C	0.785500	0.854700	0.841500	-0.135853147703
C334	C	0.790800	0.890000	0.838800	0.037027293440
C335	C	0.774100	0.908700	0.813200	0.011981978611
C336	C	0.752200	0.892100	0.790200	0.037027293440
C337	C	0.465200	0.461500	0.317100	0.726753407988
C338	C	0.359300	0.506300	0.375200	0.664479464142
C339	C	0.375200	0.491000	0.345100	-0.118822812848
C340	C	0.411600	0.481400	0.344100	0.010977484367
C341	C	0.426500	0.469600	0.316600	-0.146949362989
C342	C	0.407400	0.468200	0.287000	-0.072199249417
C343	C	0.373300	0.475100	0.284100	0.058685330685
C344	C	0.358400	0.488500	0.313200	-0.075145862072
C345	C	0.168700	0.457200	0.018200	0.726753407988
C346	C	0.101200	0.437500	0.125900	0.664479464142
C347	C	0.166000	0.442200	0.125100	-0.075145862072
C348	C	0.135100	0.441500	0.107000	-0.118822812848
C349	C	0.136400	0.447200	0.072200	0.010977484367
C350	C	0.167300	0.451800	0.055500	-0.146949362989
C351	C	0.197200	0.454600	0.074800	-0.072199249417
C352	C	0.197100	0.450100	0.108600	0.058685330685
C353	C	0.229800	0.455800	0.130800	-0.123376304720
C354	C	0.255400	0.431700	0.127000	0.241778043191
C355	C	0.251800	0.399200	0.110400	-0.149138573295
C356	C	0.276000	0.378300	0.124300	-0.149138573295
C357	C	0.294400	0.397700	0.149900	0.237115139370
C358	C	0.320200	0.384600	0.170600	-0.092584186721
C359	C	0.338100	0.404900	0.193600	0.237115139370
C360	C	0.363700	0.390600	0.216200	-0.149138573295
C361	C	0.376800	0.413200	0.239100	-0.149138573295
C362	C	0.358400	0.444200	0.231000	0.241778043191
C363	C	0.334300	0.349400	0.165800	0.011981978611
C364	C	0.360000	0.344100	0.141500	0.037027293440
C365	C	0.368600	0.310700	0.131600	-0.135853147703
C366	C	0.351500	0.282800	0.146000	0.006580021674
C367	C	0.325700	0.288100	0.170300	-0.135853147703
C368	C	0.317100	0.321500	0.180200	0.037027293440
C369	C	0.352300	0.472800	0.251400	-0.123376304720
C370	C	0.338200	0.503700	0.239200	0.241778043191
C371	C	0.344800	0.538300	0.252000	-0.149138573295
C372	C	0.325500	0.561900	0.234900	-0.149138573295
C373	C	0.305900	0.540600	0.211000	0.237115139370
C374	C	0.280100	0.553900	0.189100	-0.092584186721
C375	C	0.259500	0.534000	0.168000	0.237115139370
C376	C	0.228400	0.546400	0.152000	-0.149138573295
C377	C	0.213500	0.518600	0.137500	-0.149138573295
C378	C	0.235000	0.489100	0.144000	0.241778043191
C379	C	0.247000	0.643300	0.207100	-0.135853147703
C380	C	0.263600	0.661900	0.181500	0.006580021674
C381	C	0.285500	0.645300	0.158500	-0.135853147703
C382	C	0.290800	0.610000	0.161200	0.037027293440
C383	C	0.274100	0.591300	0.186800	0.011981978611
C384	C	0.252200	0.607900	0.209800	0.037027293440
C385	C	0.182900	0.534800	0.961500	0.726753407988
C386	C	0.124800	0.640700	0.006300	0.664479464142
C387	C	0.154900	0.624800	0.991000	-0.118822812848
C388	C	0.155900	0.588400	0.981400	0.010977484367
C389	C	0.183400	0.573500	0.969600	-0.146949362989
C390	C	0.213000	0.592600	0.968200	-0.072199249417
C391	C	0.215900	0.626700	0.975100	0.058685330685
C392	C	0.186800	0.641600	0.988500	-0.075145862072
C393	C	0.481800	0.831300	0.957200	0.726753407988
C394	C	0.374100	0.898800	0.937500	0.664479464142
C395	C	0.374900	0.834000	0.942200	-0.075145862072
C396	C	0.393000	0.864900	0.941500	-0.118822812848
C397	C	0.427800	0.863600	0.947200	0.010977484367
C398	C	0.444500	0.832700	0.951800	-0.146949362989
C399	C	0.425200	0.802800	0.954600	-0.072199249417
C400	C	0.391400	0.802900	0.950100	0.058685330685
C401	C	0.369200	0.770200	0.955800	-0.123376304720
C402	C	0.373000	0.744600	0.931700	0.241778043191
C403	C	0.389600	0.748200	0.899200	-0.149138573295
C404	C	0.375700	0.724000	0.878300	-0.149138573295
C405	C	0.350100	0.705600	0.897700	0.237115139370
C406	C	0.329400	0.679800	0.884600	-0.092584186721
C407	C	0.306400	0.661900	0.904900	0.237115139370
C408	C	0.283800	0.636300	0.890600	-0.149138573295
C409	C	0.260900	0.623200	0.913200	-0.149138573295
C410	C	0.269000	0.641600	0.944200	0.241778043191
C411	C	0.334200	0.665700	0.849400	0.011981978611
C412	C	0.358500	0.640000	0.844100	0.037027293440
C413	C	0.368400	0.631400	0.810700	-0.135853147703
C414	C	0.354000	0.648500	0.782800	0.006580021674
C415	C	0.329700	0.674300	0.788100	-0.135853147703
C416	C	0.319800	0.682900	0.821500	0.037027293440
C417	C	0.248600	0.647700	0.972800	-0.123376304720
C418	C	0.260800	0.661800	0.003700	0.241778043191
C419	C	0.248000	0.655200	0.038300	-0.149138573295
C420	C	0.265100	0.674500	0.061900	-0.149138573295
C421	C	0.289000	0.694100	0.040600	0.237115139370
C422	C	0.310900	0.719900	0.053900	-0.092584186721
C423	C	0.332000	0.740500	0.034000	0.237115139370
C424	C	0.348000	0.771600	0.046400	-0.149138573295
C425	C	0.362500	0.786500	0.018600	-0.149138573295
C426	C	0.356000	0.765000	0.989100	0.241778043191
C427	C	0.292900	0.753000	0.143300	-0.135853147703
C428	C	0.318500	0.736400	0.161900	0.006580021674
C429	C	0.341500	0.714500	0.145300	-0.135853147703
C430	C	0.338800	0.709200	0.110000	0.037027293440
C431	C	0.313200	0.725900	0.091300	0.011981978611
C432	C	0.290200	0.747800	0.107900	0.037027293440
C433	C	0.817100	0.034800	0.538500	0.726753407988
C434	C	0.875200	0.140700	0.493700	0.664479464142
C435	C	0.845100	0.124800	0.509000	-0.118822812848
C436	C	0.844100	0.088400	0.518600	0.010977484367
C437	C	0.816600	0.073500	0.530400	-0.146949362989
C438	C	0.787000	0.092600	0.531800	-0.072199249417
C439	C	0.784100	0.126700	0.524900	0.058685330685
C440	C	0.813200	0.141600	0.511500	-0.075145862072
C441	C	0.518200	0.331300	0.542800	0.726753407988
C442	C	0.625900	0.398800	0.562500	0.664479464142
C443	C	0.625100	0.334000	0.557800	-0.075145862072
C444	C	0.607000	0.364900	0.558500	-0.118822812848
C445	C	0.572200	0.363600	0.552800	0.010977484367
C446	C	0.555500	0.332700	0.548200	-0.146949362989
C447	C	0.574800	0.302800	0.545400	-0.072199249417
C448	C	0.608600	0.302900	0.549900	0.058685330685
C449	C	0.630800	0.270200	0.544200	-0.123376304720
C450	C	0.627000	0.244600	0.568300	0.241778043191
C451	C	0.610400	0.248200	0.600800	-0.149138573295
C452	C	0.624300	0.224000	0.621700	-0.149138573295
C453	C	0.649900	0.205600	0.602300	0.237115139370
C454	C	0.670600	0.179800	0.615400	-0.092584186721
C455	C	0.693600	0.161900	0.595100	0.237115139370
C456	C	0.716200	0.136300	0.609400	-0.149138573295
C457	C	0.739100	0.123200	0.586800	-0.149138573295
C458	C	0.731000	0.141600	0.555800	0.241778043191
C459	C	0.665800	0.165700	0.650600	0.011981978611
C460	C	0.641500	0.140000	0.655900	0.037027293440
C461	C	0.631600	0.131400	0.689300	-0.135853147703
C462	C	0.646000	0.148500	0.717200	0.006580021674
C463	C	0.670300	0.174300	0.711900	-0.135853147703
C464	C	0.680200	0.182900	0.678500	0.037027293440
C465	C	0.751400	0.147700	0.527200	-0.123376304720
C466	C	0.739200	0.161800	0.496300	0.241778043191
C467	C	0.752000	0.155200	0.461700	-0.149138573295
C468	C	0.734900	0.174500	0.438100	-0.149138573295
C469	C	0.711000	0.194100	0.459400	0.237115139370
C470	C	0.689100	0.219900	0.446100	-0.092584186721
C471	C	0.668000	0.240500	0.466000	0.237115139370
C472	C	0.652000	0.271600	0.453600	-0.149138573295
C473	C	0.637500	0.286500	0.481400	-0.149138573295
C474	C	0.644000	0.265000	0.510900	0.241778043191
C475	C	0.707100	0.253000	0.356700	-0.135853147703
C476	C	0.681500	0.236400	0.338100	0.006580021674
C477	C	0.658500	0.214500	0.354700	-0.135853147703
C478	C	0.661200	0.209200	0.390000	0.037027293440
C479	C	0.686800	0.225900	0.408700	0.011981978611
C480	C	0.709800	0.247800	0.392100	0.037027293440
C481	C	0.682900	0.965200	0.038500	0.726753407988
C482	C	0.624800	0.859300	0.993700	0.664479464142
C483	C	0.654900	0.875200	0.009000	-0.118822812848
C484	C	0.655900	0.911600	0.018600	0.010977484367
C485	C	0.683400	0.926500	0.030400	-0.146949362989
C486	C	0.713000	0.907400	0.031800	-0.072199249417
C487	C	0.715900	0.873300	0.024900	0.058685330685
C488	C	0.686800	0.858400	0.011500	-0.075145862072
C489	C	0.981800	0.668700	0.042800	0.726753407988
C490	C	0.874100	0.601200	0.062500	0.664479464142
C491	C	0.874900	0.666000	0.057800	-0.075145862072
C492	C	0.893000	0.635100	0.058500	-0.118822812848
C493	C	0.927800	0.636400	0.052800	0.010977484367
C494	C	0.944500	0.667300	0.048200	-0.146949362989
C495	C	0.925200	0.697200	0.045400	-0.072199249417
C496	C	0.891400	0.697100	0.049900	0.058685330685
C497	C	0.869200	0.729800	0.044200	-0.123376304720
C498	C	0.873000	0.755400	0.068300	0.241778043191
C499	C	0.889600	0.751800	0.100800	-0.149138573295
C500	C	0.875700	0.776000	0.121700	-0.149138573295
C501	C	0.850100	0.794400	0.102300	0.237115139370
C502	C	0.829400	0.820200	0.115400	-0.092584186721
C503	C	0.806400	0.838100	0.095100	0.237115139370
C504	C	0.783800	0.863700	0.109400	-0.149138573295
C505	C	0.760900	0.876800	0.086800	-0.149138573295
C506	C	0.769000	0.858400	0.055800	0.241778043191
C507	C	0.834200	0.834300	0.150600	0.011981978611
C508	C	0.858500	0.860000	0.155900	0.037027293440
C509	C	0.868400	0.868600	0.189300	-0.135853147703
C510	C	0.854000	0.851500	0.217200	0.006580021674
C511	C	0.829700	0.825700	0.211900	-0.135853147703
C512	C	0.819800	0.817100	0.178500	0.037027293440
C513	C	0.748600	0.852300	0.027200	-0.123376304720
C514	C	0.760800	0.838200	0.996300	0.241778043191
C515	C	0.748000	0.844800	0.961700	-0.149138573295
C516	C	0.765100	0.825500	0.938100	-0.149138573295
C517	C	0.789000	0.805900	0.959400	0.237115139370
C518	C	0.810900	0.780100	0.946100	-0.092584186721
C519	C	0.832000	0.759500	0.966000	0.237115139370
C520	C	0.848000	0.728400	0.953600	-0.149138573295
C521	C	0.862500	0.713500	0.981400	-0.149138573295
C522	C	0.856000	0.735000	0.010900	0.241778043191
C523	C	0.792900	0.747000	0.856700	-0.135853147703
C524	C	0.818500	0.763600	0.838100	0.006580021674
C525	C	0.841500	0.785500	0.854700	-0.135853147703
C526	C	0.838800	0.790800	0.890000	0.037027293440
C527	C	0.813200	0.774100	0.908700	0.011981978611
C528	C	0.790200	0.752200	0.892100	0.037027293440
C529	C	0.317100	0.465200	0.461500	0.726753407988
C530	C	0.375200	0.359300	0.506300	0.664479464142
C531	C	0.345100	0.375200	0.491000	-0.118822812848
C532	C	0.344100	0.411600	0.481400	0.010977484367
C533	C	0.316600	0.426500	0.469600	-0.146949362989
C534	C	0.287000	0.407400	0.468200	-0.072199249417
C535	C	0.284100	0.373300	0.475100	0.058685330685
C536	C	0.313200	0.358400	0.488500	-0.075145862072
C537	C	0.018200	0.168700	0.457200	0.726753407988
C538	C	0.125900	0.101200	0.437500	0.664479464142
C539	C	0.125100	0.166000	0.442200	-0.075145862072
C540	C	0.107000	0.135100	0.441500	-0.118822812848
C541	C	0.072200	0.136400	0.447200	0.010977484367
C542	C	0.055500	0.167300	0.451800	-0.146949362989
C543	C	0.074800	0.197200	0.454600	-0.072199249417
C544	C	0.108600	0.197100	0.450100	0.058685330685
C545	C	0.130800	0.229800	0.455800	-0.123376304720
C546	C	0.127000	0.255400	0.431700	0.241778043191
C547	C	0.110400	0.251800	0.399200	-0.149138573295
C548	C	0.124300	0.276000	0.378300	-0.149138573295
C549	C	0.149900	0.294400	0.397700	0.237115139370
C550	C	0.170600	0.320200	0.384600	-0.092584186721
C551	C	0.193600	0.338100	0.404900	0.237115139370
C552	C	0.216200	0.363700	0.390600	-0.149138573295
C553	C	0.239100	0.376800	0.413200	-0.149138573295
C554	C	0.231000	0.358400	0.444200	0.241778043191
C555	C	0.165800	0.334300	0.349400	0.011981978611
C556	C	0.141500	0.360000	0.344100	0.037027293440
C557	C	0.131600	0.368600	0.310700	-0.135853147703
C558	C	0.146000	0.351500	0.282800	0.006580021674
C559	C	0.170300	0.325700	0.288100	-0.135853147703
C560	C	0.180200	0.317100	0.321500	0.037027293440
C561	C	0.251400	0.352300	0.472800	-0.123376304720
C562	C	0.239200	0.338200	0.503700	0.241778043191
C563	C	0.252000	0.344800	0.538300	-0.149138573295
C564	C	0.234900	0.325500	0.561900	-0.149138573295
C565	C	0.211000	0.305900	0.540600	0.237115139370
C566	C	0.189100	0.280100	0.553900	-0.092584186721
C567	C	0.168000	0.259500	0.534000	0.237115139370
C568	C	0.152000	0.228400	0.546400	-0.149138573295
C569	C	0.137500	0.213500	0.518600	-0.149138573295
C570	C	0.144000	0.235000	0.489100	0.241778043191
C571	C	0.207100	0.247000	0.643300	-0.135853147703
C572	C	0.181500	0.263600	0.661900	0.006580021674
C573	C	0.158500	0.285500	0.645300	-0.135853147703
C574	C	0.161200	0.290800	0.610000	0.037027293440
C575	C	0.186800	0.274100	0.591300	0.011981978611
C576	C	0.209800	0.252200	0.607900	0.037027293440
C577	C	0.038500	0.817100	0.465200	0.726753407988
C578	C	0.993700	0.875200	0.359300	0.664479464142
C579	C	0.009000	0.845100	0.375200	-0.118822812848
C580	C	0.018600	0.844100	0.411600	0.010977484367
C581	C	0.030400	0.816600	0.426500	-0.146949362989
C582	C	0.031800	0.787000	0.407400	-0.072199249417
C583	C	0.024900	0.784100	0.373300	0.058685330685
C584	C	0.011500	0.813200	0.358400	-0.075145862072
C585	C	0.042800	0.518200	0.168700	0.726753407988
C586	C	0.062500	0.625900	0.101200	0.664479464142
C587	C	0.057800	0.625100	0.166000	-0.075145862072
C588	C	0.058500	0.607000	0.135100	-0.118822812848
C589	C	0.052800	0.572200	0.136400	0.010977484367
C590	C	0.048200	0.555500	0.167300	-0.146949362989
C591	C	0.045400	0.574800	0.197200	-0.072199249417
C592	C	0.049900	0.608600	0.197100	0.058685330685
C593	C	0.044200	0.630800	0.229800	-0.123376304720
C594	C	0.068300	0.627000	0.255400	0.241778043191
C595	C	0.100800	0.610400	0.251800	-0.149138573295
C596	C	0.121700	0.624300	0.276000	-0.149138573295
C597	C	0.102300	0.649900	0.294400	0.237115139370
C598	C	0.115400	0.670600	0.320200	-0.092584186721
C599	C	0.095100	0.693600	0.338100	0.237115139370
C600	C	0.109400	0.716200	0.363700	-0.149138573295
C601	C	0.086800	0.739100	0.376800	-0.149138573295
C602	C	0.055800	0.731000	0.358400	0.241778043191
C603	C	0.150600	0.665800	0.334300	0.011981978611
C604	C	0.155900	0.641500	0.360000	0.037027293440
C605	C	0.189300	0.631600	0.368600	-0.135853147703
C606	C	0.217200	0.646000	0.351500	0.006580021674
C607	C	0.211900	0.670300	0.325700	-0.135853147703
C608	C	0.178500	0.680200	0.317100	0.037027293440
C609	C	0.027200	0.751400	0.352300	-0.123376304720
C610	C	0.996300	0.739200	0.338200	0.241778043191
C611	C	0.961700	0.752000	0.344800	-0.149138573295
C612	C	0.938100	0.734900	0.325500	-0.149138573295
C613	C	0.959400	0.711000	0.305900	0.237115139370
C614	C	0.946100	0.689100	0.280100	-0.092584186721
C615	C	0.966000	0.668000	0.259500	0.237115139370
C616	C	0.953600	0.652000	0.228400	-0.149138573295
C617	C	0.981400	0.637500	0.213500	-0.149138573295
C618	C	0.010900	0.644000	0.235000	0.241778043191
C619	C	0.856700	0.707100	0.247000	-0.135853147703
C620	C	0.838100	0.681500	0.263600	0.006580021674
C621	C	0.854700	0.658500	0.285500	-0.135853147703
C622	C	0.890000	0.661200	0.290800	0.037027293440
C623	C	0.908700	0.686800	0.274100	0.011981978611
C624	C	0.892100	0.709800	0.252200	0.037027293440
C625	C	0.461500	0.182900	0.965200	0.726753407988
C626	C	0.506300	0.124800	0.859300	0.664479464142
C627	C	0.491000	0.154900	0.875200	-0.118822812848
C628	C	0.481400	0.155900	0.911600	0.010977484367
C629	C	0.469600	0.183400	0.926500	-0.146949362989
C630	C	0.468200	0.213000	0.907400	-0.072199249417
C631	C	0.475100	0.215900	0.873300	0.058685330685
C632	C	0.488500	0.186800	0.858400	-0.075145862072
C633	C	0.457200	0.481800	0.668700	0.726753407988
C634	C	0.437500	0.374100	0.601200	0.664479464142
C635	C	0.442200	0.374900	0.666000	-0.075145862072
C636	C	0.441500	0.393000	0.635100	-0.118822812848
C637	C	0.447200	0.427800	0.636400	0.010977484367
C638	C	0.451800	0.444500	0.667300	-0.146949362989
C639	C	0.454600	0.425200	0.697200	-0.072199249417
C640	C	0.450100	0.391400	0.697100	0.058685330685
C641	C	0.455800	0.369200	0.729800	-0.123376304720
C642	C	0.431700	0.373000	0.755400	0.241778043191
C643	C	0.399200	0.389600	0.751800	-0.149138573295
C644	C	0.378300	0.375700	0.776000	-0.149138573295
C645	C	0.397700	0.350100	0.794400	0.237115139370
C646	C	0.384600	0.329400	0.820200	-0.092584186721
C647	C	0.404900	0.306400	0.838100	0.237115139370
C648	C	0.390600	0.283800	0.863700	-0.149138573295
C649	C	0.413200	0.260900	0.876800	-0.149138573295
C650	C	0.444200	0.269000	0.858400	0.241778043191
C651	C	0.349400	0.334200	0.834300	0.011981978611
C652	C	0.344100	0.358500	0.860000	0.037027293440
C653	C	0.310700	0.368400	0.868600	-0.135853147703
C654	C	0.282800	0.354000	0.851500	0.006580021674
C655	C	0.288100	0.329700	0.825700	-0.135853147703
C656	C	0.321500	0.319800	0.817100	0.037027293440
C657	C	0.472800	0.248600	0.852300	-0.123376304720
C658	C	0.503700	0.260800	0.838200	0.241778043191
C659	C	0.538300	0.248000	0.844800	-0.149138573295
C660	C	0.561900	0.265100	0.825500	-0.149138573295
C661	C	0.540600	0.289000	0.805900	0.237115139370
C662	C	0.553900	0.310900	0.780100	-0.092584186721
C663	C	0.534000	0.332000	0.759500	0.237115139370
C664	C	0.546400	0.348000	0.728400	-0.149138573295
C665	C	0.518600	0.362500	0.713500	-0.149138573295
C666	C	0.489100	0.356000	0.735000	0.241778043191
C667	C	0.643300	0.292900	0.747000	-0.135853147703
C668	C	0.661900	0.318500	0.763600	0.006580021674
C669	C	0.645300	0.341500	0.785500	-0.135853147703
C670	C	0.610000	0.338800	0.790800	0.037027293440
C671	C	0.591300	0.313200	0.774100	0.011981978611
C672	C	0.607900	0.290200	0.752200	0.037027293440
C673	C	0.961500	0.317100	0.034800	0.726753407988
C674	C	0.006300	0.375200	0.140700	0.664479464142
C675	C	0.991000	0.345100	0.124800	-0.118822812848
C676	C	0.981400	0.344100	0.088400	0.010977484367
C677	C	0.969600	0.316600	0.073500	-0.146949362989
C678	C	0.968200	0.287000	0.092600	-0.072199249417
C679	C	0.975100	0.284100	0.126700	0.058685330685
C680	C	0.988500	0.313200	0.141600	-0.075145862072
C681	C	0.957200	0.018200	0.331300	0.726753407988
C682	C	0.937500	0.125900	0.398800	0.664479464142
C683	C	0.942200	0.125100	0.334000	-0.075145862072
C684	C	0.941500	0.107000	0.364900	-0.118822812848
C685	C	0.947200	0.072200	0.363600	0.010977484367
C686	C	0.951800	0.055500	0.332700	-0.146949362989
C687	C	0.954600	0.074800	0.302800	-0.072199249417
C688	C	0.950100	0.108600	0.302900	0.058685330685
C689	C	0.955800	0.130800	0.270200	-0.123376304720
C690	C	0.931700	0.127000	0.244600	0.241778043191
C691	C	0.899200	0.110400	0.248200	-0.149138573295
C692	C	0.878300	0.124300	0.224000	-0.149138573295
C693	C	0.897700	0.149900	0.205600	0.237115139370
C694	C	0.884600	0.170600	0.179800	-0.092584186721
C695	C	0.904900	0.193600	0.161900	0.237115139370
C696	C	0.890600	0.216200	0.136300	-0.149138573295
C697	C	0.913200	0.239100	0.123200	-0.149138573295
C698	C	0.944200	0.231000	0.141600	0.241778043191
C699	C	0.849400	0.165800	0.165700	0.011981978611
C700	C	0.844100	0.141500	0.140000	0.037027293440
C701	C	0.810700	0.131600	0.131400	-0.135853147703
C702	C	0.782800	0.146000	0.148500	0.006580021674
C703	C	0.788100	0.170300	0.174300	-0.135853147703
C704	C	0.821500	0.180200	0.182900	0.037027293440
C705	C	0.972800	0.251400	0.147700	-0.123376304720
C706	C	0.003700	0.239200	0.161800	0.241778043191
C707	C	0.038300	0.252000	0.155200	-0.149138573295
C708	C	0.061900	0.234900	0.174500	-0.149138573295
C709	C	0.040600	0.211000	0.194100	0.237115139370
C710	C	0.053900	0.189100	0.219900	-0.092584186721
C711	C	0.034000	0.168000	0.240500	0.237115139370
C712	C	0.046400	0.152000	0.271600	-0.149138573295
C713	C	0.018600	0.137500	0.286500	-0.149138573295
C714	C	0.989100	0.144000	0.265000	0.241778043191
C715	C	0.143300	0.207100	0.253000	-0.135853147703
C716	C	0.161900	0.181500	0.236400	0.006580021674
C717	C	0.145300	0.158500	0.214500	-0.135853147703
C718	C	0.110000	0.161200	0.209200	0.037027293440
C719	C	0.091300	0.186800	0.225900	0.011981978611
C720	C	0.107900	0.209800	0.247800	0.037027293440
C721	C	0.538500	0.682900	0.534800	0.726753407988
C722	C	0.493700	0.624800	0.640700	0.664479464142
C723	C	0.509000	0.654900	0.624800	-0.118822812848
C724	C	0.518600	0.655900	0.588400	0.010977484367
C725	C	0.530400	0.683400	0.573500	-0.146949362989
C726	C	0.531800	0.713000	0.592600	-0.072199249417
C727	C	0.524900	0.715900	0.626700	0.058685330685
C728	C	0.511500	0.686800	0.641600	-0.075145862072
C729	C	0.542800	0.981800	0.831300	0.726753407988
C730	C	0.562500	0.874100	0.898800	0.664479464142
C731	C	0.557800	0.874900	0.834000	-0.075145862072
C732	C	0.558500	0.893000	0.864900	-0.118822812848
C733	C	0.552800	0.927800	0.863600	0.010977484367
C734	C	0.548200	0.944500	0.832700	-0.146949362989
C735	C	0.545400	0.925200	0.802800	-0.072199249417
C736	C	0.549900	0.891400	0.802900	0.058685330685
C737	C	0.544200	0.869200	0.770200	-0.123376304720
C738	C	0.568300	0.873000	0.744600	0.241778043191
C739	C	0.600800	0.889600	0.748200	-0.149138573295
C740	C	0.621700	0.875700	0.724000	-0.149138573295
C741	C	0.602300	0.850100	0.705600	0.237115139370
C742	C	0.615400	0.829400	0.679800	-0.092584186721
C743	C	0.595100	0.806400	0.661900	0.237115139370
C744	C	0.609400	0.783800	0.636300	-0.149138573295
C745	C	0.586800	0.760900	0.623200	-0.149138573295
C746	C	0.555800	0.769000	0.641600	0.241778043191
C747	C	0.650600	0.834200	0.665700	0.011981978611
C748	C	0.655900	0.858500	0.640000	0.037027293440
C749	C	0.689300	0.868400	0.631400	-0.135853147703
C750	C	0.717200	0.854000	0.648500	0.006580021674
C751	C	0.711900	0.829700	0.674300	-0.135853147703
C752	C	0.678500	0.819800	0.682900	0.037027293440
C753	C	0.527200	0.748600	0.647700	-0.123376304720
C754	C	0.496300	0.760800	0.661800	0.241778043191
C755	C	0.461700	0.748000	0.655200	-0.149138573295
C756	C	0.438100	0.765100	0.674500	-0.149138573295
C757	C	0.459400	0.789000	0.694100	0.237115139370
C758	C	0.446100	0.810900	0.719900	-0.092584186721
C759	C	0.466000	0.832000	0.740500	0.237115139370
C760	C	0.453600	0.848000	0.771600	-0.149138573295
C761	C	0.481400	0.862500	0.786500	-0.149138573295
C762	C	0.510900	0.856000	0.765000	0.241778043191
C763	C	0.356700	0.792900	0.753000	-0.135853147703
C764	C	0.338100	0.818500	0.736400	0.006580021674
C765	C	0.354700	0.841500	0.714500	-0.135853147703
C766	C	0.390000	0.838800	0.709200	0.037027293440
C767	C	0.408700	0.813200	0.725900	0.011981978611
C768	C	0.392100	0.790200	0.747800	0.037027293440
C769	C	0.465200	0.038500	0.817100	0.726753407988
C770	C	0.359300	0.993700	0.875200	0.664479464142
C771	C	0.375200	0.009000	0.845100	-0.118822812848
C772	C	0.411600	0.018600	0.844100	0.010977484367
C773	C	0.426500	0.030400	0.816600	-0.146949362989
C774	C	0.407400	0.031800	0.787000	-0.072199249417
C775	C	0.373300	0.024900	0.784100	0.058685330685
C776	C	0.358400	0.011500	0.813200	-0.075145862072
C777	C	0.168700	0.042800	0.518200	0.726753407988
C778	C	0.101200	0.062500	0.625900	0.664479464142
C779	C	0.166000	0.057800	0.625100	-0.075145862072
C780	C	0.135100	0.058500	0.607000	-0.118822812848
C781	C	0.136400	0.052800	0.572200	0.010977484367
C782	C	0.167300	0.048200	0.555500	-0.146949362989
C783	C	0.197200	0.045400	0.574800	-0.072199249417
C784	C	0.197100	0.049900	0.608600	0.058685330685
C785	C	0.229800	0.044200	0.630800	-0.123376304720
C786	C	0.255400	0.068300	0.627000	0.241778043191
C787	C	0.251800	0.100800	0.610400	-0.149138573295
C788	C	0.276000	0.121700	0.624300	-0.149138573295
C789	C	0.294400	0.102300	0.649900	0.237115139370
C790	C	0.320200	0.115400	0.670600	-0.092584186721
C791	C	0.338100	0.095100	0.693600	0.237115139370
C792	C	0.363700	0.109400	0.716200	-0.149138573295
C793	C	0.376800	0.086800	0.739100	-0.149138573295
C794	C	0.358400	0.055800	0.731000	0.241778043191
C795	C	0.334300	0.150600	0.665800	0.011981978611
C796	C	0.360000	0.155900	0.641500	0.037027293440
C797	C	0.368600	0.189300	0.631600	-0.135853147703
C798	C	0.351500	0.217200	0.646000	0.006580021674
C799	C	0.325700	0.211900	0.670300	-0.135853147703
C800	C	0.317100	0.178500	0.680200	0.037027293440
C801	C	0.352300	0.027200	0.751400	-0.123376304720
C802	C	0.338200	0.996300	0.739200	0.241778043191
C803	C	0.344800	0.961700	0.752000	-0.149138573295
C804	C	0.325500	0.938100	0.734900	-0.149138573295
C805	C	0.305900	0.959400	0.711000	0.237115139370
C806	C	0.280100	0.946100	0.689100	-0.092584186721
C807	C	0.259500	0.966000	0.668000	0.237115139370
C808	C	0.228400	0.953600	0.652000	-0.149138573295
C809	C	0.213500	0.981400	0.637500	-0.149138573295
C810	C	0.235000	0.010900	0.644000	0.241778043191
C811	C	0.247000	0.856700	0.707100	-0.135853147703
C812	C	0.263600	0.838100	0.681500	0.006580021674
C813	C	0.285500	0.854700	0.658500	-0.135853147703
C814	C	0.290800	0.890000	0.661200	0.037027293440
C815	C	0.274100	0.908700	0.686800	0.011981978611
C816	C	0.252200	0.892100	0.709800	0.037027293440
C817	C	0.965200	0.461500	0.182900	0.726753407988
C818	C	0.859300	0.506300	0.124800	0.664479464142
C819	C	0.875200	0.491000	0.154900	-0.118822812848
C820	C	0.911600	0.481400	0.155900	0.010977484367
C821	C	0.926500	0.469600	0.183400	-0.146949362989
C822	C	0.907400	0.468200	0.213000	-0.072199249417
C823	C	0.873300	0.475100	0.215900	0.058685330685
C824	C	0.858400	0.488500	0.186800	-0.075145862072
C825	C	0.668700	0.457200	0.481800	0.726753407988
C826	C	0.601200	0.437500	0.374100	0.664479464142
C827	C	0.666000	0.442200	0.374900	-0.075145862072
C828	C	0.635100	0.441500	0.393000	-0.118822812848
C829	C	0.636400	0.447200	0.427800	0.010977484367
C830	C	0.667300	0.451800	0.444500	-0.146949362989
C831	C	0.697200	0.454600	0.425200	-0.072199249417
C832	C	0.697100	0.450100	0.391400	0.058685330685
C833	C	0.729800	0.455800	0.369200	-0.123376304720
C834	C	0.755400	0.431700	0.373000	0.241778043191
C835	C	0.751800	0.399200	0.389600	-0.149138573295
C836	C	0.776000	0.378300	0.375700	-0.149138573295
C837	C	0.794400	0.397700	0.350100	0.237115139370
C838	C	0.820200	0.384600	0.329400	-0.092584186721
C839	C	0.838100	0.404900	0.306400	0.237115139370
C840	C	0.863700	0.390600	0.283800	-0.149138573295
C841	C	0.876800	0.413200	0.260900	-0.149138573295
C842	C	0.858400	0.444200	0.269000	0.241778043191
C843	C	0.834300	0.349400	0.334200	0.011981978611
C844	C	0.860000	0.344100	0.358500	0.037027293440
C845	C	0.868600	0.310700	0.368400	-0.135853147703
C846	C	0.851500	0.282800	0.354000	0.006580021674
C847	C	0.825700	0.288100	0.329700	-0.135853147703
C848	C	0.817100	0.321500	0.319800	0.037027293440
C849	C	0.852300	0.472800	0.248600	-0.123376304720
C850	C	0.838200	0.503700	0.260800	0.241778043191
C851	C	0.844800	0.538300	0.248000	-0.149138573295
C852	C	0.825500	0.561900	0.265100	-0.149138573295
C853	C	0.805900	0.540600	0.289000	0.237115139370
C854	C	0.780100	0.553900	0.310900	-0.092584186721
C855	C	0.759500	0.534000	0.332000	0.237115139370
C856	C	0.728400	0.546400	0.348000	-0.149138573295
C857	C	0.713500	0.518600	0.362500	-0.149138573295
C858	C	0.735000	0.489100	0.356000	0.241778043191
C859	C	0.747000	0.643300	0.292900	-0.135853147703
C860	C	0.763600	0.661900	0.318500	0.006580021674
C861	C	0.785500	0.645300	0.341500	-0.135853147703
C862	C	0.790800	0.610000	0.338800	0.037027293440
C863	C	0.774100	0.591300	0.313200	0.011981978611
C864	C	0.752200	0.607900	0.290200	0.037027293440
C865	C	0.034800	0.961500	0.317100	0.726753407988
C866	C	0.140700	0.006300	0.375200	0.664479464142
C867	C	0.124800	0.991000	0.345100	-0.118822812848
C868	C	0.088400	0.981400	0.344100	0.010977484367
C869	C	0.073500	0.969600	0.316600	-0.146949362989
C870	C	0.092600	0.968200	0.287000	-0.072199249417
C871	C	0.126700	0.975100	0.284100	0.058685330685
C872	C	0.141600	0.988500	0.313200	-0.075145862072
C873	C	0.331300	0.957200	0.018200	0.726753407988
C874	C	0.398800	0.937500	0.125900	0.664479464142
C875	C	0.334000	0.942200	0.125100	-0.075145862072
C876	C	0.364900	0.941500	0.107000	-0.118822812848
C877	C	0.363600	0.947200	0.072200	0.010977484367
C878	C	0.332700	0.951800	0.055500	-0.146949362989
C879	C	0.302800	0.954600	0.074800	-0.072199249417
C880	C	0.302900	0.950100	0.108600	0.058685330685
C881	C	0.270200	0.955800	0.130800	-0.123376304720
C882	C	0.244600	0.931700	0.127000	0.241778043191
C883	C	0.248200	0.899200	0.110400	-0.149138573295
C884	C	0.224000	0.878300	0.124300	-0.149138573295
C885	C	0.205600	0.897700	0.149900	0.237115139370
C886	C	0.179800	0.884600	0.170600	-0.092584186721
C887	C	0.161900	0.904900	0.193600	0.237115139370
C888	C	0.136300	0.890600	0.216200	-0.149138573295
C889	C	0.123200	0.913200	0.239100	-0.149138573295
C890	C	0.141600	0.944200	0.231000	0.241778043191
C891	C	0.165700	0.849400	0.165800	0.011981978611
C892	C	0.140000	0.844100	0.141500	0.037027293440
C893	C	0.131400	0.810700	0.131600	-0.135853147703
C894	C	0.148500	0.782800	0.146000	0.006580021674
C895	C	0.174300	0.788100	0.170300	-0.135853147703
C896	C	0.182900	0.821500	0.180200	0.037027293440
C897	C	0.147700	0.972800	0.251400	-0.123376304720
C898	C	0.161800	0.003700	0.239200	0.241778043191
C899	C	0.155200	0.038300	0.252000	-0.149138573295
C900	C	0.174500	0.061900	0.234900	-0.149138573295
C901	C	0.194100	0.040600	0.211000	0.237115139370
C902	C	0.219900	0.053900	0.189100	-0.092584186721
C903	C	0.240500	0.034000	0.168000	0.237115139370
C904	C	0.271600	0.046400	0.152000	-0.149138573295
C905	C	0.286500	0.018600	0.137500	-0.149138573295
C906	C	0.265000	0.989100	0.144000	0.241778043191
C907	C	0.253000	0.143300	0.207100	-0.135853147703
C908	C	0.236400	0.161900	0.181500	0.006580021674
C909	C	0.214500	0.145300	0.158500	-0.135853147703
C910	C	0.209200	0.110000	0.161200	0.037027293440
C911	C	0.225900	0.091300	0.186800	0.011981978611
C912	C	0.247800	0.107900	0.209800	0.037027293440
C913	C	0.534800	0.538500	0.682900	0.726753407988
C914	C	0.640700	0.493700	0.624800	0.664479464142
C915	C	0.624800	0.509000	0.654900	-0.118822812848
C916	C	0.588400	0.518600	0.655900	0.010977484367
C917	C	0.573500	0.530400	0.683400	-0.146949362989
C918	C	0.592600	0.531800	0.713000	-0.072199249417
C919	C	0.626700	0.524900	0.715900	0.058685330685
C920	C	0.641600	0.511500	0.686800	-0.075145862072
C921	C	0.831300	0.542800	0.981800	0.726753407988
C922	C	0.898800	0.562500	0.874100	0.664479464142
C923	C	0.834000	0.557800	0.874900	-0.075145862072
C924	C	0.864900	0.558500	0.893000	-0.118822812848
C925	C	0.863600	0.552800	0.927800	0.010977484367
C926	C	0.832700	0.548200	0.944500	-0.146949362989
C927	C	0.802800	0.545400	0.925200	-0.072199249417
C928	C	0.802900	0.549900	0.891400	0.058685330685
C929	C	0.770200	0.544200	0.869200	-0.123376304720
C930	C	0.744600	0.568300	0.873000	0.241778043191
C931	C	0.748200	0.600800	0.889600	-0.149138573295
C932	C	0.724000	0.621700	0.875700	-0.149138573295
C933	C	0.705600	0.602300	0.850100	0.237115139370
C934	C	0.679800	0.615400	0.829400	-0.092584186721
C935	C	0.661900	0.595100	0.806400	0.237115139370
C936	C	0.636300	0.609400	0.783800	-0.149138573295
C937	C	0.623200	0.586800	0.760900	-0.149138573295
C938	C	0.641600	0.555800	0.769000	0.241778043191
C939	C	0.665700	0.650600	0.834200	0.011981978611
C940	C	0.640000	0.655900	0.858500	0.037027293440
C941	C	0.631400	0.689300	0.868400	-0.135853147703
C942	C	0.648500	0.717200	0.854000	0.006580021674
C943	C	0.674300	0.711900	0.829700	-0.135853147703
C944	C	0.682900	0.678500	0.819800	0.037027293440
C945	C	0.647700	0.527200	0.748600	-0.123376304720
C946	C	0.661800	0.496300	0.760800	0.241778043191
C947	C	0.655200	0.461700	0.748000	-0.149138573295
C948	C	0.674500	0.438100	0.765100	-0.149138573295
C949	C	0.694100	0.459400	0.789000	0.237115139370
C950	C	0.719900	0.446100	0.810900	-0.092584186721
C951	C	0.740500	0.466000	0.832000	0.237115139370
C952	C	0.771600	0.453600	0.848000	-0.149138573295
C953	C	0.786500	0.481400	0.862500	-0.149138573295
C954	C	0.765000	0.510900	0.856000	0.241778043191
C955	C	0.753000	0.356700	0.792900	-0.135853147703
C956	C	0.736400	0.338100	0.818500	0.006580021674
C957	C	0.714500	0.354700	0.841500	-0.135853147703
C958	C	0.709200	0.390000	0.838800	0.037027293440
C959	C	0.725900	0.408700	0.813200	0.011981978611
C960	C	0.747800	0.392100	0.790200	0.037027293440
C961	C	0.817100	0.465200	0.038500	0.726753407988
C962	C	0.875200	0.359300	0.993700	0.664479464142
C963	C	0.845100	0.375200	0.009000	-0.118822812848
C964	C	0.844100	0.411600	0.018600	0.010977484367
C965	C	0.816600	0.426500	0.030400	-0.146949362989
C966	C	0.787000	0.407400	0.031800	-0.072199249417
C967	C	0.784100	0.373300	0.024900	0.058685330685
C968	C	0.813200	0.358400	0.011500	-0.075145862072
C969	C	0.518200	0.168700	0.042800	0.726753407988
C970	C	0.625900	0.101200	0.062500	0.664479464142
C971	C	0.625100	0.166000	0.057800	-0.075145862072
C972	C	0.607000	0.135100	0.058500	-0.118822812848
C973	C	0.572200	0.136400	0.052800	0.010977484367
C974	C	0.555500	0.167300	0.048200	-0.146949362989
C975	C	0.574800	0.197200	0.045400	-0.072199249417
C976	C	0.608600	0.197100	0.049900	0.058685330685
C977	C	0.630800	0.229800	0.044200	-0.123376304720
C978	C	0.627000	0.255400	0.068300	0.241778043191
C979	C	0.610400	0.251800	0.100800	-0.149138573295
C980	C	0.624300	0.276000	0.121700	-0.149138573295
C981	C	0.649900	0.294400	0.102300	0.237115139370
C982	C	0.670600	0.320200	0.115400	-0.092584186721
C983	C	0.693600	0.338100	0.095100	0.237115139370
C984	C	0.716200	0.363700	0.109400	-0.149138573295
C985	C	0.739100	0.376800	0.086800	-0.149138573295
C986	C	0.731000	0.358400	0.055800	0.241778043191
C987	C	0.665800	0.334300	0.150600	0.011981978611
C988	C	0.641500	0.360000	0.155900	0.037027293440
C989	C	0.631600	0.368600	0.189300	-0.135853147703
C990	C	0.646000	0.351500	0.217200	0.006580021674
C991	C	0.670300	0.325700	0.211900	-0.135853147703
C992	C	0.680200	0.317100	0.178500	0.037027293440
C993	C	0.751400	0.352300	0.027200	-0.123376304720
C994	C	0.739200	0.338200	0.996300	0.241778043191
C995	C	0.752000	0.344800	0.961700	-0.149138573295
C996	C	0.734900	0.325500	0.938100	-0.149138573295
C997	C	0.711000	0.305900	0.959400	0.237115139370
C998	C	0.689100	0.280100	0.946100	-0.092584186721
C999	C	0.668000	0.259500	0.966000	0.237115139370
C1000	C	0.652000	0.228400	0.953600	-0.149138573295
C1001	C	0.637500	0.213500	0.981400	-0.149138573295
C1002	C	0.644000	0.235000	0.010900	0.241778043191
C1003	C	0.707100	0.247000	0.856700	-0.135853147703
C1004	C	0.681500	0.263600	0.838100	0.006580021674
C1005	C	0.658500	0.285500	0.854700	-0.135853147703
C1006	C	0.661200	0.290800	0.890000	0.037027293440
C1007	C	0.686800	0.274100	0.908700	0.011981978611
C1008	C	0.709800	0.252200	0.892100	0.037027293440
C1009	C	0.182900	0.965200	0.461500	0.726753407988
C1010	C	0.124800	0.859300	0.506300	0.664479464142
C1011	C	0.154900	0.875200	0.491000	-0.118822812848
C1012	C	0.155900	0.911600	0.481400	0.010977484367
C1013	C	0.183400	0.926500	0.469600	-0.146949362989
C1014	C	0.213000	0.907400	0.468200	-0.072199249417
C1015	C	0.215900	0.873300	0.475100	0.058685330685
C1016	C	0.186800	0.858400	0.488500	-0.075145862072
C1017	C	0.481800	0.668700	0.457200	0.726753407988
C1018	C	0.374100	0.601200	0.437500	0.664479464142
C1019	C	0.374900	0.666000	0.442200	-0.075145862072
C1020	C	0.393000	0.635100	0.441500	-0.118822812848
C1021	C	0.427800	0.636400	0.447200	0.010977484367
C1022	C	0.444500	0.667300	0.451800	-0.146949362989
C1023	C	0.425200	0.697200	0.454600	-0.072199249417
C1024	C	0.391400	0.697100	0.450100	0.058685330685
C1025	C	0.369200	0.729800	0.455800	-0.123376304720
C1026	C	0.373000	0.755400	0.431700	0.241778043191
C1027	C	0.389600	0.751800	0.399200	-0.149138573295
C1028	C	0.375700	0.776000	0.378300	-0.149138573295
C1029	C	0.350100	0.794400	0.397700	0.237115139370
C1030	C	0.329400	0.820200	0.384600	-0.092584186721
C1031	C	0.306400	0.838100	0.404900	0.237115139370
C1032	C	0.283800	0.863700	0.390600	-0.149138573295
C1033	C	0.260900	0.876800	0.413200	-0.149138573295
C1034	C	0.269000	0.858400	0.444200	0.241778043191
C1035	C	0.334200	0.834300	0.349400	0.011981978611
C1036	C	0.358500	0.860000	0.344100	0.037027293440
C1037	C	0.368400	0.868600	0.310700	-0.135853147703
C1038	C	0.354000	0.851500	0.282800	0.006580021674
C1039	C	0.329700	0.825700	0.288100	-0.135853147703
C1040	C	0.319800	0.817100	0.321500	0.037027293440
C1041	C	0.248600	0.852300	0.472800	-0.123376304720
C1042	C	0.260800	0.838200	0.503700	0.241778043191
C1043	C	0.248000	0.844800	0.538300	-0.149138573295
C1044	C	0.265100	0.825500	0.561900	-0.149138573295
C1045	C	0.289000	0.805900	0.540600	0.237115139370
C1046	C	0.310900	0.780100	0.553900	-0.092584186721
C1047	C	0.332000	0.759500	0.534000	0.237115139370
C1048	C	0.348000	0.728400	0.546400	-0.149138573295
C1049	C	0.362500	0.713500	0.518600	-0.149138573295
C1050	C	0.356000	0.735000	0.489100	0.241778043191
C1051	C	0.292900	0.747000	0.643300	-0.135853147703
C1052	C	0.318500	0.763600	0.661900	0.006580021674
C1053	C	0.341500	0.785500	0.645300	-0.135853147703
C1054	C	0.338800	0.790800	0.610000	0.037027293440
C1055	C	0.313200	0.774100	0.591300	0.011981978611
C1056	C	0.290200	0.752200	0.607900	0.037027293440
C1057	C	0.317100	0.034800	0.961500	0.726753407988
C1058	C	0.375200	0.140700	0.006300	0.664479464142
C1059	C	0.345100	0.124800	0.991000	-0.118822812848
C1060	C	0.344100	0.088400	0.981400	0.010977484367
C1061	C	0.316600	0.073500	0.969600	-0.146949362989
C1062	C	0.287000	0.092600	0.968200	-0.072199249417
C1063	C	0.284100	0.126700	0.975100	0.058685330685
C1064	C	0.313200	0.141600	0.988500	-0.075145862072
C1065	C	0.018200	0.331300	0.957200	0.726753407988
C1066	C	0.125900	0.398800	0.937500	0.664479464142
C1067	C	0.125100	0.334000	0.942200	-0.075145862072
C1068	C	0.107000	0.364900	0.941500	-0.118822812848
C1069	C	0.072200	0.363600	0.947200	0.010977484367
C1070	C	0.055500	0.332700	0.951800	-0.146949362989
C1071	C	0.074800	0.302800	0.954600	-0.072199249417
C1072	C	0.108600	0.302900	0.950100	0.058685330685
C1073	C	0.130800	0.270200	0.955800	-0.123376304720
C1074	C	0.127000	0.244600	0.931700	0.241778043191
C1075	C	0.110400	0.248200	0.899200	-0.149138573295
C1076	C	0.124300	0.224000	0.878300	-0.149138573295
C1077	C	0.149900	0.205600	0.897700	0.237115139370
C1078	C	0.170600	0.179800	0.884600	-0.092584186721
C1079	C	0.193600	0.161900	0.904900	0.237115139370
C1080	C	0.216200	0.136300	0.890600	-0.149138573295
C1081	C	0.239100	0.123200	0.913200	-0.149138573295
C1082	C	0.231000	0.141600	0.944200	0.241778043191
C1083	C	0.165800	0.165700	0.849400	0.011981978611
C1084	C	0.141500	0.140000	0.844100	0.037027293440
C1085	C	0.131600	0.131400	0.810700	-0.135853147703
C1086	C	0.146000	0.148500	0.782800	0.006580021674
C1087	C	0.170300	0.174300	0.788100	-0.135853147703
C1088	C	0.180200	0.182900	0.821500	0.037027293440
C1089	C	0.251400	0.147700	0.972800	-0.123376304720
C1090	C	0.239200	0.161800	0.003700	0.241778043191
C1091	C	0.252000	0.155200	0.038300	-0.149138573295
C1092	C	0.234900	0.174500	0.061900	-0.149138573295
C1093	C	0.211000	0.194100	0.040600	0.237115139370
C1094	C	0.189100	0.219900	0.053900	-0.092584186721
C1095	C	0.168000	0.240500	0.034000	0.237115139370
C1096	C	0.152000	0.271600	0.046400	-0.149138573295
C1097	C	0.137500	0.286500	0.018600	-0.149138573295
C1098	C	0.144000	0.265000	0.989100	0.241778043191
C1099	C	0.207100	0.253000	0.143300	-0.135853147703
C1100	C	0.181500	0.236400	0.161900	0.006580021674
C1101	C	0.158500	0.214500	0.145300	-0.135853147703
C1102	C	0.161200	0.209200	0.110000	0.037027293440
C1103	C	0.186800	0.225900	0.091300	0.011981978611
C1104	C	0.209800	0.247800	0.107900	0.037027293440
C1105	C	0.682900	0.534800	0.538500	0.726753407988
C1106	C	0.624800	0.640700	0.493700	0.664479464142
C1107	C	0.654900	0.624800	0.509000	-0.118822812848
C1108	C	0.655900	0.588400	0.518600	0.010977484367
C1109	C	0.683400	0.573500	0.530400	-0.146949362989
C1110	C	0.713000	0.592600	0.531800	-0.072199249417
C1111	C	0.715900	0.626700	0.524900	0.058685330685
C1112	C	0.686800	0.641600	0.511500	-0.075145862072
C1113	C	0.981800	0.831300	0.542800	0.726753407988
C1114	C	0.874100	0.898800	0.562500	0.664479464142
C1115	C	0.874900	0.834000	0.557800	-0.075145862072
C1116	C	0.893000	0.864900	0.558500	-0.118822812848
C1117	C	0.927800	0.863600	0.552800	0.010977484367
C1118	C	0.944500	0.832700	0.548200	-0.146949362989
C1119	C	0.925200	0.802800	0.545400	-0.072199249417
C1120	C	0.891400	0.802900	0.549900	0.058685330685
C1121	C	0.869200	0.770200	0.544200	-0.123376304720
C1122	C	0.873000	0.744600	0.568300	0.241778043191
C1123	C	0.889600	0.748200	0.600800	-0.149138573295
C1124	C	0.875700	0.724000	0.621700	-0.149138573295
C1125	C	0.850100	0.705600	0.602300	0.237115139370
C1126	C	0.829400	0.679800	0.615400	-0.092584186721
C1127	C	0.806400	0.661900	0.595100	0.237115139370
C1128	C	0.783800	0.636300	0.609400	-0.149138573295
C1129	C	0.760900	0.623200	0.586800	-0.149138573295
C1130	C	0.769000	0.641600	0.555800	0.241778043191
C1131	C	0.834200	0.665700	0.650600	0.011981978611
C1132	C	0.858500	0.640000	0.655900	0.037027293440
C1133	C	0.868400	0.631400	0.689300	-0.135853147703
C1134	C	0.854000	0.648500	0.717200	0.006580021674
C1135	C	0.829700	0.674300	0.711900	-0.135853147703
C1136	C	0.819800	0.682900	0.678500	0.037027293440
C1137	C	0.748600	0.647700	0.527200	-0.123376304720
C1138	C	0.760800	0.661800	0.496300	0.241778043191
C1139	C	0.748000	0.655200	0.461700	-0.149138573295
C1140	C	0.765100	0.674500	0.438100	-0.149138573295
C1141	C	0.789000	0.694100	0.459400	0.237115139370
C1142	C	0.810900	0.719900	0.446100	-0.092584186721
C1143	C	0.832000	0.740500	0.466000	0.237115139370
C1144	C	0.848000	0.771600	0.453600	-0.149138573295
C1145	C	0.862500	0.786500	0.481400	-0.149138573295
C1146	C	0.856000	0.765000	0.510900	0.241778043191
C1147	C	0.792900	0.753000	0.356700	-0.135853147703
C1148	C	0.818500	0.736400	0.338100	0.006580021674
C1149	C	0.841500	0.714500	0.354700	-0.135853147703
C1150	C	0.838800	0.709200	0.390000	0.037027293440
C1151	C	0.813200	0.725900	0.408700	0.011981978611
C1152	C	0.790200	0.747800	0.392100	0.037027293440
Br1	Br	0.084500	0.255700	0.771700	-0.055126348596
Br2	Br	0.827100	0.289300	0.719300	-0.055126348596
Br3	Br	0.880910	0.382790	0.619930	-0.055126348596
Br4	Br	0.088200	0.370300	0.678200	-0.055126348596
Br5	Br	0.415500	0.744300	0.271700	-0.055126348596
Br6	Br	0.672900	0.710700	0.219300	-0.055126348596
Br7	Br	0.619090	0.617210	0.119930	-0.055126348596
Br8	Br	0.411800	0.629700	0.178200	-0.055126348596
Br9	Br	0.915500	0.755700	0.728300	-0.055126348596
Br10	Br	0.172900	0.789300	0.780700	-0.055126348596
Br11	Br	0.119090	0.882790	0.880070	-0.055126348596
Br12	Br	0.911800	0.870300	0.821800	-0.055126348596
Br13	Br	0.584500	0.244300	0.228300	-0.055126348596
Br14	Br	0.327100	0.210700	0.280700	-0.055126348596
Br15	Br	0.380910	0.117210	0.380070	-0.055126348596
Br16	Br	0.588200	0.129700	0.321800	-0.055126348596
Br17	Br	0.771700	0.084500	0.255700	-0.055126348596
Br18	Br	0.719300	0.827100	0.289300	-0.055126348596
Br19	Br	0.619930	0.880910	0.382790	-0.055126348596
Br20	Br	0.678200	0.088200	0.370300	-0.055126348596
Br21	Br	0.271700	0.415500	0.744300	-0.055126348596
Br22	Br	0.219300	0.672900	0.710700	-0.055126348596
Br23	Br	0.119930	0.619090	0.617210	-0.055126348596
Br24	Br	0.178200	0.411800	0.629700	-0.055126348596
Br25	Br	0.728300	0.915500	0.755700	-0.055126348596
Br26	Br	0.780700	0.172900	0.789300	-0.055126348596
Br27	Br	0.880070	0.119090	0.882790	-0.055126348596
Br28	Br	0.821800	0.911800	0.870300	-0.055126348596
Br29	Br	0.228300	0.584500	0.244300	-0.055126348596
Br30	Br	0.280700	0.327100	0.210700	-0.055126348596
Br31	Br	0.380070	0.380910	0.117210	-0.055126348596
Br32	Br	0.321800	0.588200	0.129700	-0.055126348596
Br33	Br	0.255700	0.771700	0.084500	-0.055126348596
Br34	Br	0.289300	0.719300	0.827100	-0.055126348596
Br35	Br	0.382790	0.619930	0.880910	-0.055126348596
Br36	Br	0.370300	0.678200	0.088200	-0.055126348596
Br37	Br	0.744300	0.271700	0.415500	-0.055126348596
Br38	Br	0.710700	0.219300	0.672900	-0.055126348596
Br39	Br	0.617210	0.119930	0.619090	-0.055126348596
Br40	Br	0.629700	0.178200	0.411800	-0.055126348596
Br41	Br	0.755700	0.728300	0.915500	-0.055126348596
Br42	Br	0.789300	0.780700	0.172900	-0.055126348596
Br43	Br	0.882790	0.880070	0.119090	-0.055126348596
Br44	Br	0.870300	0.821800	0.911800	-0.055126348596
Br45	Br	0.244300	0.228300	0.584500	-0.055126348596
Br46	Br	0.210700	0.280700	0.327100	-0.055126348596
Br47	Br	0.117210	0.380070	0.380910	-0.055126348596
Br48	Br	0.129700	0.321800	0.588200	-0.055126348596
Br49	Br	0.915500	0.744300	0.228300	-0.055126348596
Br50	Br	0.172900	0.710700	0.280700	-0.055126348596
Br51	Br	0.119090	0.617210	0.380070	-0.055126348596
Br52	Br	0.911800	0.629700	0.321800	-0.055126348596
Br53	Br	0.584500	0.255700	0.728300	-0.055126348596
Br54	Br	0.327100	0.289300	0.780700	-0.055126348596
Br55	Br	0.380910	0.382790	0.880070	-0.055126348596
Br56	Br	0.588200	0.370300	0.821800	-0.055126348596
Br57	Br	0.084500	0.244300	0.271700	-0.055126348596
Br58	Br	0.827100	0.210700	0.219300	-0.055126348596
Br59	Br	0.880910	0.117210	0.119930	-0.055126348596
Br60	Br	0.088200	0.129700	0.178200	-0.055126348596
Br61	Br	0.415500	0.755700	0.771700	-0.055126348596
Br62	Br	0.672900	0.789300	0.719300	-0.055126348596
Br63	Br	0.619090	0.882790	0.619930	-0.055126348596
Br64	Br	0.411800	0.870300	0.678200	-0.055126348596
Br65	Br	0.228300	0.915500	0.744300	-0.055126348596
Br66	Br	0.280700	0.172900	0.710700	-0.055126348596
Br67	Br	0.380070	0.119090	0.617210	-0.055126348596
Br68	Br	0.321800	0.911800	0.629700	-0.055126348596
Br69	Br	0.728300	0.584500	0.255700	-0.055126348596
Br70	Br	0.780700	0.327100	0.289300	-0.055126348596
Br71	Br	0.880070	0.380910	0.382790	-0.055126348596
Br72	Br	0.821800	0.588200	0.370300	-0.055126348596
Br73	Br	0.271700	0.084500	0.244300	-0.055126348596
Br74	Br	0.219300	0.827100	0.210700	-0.055126348596
Br75	Br	0.119930	0.880910	0.117210	-0.055126348596
Br76	Br	0.178200	0.088200	0.129700	-0.055126348596
Br77	Br	0.771700	0.415500	0.755700	-0.055126348596
Br78	Br	0.719300	0.672900	0.789300	-0.055126348596
Br79	Br	0.619930	0.619090	0.882790	-0.055126348596
Br80	Br	0.678200	0.411800	0.870300	-0.055126348596
Br81	Br	0.744300	0.228300	0.915500	-0.055126348596
Br82	Br	0.710700	0.280700	0.172900	-0.055126348596
Br83	Br	0.617210	0.380070	0.119090	-0.055126348596
Br84	Br	0.629700	0.321800	0.911800	-0.055126348596
Br85	Br	0.255700	0.728300	0.584500	-0.055126348596
Br86	Br	0.289300	0.780700	0.327100	-0.055126348596
Br87	Br	0.382790	0.880070	0.380910	-0.055126348596
Br88	Br	0.370300	0.821800	0.588200	-0.055126348596
Br89	Br	0.244300	0.271700	0.084500	-0.055126348596
Br90	Br	0.210700	0.219300	0.827100	-0.055126348596
Br91	Br	0.117210	0.119930	0.880910	-0.055126348596
Br92	Br	0.129700	0.178200	0.088200	-0.055126348596
Br93	Br	0.755700	0.771700	0.415500	-0.055126348596
Br94	Br	0.789300	0.719300	0.672900	-0.055126348596
Br95	Br	0.882790	0.619930	0.619090	-0.055126348596
Br96	Br	0.870300	0.678200	0.411800	-0.055126348596
N1	N	0.930400	0.349100	0.718700	-0.412758809657
N2	N	0.938500	0.296000	0.664000	-0.412758809657
N3	N	0.005900	0.287400	0.686100	-0.412758809657
N4	N	0.998700	0.335600	0.737400	-0.412758809657
N5	N	0.569600	0.650900	0.218700	-0.412758809657
N6	N	0.561500	0.704000	0.164000	-0.412758809657
N7	N	0.494100	0.712600	0.186100	-0.412758809657
N8	N	0.501300	0.664400	0.237400	-0.412758809657
N9	N	0.069600	0.849100	0.781300	-0.412758809657
N10	N	0.061500	0.796000	0.836000	-0.412758809657
N11	N	0.994100	0.787400	0.813900	-0.412758809657
N12	N	0.001300	0.835600	0.762600	-0.412758809657
N13	N	0.430400	0.150900	0.281300	-0.412758809657
N14	N	0.438500	0.204000	0.336000	-0.412758809657
N15	N	0.505900	0.212600	0.313900	-0.412758809657
N16	N	0.498700	0.164400	0.262600	-0.412758809657
N17	N	0.718700	0.930400	0.349100	-0.412758809657
N18	N	0.664000	0.938500	0.296000	-0.412758809657
N19	N	0.686100	0.005900	0.287400	-0.412758809657
N20	N	0.737400	0.998700	0.335600	-0.412758809657
N21	N	0.218700	0.569600	0.650900	-0.412758809657
N22	N	0.164000	0.561500	0.704000	-0.412758809657
N23	N	0.186100	0.494100	0.712600	-0.412758809657
N24	N	0.237400	0.501300	0.664400	-0.412758809657
N25	N	0.781300	0.069600	0.849100	-0.412758809657
N26	N	0.836000	0.061500	0.796000	-0.412758809657
N27	N	0.813900	0.994100	0.787400	-0.412758809657
N28	N	0.762600	0.001300	0.835600	-0.412758809657
N29	N	0.281300	0.430400	0.150900	-0.412758809657
N30	N	0.336000	0.438500	0.204000	-0.412758809657
N31	N	0.313900	0.505900	0.212600	-0.412758809657
N32	N	0.262600	0.498700	0.164400	-0.412758809657
N33	N	0.349100	0.718700	0.930400	-0.412758809657
N34	N	0.296000	0.664000	0.938500	-0.412758809657
N35	N	0.287400	0.686100	0.005900	-0.412758809657
N36	N	0.335600	0.737400	0.998700	-0.412758809657
N37	N	0.650900	0.218700	0.569600	-0.412758809657
N38	N	0.704000	0.164000	0.561500	-0.412758809657
N39	N	0.712600	0.186100	0.494100	-0.412758809657
N40	N	0.664400	0.237400	0.501300	-0.412758809657
N41	N	0.849100	0.781300	0.069600	-0.412758809657
N42	N	0.796000	0.836000	0.061500	-0.412758809657
N43	N	0.787400	0.813900	0.994100	-0.412758809657
N44	N	0.835600	0.762600	0.001300	-0.412758809657
N45	N	0.150900	0.281300	0.430400	-0.412758809657
N46	N	0.204000	0.336000	0.438500	-0.412758809657
N47	N	0.212600	0.313900	0.505900	-0.412758809657
N48	N	0.164400	0.262600	0.498700	-0.412758809657
N49	N	0.069600	0.650900	0.281300	-0.412758809657
N50	N	0.061500	0.704000	0.336000	-0.412758809657
N51	N	0.994100	0.712600	0.313900	-0.412758809657
N52	N	0.001300	0.664400	0.262600	-0.412758809657
N53	N	0.430400	0.349100	0.781300	-0.412758809657
N54	N	0.438500	0.296000	0.836000	-0.412758809657
N55	N	0.505900	0.287400	0.813900	-0.412758809657
N56	N	0.498700	0.335600	0.762600	-0.412758809657
N57	N	0.930400	0.150900	0.218700	-0.412758809657
N58	N	0.938500	0.204000	0.164000	-0.412758809657
N59	N	0.005900	0.212600	0.186100	-0.412758809657
N60	N	0.998700	0.164400	0.237400	-0.412758809657
N61	N	0.569600	0.849100	0.718700	-0.412758809657
N62	N	0.561500	0.796000	0.664000	-0.412758809657
N63	N	0.494100	0.787400	0.686100	-0.412758809657
N64	N	0.501300	0.835600	0.737400	-0.412758809657
N65	N	0.281300	0.069600	0.650900	-0.412758809657
N66	N	0.336000	0.061500	0.704000	-0.412758809657
N67	N	0.313900	0.994100	0.712600	-0.412758809657
N68	N	0.262600	0.001300	0.664400	-0.412758809657
N69	N	0.781300	0.430400	0.349100	-0.412758809657
N70	N	0.836000	0.438500	0.296000	-0.412758809657
N71	N	0.813900	0.505900	0.287400	-0.412758809657
N72	N	0.762600	0.498700	0.335600	-0.412758809657
N73	N	0.218700	0.930400	0.150900	-0.412758809657
N74	N	0.164000	0.938500	0.204000	-0.412758809657
N75	N	0.186100	0.005900	0.212600	-0.412758809657
N76	N	0.237400	0.998700	0.164400	-0.412758809657
N77	N	0.718700	0.569600	0.849100	-0.412758809657
N78	N	0.664000	0.561500	0.796000	-0.412758809657
N79	N	0.686100	0.494100	0.787400	-0.412758809657
N80	N	0.737400	0.501300	0.835600	-0.412758809657
N81	N	0.650900	0.281300	0.069600	-0.412758809657
N82	N	0.704000	0.336000	0.061500	-0.412758809657
N83	N	0.712600	0.313900	0.994100	-0.412758809657
N84	N	0.664400	0.262600	0.001300	-0.412758809657
N85	N	0.349100	0.781300	0.430400	-0.412758809657
N86	N	0.296000	0.836000	0.438500	-0.412758809657
N87	N	0.287400	0.813900	0.505900	-0.412758809657
N88	N	0.335600	0.762600	0.498700	-0.412758809657
N89	N	0.150900	0.218700	0.930400	-0.412758809657
N90	N	0.204000	0.164000	0.938500	-0.412758809657
N91	N	0.212600	0.186100	0.005900	-0.412758809657
N92	N	0.164400	0.237400	0.998700	-0.412758809657
N93	N	0.849100	0.718700	0.569600	-0.412758809657
N94	N	0.796000	0.664000	0.561500	-0.412758809657
N95	N	0.787400	0.686100	0.494100	-0.412758809657
N96	N	0.835600	0.737400	0.501300	-0.412758809657
O1	O	0.952300	0.211400	0.521180	-0.630724506978
O2	O	0.961720	0.154540	0.521330	-0.583486142717
O3	O	0.010720	0.098600	0.621950	-0.595476074046
O4	O	0.012200	0.126400	0.671700	-0.564336330086
O5	O	0.926400	0.342400	0.896110	-0.564336330086
O6	O	0.941890	0.388780	0.925810	-0.595476074046
O7	O	0.958790	0.498770	0.858670	-0.583486142717
O8	O	0.960500	0.494230	0.802140	-0.630724506978
O9	O	0.933480	0.316800	0.956160	-0.690255805405
O10	O	0.547700	0.788600	0.021180	-0.630724506978
O11	O	0.538280	0.845460	0.021330	-0.583486142717
O12	O	0.489280	0.901400	0.121950	-0.595476074046
O13	O	0.487800	0.873600	0.171700	-0.564336330086
O14	O	0.573600	0.657600	0.396110	-0.564336330086
O15	O	0.558110	0.611220	0.425810	-0.595476074046
O16	O	0.541210	0.501230	0.358670	-0.583486142717
O17	O	0.539500	0.505770	0.302140	-0.630724506978
O18	O	0.566520	0.683200	0.456160	-0.690255805405
O19	O	0.047700	0.711400	0.978820	-0.630724506978
O20	O	0.038280	0.654540	0.978670	-0.583486142717
O21	O	0.989280	0.598600	0.878050	-0.595476074046
O22	O	0.987800	0.626400	0.828300	-0.564336330086
O23	O	0.073600	0.842400	0.603890	-0.564336330086
O24	O	0.058110	0.888780	0.574190	-0.595476074046
O25	O	0.041210	0.998770	0.641330	-0.583486142717
O26	O	0.039500	0.994230	0.697860	-0.630724506978
O27	O	0.066520	0.816800	0.543840	-0.690255805405
O28	O	0.452300	0.288600	0.478820	-0.630724506978
O29	O	0.461720	0.345460	0.478670	-0.583486142717
O30	O	0.510720	0.401400	0.378050	-0.595476074046
O31	O	0.512200	0.373600	0.328300	-0.564336330086
O32	O	0.426400	0.157600	0.103890	-0.564336330086
O33	O	0.441890	0.111220	0.074190	-0.595476074046
O34	O	0.458790	0.001230	0.141330	-0.583486142717
O35	O	0.460500	0.005770	0.197860	-0.630724506978
O36	O	0.433480	0.183200	0.043840	-0.690255805405
O37	O	0.521180	0.952300	0.211400	-0.630724506978
O38	O	0.521330	0.961720	0.154540	-0.583486142717
O39	O	0.621950	0.010720	0.098600	-0.595476074046
O40	O	0.671700	0.012200	0.126400	-0.564336330086
O41	O	0.896110	0.926400	0.342400	-0.564336330086
O42	O	0.925810	0.941890	0.388780	-0.595476074046
O43	O	0.858670	0.958790	0.498770	-0.583486142717
O44	O	0.802140	0.960500	0.494230	-0.630724506978
O45	O	0.956160	0.933480	0.316800	-0.690255805405
O46	O	0.021180	0.547700	0.788600	-0.630724506978
O47	O	0.021330	0.538280	0.845460	-0.583486142717
O48	O	0.121950	0.489280	0.901400	-0.595476074046
O49	O	0.171700	0.487800	0.873600	-0.564336330086
O50	O	0.396110	0.573600	0.657600	-0.564336330086
O51	O	0.425810	0.558110	0.611220	-0.595476074046
O52	O	0.358670	0.541210	0.501230	-0.583486142717
O53	O	0.302140	0.539500	0.505770	-0.630724506978
O54	O	0.456160	0.566520	0.683200	-0.690255805405
O55	O	0.978820	0.047700	0.711400	-0.630724506978
O56	O	0.978670	0.038280	0.654540	-0.583486142717
O57	O	0.878050	0.989280	0.598600	-0.595476074046
O58	O	0.828300	0.987800	0.626400	-0.564336330086
O59	O	0.603890	0.073600	0.842400	-0.564336330086
O60	O	0.574190	0.058110	0.888780	-0.595476074046
O61	O	0.641330	0.041210	0.998770	-0.583486142717
O62	O	0.697860	0.039500	0.994230	-0.630724506978
O63	O	0.543840	0.066520	0.816800	-0.690255805405
O64	O	0.478820	0.452300	0.288600	-0.630724506978
O65	O	0.478670	0.461720	0.345460	-0.583486142717
O66	O	0.378050	0.510720	0.401400	-0.595476074046
O67	O	0.328300	0.512200	0.373600	-0.564336330086
O68	O	0.103890	0.426400	0.157600	-0.564336330086
O69	O	0.074190	0.441890	0.111220	-0.595476074046
O70	O	0.141330	0.458790	0.001230	-0.583486142717
O71	O	0.197860	0.460500	0.005770	-0.630724506978
O72	O	0.043840	0.433480	0.183200	-0.690255805405
O73	O	0.211400	0.521180	0.952300	-0.630724506978
O74	O	0.154540	0.521330	0.961720	-0.583486142717
O75	O	0.098600	0.621950	0.010720	-0.595476074046
O76	O	0.126400	0.671700	0.012200	-0.564336330086
O77	O	0.342400	0.896110	0.926400	-0.564336330086
O78	O	0.388780	0.925810	0.941890	-0.595476074046
O79	O	0.498770	0.858670	0.958790	-0.583486142717
O80	O	0.494230	0.802140	0.960500	-0.630724506978
O81	O	0.316800	0.956160	0.933480	-0.690255805405
O82	O	0.788600	0.021180	0.547700	-0.630724506978
O83	O	0.845460	0.021330	0.538280	-0.583486142717
O84	O	0.901400	0.121950	0.489280	-0.595476074046
O85	O	0.873600	0.171700	0.487800	-0.564336330086
O86	O	0.657600	0.396110	0.573600	-0.564336330086
O87	O	0.611220	0.425810	0.558110	-0.595476074046
O88	O	0.501230	0.358670	0.541210	-0.583486142717
O89	O	0.505770	0.302140	0.539500	-0.630724506978
O90	O	0.683200	0.456160	0.566520	-0.690255805405
O91	O	0.711400	0.978820	0.047700	-0.630724506978
O92	O	0.654540	0.978670	0.038280	-0.583486142717
O93	O	0.598600	0.878050	0.989280	-0.595476074046
O94	O	0.626400	0.828300	0.987800	-0.564336330086
O95	O	0.842400	0.603890	0.073600	-0.564336330086
O96	O	0.888780	0.574190	0.058110	-0.595476074046
O97	O	0.998770	0.641330	0.041210	-0.583486142717
O98	O	0.994230	0.697860	0.039500	-0.630724506978
O99	O	0.816800	0.543840	0.066520	-0.690255805405
O100	O	0.288600	0.478820	0.452300	-0.630724506978
O101	O	0.345460	0.478670	0.461720	-0.583486142717
O102	O	0.401400	0.378050	0.510720	-0.595476074046
O103	O	0.373600	0.328300	0.512200	-0.564336330086
O104	O	0.157600	0.103890	0.426400	-0.564336330086
O105	O	0.111220	0.074190	0.441890	-0.595476074046
O106	O	0.001230	0.141330	0.458790	-0.583486142717
O107	O	0.005770	0.197860	0.460500	-0.630724506978
O108	O	0.183200	0.043840	0.433480	-0.690255805405
O109	O	0.047700	0.788600	0.478820	-0.630724506978
O110	O	0.038280	0.845460	0.478670	-0.583486142717
O111	O	0.989280	0.901400	0.378050	-0.595476074046
O112	O	0.987800	0.873600	0.328300	-0.564336330086
O113	O	0.073600	0.657600	0.103890	-0.564336330086
O114	O	0.058110	0.611220	0.074190	-0.595476074046
O115	O	0.041210	0.501230	0.141330	-0.583486142717
O116	O	0.039500	0.505770	0.197860	-0.630724506978
O117	O	0.066520	0.683200	0.043840	-0.690255805405
O118	O	0.452300	0.211400	0.978820	-0.630724506978
O119	O	0.461720	0.154540	0.978670	-0.583486142717
O120	O	0.510720	0.098600	0.878050	-0.595476074046
O121	O	0.512200	0.126400	0.828300	-0.564336330086
O122	O	0.426400	0.342400	0.603890	-0.564336330086
O123	O	0.441890	0.388780	0.574190	-0.595476074046
O124	O	0.458790	0.498770	0.641330	-0.583486142717
O125	O	0.460500	0.494230	0.697860	-0.630724506978
O126	O	0.433480	0.316800	0.543840	-0.690255805405
O127	O	0.952300	0.288600	0.021180	-0.630724506978
O128	O	0.961720	0.345460	0.021330	-0.583486142717
O129	O	0.010720	0.401400	0.121950	-0.595476074046
O130	O	0.012200	0.373600	0.171700	-0.564336330086
O131	O	0.926400	0.157600	0.396110	-0.564336330086
O132	O	0.941890	0.111220	0.425810	-0.595476074046
O133	O	0.958790	0.001230	0.358670	-0.583486142717
O134	O	0.960500	0.005770	0.302140	-0.630724506978
O135	O	0.933480	0.183200	0.456160	-0.690255805405
O136	O	0.547700	0.711400	0.521180	-0.630724506978
O137	O	0.538280	0.654540	0.521330	-0.583486142717
O138	O	0.489280	0.598600	0.621950	-0.595476074046
O139	O	0.487800	0.626400	0.671700	-0.564336330086
O140	O	0.573600	0.842400	0.896110	-0.564336330086
O141	O	0.558110	0.888780	0.925810	-0.595476074046
O142	O	0.541210	0.998770	0.858670	-0.583486142717
O143	O	0.539500	0.994230	0.802140	-0.630724506978
O144	O	0.566520	0.816800	0.956160	-0.690255805405
O145	O	0.478820	0.047700	0.788600	-0.630724506978
O146	O	0.478670	0.038280	0.845460	-0.583486142717
O147	O	0.378050	0.989280	0.901400	-0.595476074046
O148	O	0.328300	0.987800	0.873600	-0.564336330086
O149	O	0.103890	0.073600	0.657600	-0.564336330086
O150	O	0.074190	0.058110	0.611220	-0.595476074046
O151	O	0.141330	0.041210	0.501230	-0.583486142717
O152	O	0.197860	0.039500	0.505770	-0.630724506978
O153	O	0.043840	0.066520	0.683200	-0.690255805405
O154	O	0.978820	0.452300	0.211400	-0.630724506978
O155	O	0.978670	0.461720	0.154540	-0.583486142717
O156	O	0.878050	0.510720	0.098600	-0.595476074046
O157	O	0.828300	0.512200	0.126400	-0.564336330086
O158	O	0.603890	0.426400	0.342400	-0.564336330086
O159	O	0.574190	0.441890	0.388780	-0.595476074046
O160	O	0.641330	0.458790	0.498770	-0.583486142717
O161	O	0.697860	0.460500	0.494230	-0.630724506978
O162	O	0.543840	0.433480	0.316800	-0.690255805405
O163	O	0.021180	0.952300	0.288600	-0.630724506978
O164	O	0.021330	0.961720	0.345460	-0.583486142717
O165	O	0.121950	0.010720	0.401400	-0.595476074046
O166	O	0.171700	0.012200	0.373600	-0.564336330086
O167	O	0.396110	0.926400	0.157600	-0.564336330086
O168	O	0.425810	0.941890	0.111220	-0.595476074046
O169	O	0.358670	0.958790	0.001230	-0.583486142717
O170	O	0.302140	0.960500	0.005770	-0.630724506978
O171	O	0.456160	0.933480	0.183200	-0.690255805405
O172	O	0.521180	0.547700	0.711400	-0.630724506978
O173	O	0.521330	0.538280	0.654540	-0.583486142717
O174	O	0.621950	0.489280	0.598600	-0.595476074046
O175	O	0.671700	0.487800	0.626400	-0.564336330086
O176	O	0.896110	0.573600	0.842400	-0.564336330086
O177	O	0.925810	0.558110	0.888780	-0.595476074046
O178	O	0.858670	0.541210	0.998770	-0.583486142717
O179	O	0.802140	0.539500	0.994230	-0.630724506978
O180	O	0.956160	0.566520	0.816800	-0.690255805405
O181	O	0.788600	0.478820	0.047700	-0.630724506978
O182	O	0.845460	0.478670	0.038280	-0.583486142717
O183	O	0.901400	0.378050	0.989280	-0.595476074046
O184	O	0.873600	0.328300	0.987800	-0.564336330086
O185	O	0.657600	0.103890	0.073600	-0.564336330086
O186	O	0.611220	0.074190	0.058110	-0.595476074046
O187	O	0.501230	0.141330	0.041210	-0.583486142717
O188	O	0.505770	0.197860	0.039500	-0.630724506978
O189	O	0.683200	0.043840	0.066520	-0.690255805405
O190	O	0.211400	0.978820	0.452300	-0.630724506978
O191	O	0.154540	0.978670	0.461720	-0.583486142717
O192	O	0.098600	0.878050	0.510720	-0.595476074046
O193	O	0.126400	0.828300	0.512200	-0.564336330086
O194	O	0.342400	0.603890	0.426400	-0.564336330086
O195	O	0.388780	0.574190	0.441890	-0.595476074046
O196	O	0.498770	0.641330	0.458790	-0.583486142717
O197	O	0.494230	0.697860	0.460500	-0.630724506978
O198	O	0.316800	0.543840	0.433480	-0.690255805405
O199	O	0.288600	0.021180	0.952300	-0.630724506978
O200	O	0.345460	0.021330	0.961720	-0.583486142717
O201	O	0.401400	0.121950	0.010720	-0.595476074046
O202	O	0.373600	0.171700	0.012200	-0.564336330086
O203	O	0.157600	0.396110	0.926400	-0.564336330086
O204	O	0.111220	0.425810	0.941890	-0.595476074046
O205	O	0.001230	0.358670	0.958790	-0.583486142717
O206	O	0.005770	0.302140	0.960500	-0.630724506978
O207	O	0.183200	0.456160	0.933480	-0.690255805405
O208	O	0.711400	0.521180	0.547700	-0.630724506978
O209	O	0.654540	0.521330	0.538280	-0.583486142717
O210	O	0.598600	0.621950	0.489280	-0.595476074046
O211	O	0.626400	0.671700	0.487800	-0.564336330086
O212	O	0.842400	0.896110	0.573600	-0.564336330086
O213	O	0.888780	0.925810	0.558110	-0.595476074046
O214	O	0.998770	0.858670	0.541210	-0.583486142717
O215	O	0.994230	0.802140	0.539500	-0.630724506978
O216	O	0.816800	0.956160	0.566520	-0.690255805405
