_symmetry_space_group_name_H-M   'P 1'
_cell_length_a 100.000000
_cell_length_b 100.000000
_cell_length_c 100.000000
_cell_angle_alpha 90.000000
_cell_angle_beta 90.000000
_cell_angle_gamma 90.000000
_symmetry_Int_Tables_number 1

loop_
_symmetry_equiv_pos_as_xyz
 'x, y, z'

loop_
_atom_site_label
_atom_site_fract_x
_atom_site_fract_y
_atom_site_fract_z
_atom_site_charge
C 0.492370 0.542830 0.495980 0.000000
H 0.490760 0.552460 0.496800 0.000000
C 0.495380 0.538780 0.481450 0.000000
H 0.494430 0.546450 0.475430 0.000000
C 0.476470 0.527340 0.488910 0.000000
C 0.514330 0.534440 0.494380 0.000000
C 0.503970 0.510460 0.458370 0.000000
H 0.504380 0.514760 0.449560 0.000000
C 0.506910 0.495350 0.457570 0.000000
H 0.508500 0.492550 0.448320 0.000000
C 0.485490 0.498350 0.465860 0.000000
C 0.523270 0.505630 0.470740 0.000000
C 0.510270 0.463480 0.477680 0.000000
H 0.512680 0.456430 0.471280 0.000000
C 0.509300 0.457990 0.492100 0.000000
H 0.510970 0.448330 0.492380 0.000000
C 0.488830 0.466660 0.485900 0.000000
C 0.525940 0.474450 0.491290 0.000000
C 0.502080 0.467340 0.528140 0.000000
H 0.503440 0.458980 0.533070 0.000000
C 0.498230 0.478890 0.537710 0.000000
H 0.497730 0.475920 0.547040 0.000000
C 0.481060 0.475550 0.522070 0.000000
C 0.518580 0.483710 0.527190 0.000000
C 0.491080 0.515780 0.539550 0.000000
H 0.488620 0.517220 0.548940 0.000000
C 0.489760 0.528970 0.531200 0.000000
H 0.487530 0.536630 0.536870 0.000000
C 0.474260 0.513520 0.523470 0.000000
C 0.511780 0.520470 0.530090 0.000000
C 0.482800 0.522600 0.466020 0.000000
H 0.484700 0.528980 0.458970 0.000000
H 0.473410 0.520250 0.465420 0.000000
C 0.516540 0.529230 0.470550 0.000000
H 0.525960 0.530450 0.472470 0.000000
H 0.514420 0.534610 0.462770 0.000000
C 0.492650 0.474880 0.463040 0.000000
H 0.497200 0.470790 0.455530 0.000000
H 0.483130 0.473350 0.461900 0.000000
C 0.526010 0.481450 0.467460 0.000000
H 0.535410 0.483280 0.469030 0.000000
H 0.525320 0.476210 0.459320 0.000000
C 0.489530 0.456910 0.508370 0.000000
H 0.493530 0.448510 0.511140 0.000000
H 0.480130 0.455240 0.506670 0.000000
C 0.522590 0.463800 0.513440 0.000000
H 0.521470 0.454480 0.515910 0.000000
H 0.531880 0.466150 0.514930 0.000000
C 0.477770 0.493860 0.538050 0.000000
H 0.478780 0.493860 0.547690 0.000000
H 0.468400 0.492430 0.536060 0.000000
C 0.510980 0.500120 0.543730 0.000000
H 0.520530 0.501580 0.544650 0.000000
H 0.507350 0.498550 0.552570 0.000000
C 0.474000 0.535430 0.512280 0.000000
H 0.474590 0.544360 0.516020 0.000000
H 0.464620 0.533460 0.510790 0.000000
C 0.507520 0.541020 0.516970 0.000000
H 0.503170 0.549230 0.519760 0.000000
H 0.517080 0.542240 0.518050 0.000000
N 0.480930 0.535230 0.499530 0.000000
N 0.485230 0.528840 0.478730 0.000000
N 0.504630 0.538720 0.503030 0.000000
N 0.509000 0.534080 0.481620 0.000000
N 0.490780 0.510670 0.463850 0.000000
N 0.495170 0.489200 0.462840 0.000000
N 0.514260 0.515400 0.467340 0.000000
N 0.519030 0.493960 0.465610 0.000000
N 0.497020 0.468440 0.475280 0.000000
N 0.495770 0.461130 0.496010 0.000000
N 0.520730 0.473570 0.478720 0.000000
N 0.519540 0.465350 0.499270 0.000000
N 0.490620 0.466400 0.519320 0.000000
N 0.485280 0.483210 0.532680 0.000000
N 0.514420 0.471780 0.521920 0.000000
N 0.508840 0.488420 0.535640 0.000000
N 0.481750 0.506850 0.532890 0.000000
N 0.479230 0.526010 0.521920 0.000000
N 0.504950 0.512070 0.538240 0.000000
N 0.503120 0.530160 0.525590 0.000000
O 0.466610 0.520370 0.489030 0.000000
O 0.525950 0.531500 0.497170 0.000000
O 0.474030 0.495870 0.469630 0.000000
O 0.533600 0.507570 0.477120 0.000000
O 0.476710 0.469520 0.486200 0.000000
O 0.535290 0.481530 0.494580 0.000000
O 0.470270 0.476580 0.516490 0.000000
O 0.529140 0.489060 0.525010 0.000000
O 0.464600 0.508950 0.517460 0.000000
O 0.523720 0.520200 0.527650 0.000000
