# CIF file generated by openbabel 2.3.2, see http://openbabel.sf.net
data_I
_chemical_name_common ''
_cell_length_a 26.2833
_cell_length_b 26.2833
_cell_length_c 26.2833
_cell_angle_alpha 90
_cell_angle_beta 90
_cell_angle_gamma 90
_symmetry_space_group_name_H-M   'P 1'
loop_
_symmetry_equiv_pos_as_xyz
 'x, y, z'
loop_
    _atom_site_type_symbol
    _atom_site_label
    _atom_site_Cartn_x
    _atom_site_Cartn_y
    _atom_site_Cartn_z
     Cu  Cu1     7.45279    7.45279    0.00000
      O   O1     6.40682    8.32418    1.37278
      C   C1     4.69131    8.45034    2.98526
      C   C2     5.34944    7.79221    1.81381
      C   C3     3.55219    7.88552    3.55219
      H   H1     3.16188    7.11226    3.16188
     Cu  Cu1    18.83051   18.83051    0.00000
     Cu  Cu1    18.83051    7.45279    0.00000
     Cu  Cu1     7.45279   18.83051    0.00000
     Cu  Cu1    -0.00000    7.45279    7.45279
     Cu  Cu1    -0.00000   18.83051   18.83051
     Cu  Cu1    -0.00000   18.83051    7.45279
     Cu  Cu1    -0.00000    7.45279   18.83051
     Cu  Cu1     7.45279   -0.00000    7.45279
     Cu  Cu1    18.83051   -0.00000   18.83051
     Cu  Cu1     7.45279   -0.00000   18.83051
     Cu  Cu1    18.83051   -0.00000    7.45279
     Cu  Cu1     7.45279   20.59444   13.14165
     Cu  Cu1    18.83051    5.68886   13.14165
     Cu  Cu1    18.83051   20.59444   13.14165
     Cu  Cu1     7.45279    5.68886   13.14165
     Cu  Cu1    -0.00000   20.59444   20.59444
     Cu  Cu1    -0.00000    5.68886    5.68886
     Cu  Cu1    -0.00000    5.68886   20.59444
     Cu  Cu1    -0.00000   20.59444    5.68886
     Cu  Cu1     7.45279   13.14165   20.59444
     Cu  Cu1    18.83051   13.14165    5.68886
     Cu  Cu1     7.45279   13.14165    5.68886
     Cu  Cu1    18.83051   13.14165   20.59444
     Cu  Cu1    20.59444    7.45279   13.14165
     Cu  Cu1     5.68886   18.83051   13.14165
     Cu  Cu1     5.68886    7.45279   13.14165
     Cu  Cu1    20.59444   18.83051   13.14165
     Cu  Cu1    13.14165    7.45279   20.59444
     Cu  Cu1    13.14165   18.83051    5.68886
     Cu  Cu1    13.14165   18.83051   20.59444
     Cu  Cu1    13.14165    7.45279    5.68886
     Cu  Cu1    20.59444   -0.00000   20.59444
     Cu  Cu1     5.68886   -0.00000    5.68886
     Cu  Cu1    20.59444   -0.00000    5.68886
     Cu  Cu1     5.68886   -0.00000   20.59444
     Cu  Cu1    20.59444   20.59444    0.00000
     Cu  Cu1     5.68886    5.68886    0.00000
     Cu  Cu1     5.68886   20.59444    0.00000
     Cu  Cu1    20.59444    5.68886    0.00000
     Cu  Cu1    13.14165   20.59444    7.45279
     Cu  Cu1    13.14165    5.68886   18.83051
     Cu  Cu1    13.14165    5.68886    7.45279
     Cu  Cu1    13.14165   20.59444   18.83051
     Cu  Cu1    20.59444   13.14165    7.45279
     Cu  Cu1     5.68886   13.14165   18.83051
     Cu  Cu1    20.59444   13.14165   18.83051
     Cu  Cu1     5.68886   13.14165    7.45279
      O   O1    19.87648   17.95912    1.37278
      O   O1    19.87648    8.32418   24.91052
      O   O1     6.40682   17.95911   24.91052
      O   O1     1.37278    6.40682    8.32418
      O   O1     1.37278   19.87648   17.95912
      O   O1    24.91052   19.87648    8.32418
      O   O1    24.91052    6.40682   17.95912
      O   O1     8.32418    1.37278    6.40682
      O   O1    17.95911    1.37278   19.87648
      O   O1     8.32418   24.91052   19.87648
      O   O1    17.95911   24.91052    6.40682
      O   O1     8.32418    6.40682   24.91052
      O   O1    17.95911   19.87648   24.91052
      O   O1     8.32418   19.87648    1.37278
      O   O1    17.95912    6.40682    1.37278
      O   O1     6.40682    1.37278   17.95912
      O   O1    19.87648    1.37278    8.32418
      O   O1    19.87648   24.91052   17.95912
      O   O1     6.40682   24.91052    8.32418
      O   O1     1.37278    8.32418   19.87648
      O   O1     1.37278   17.95912    6.40682
      O   O1    24.91052    8.32418    6.40682
      O   O1    24.91052   17.95912   19.87648
      O   O1    19.87648   17.95911   24.91052
      O   O1     6.40682    8.32418   24.91052
      O   O1     6.40682   17.95912    1.37278
      O   O1    19.87648    8.32418    1.37278
      O   O1    24.91052   19.87648   17.95912
      O   O1    24.91052    6.40682    8.32418
      O   O1     1.37278    6.40682   17.95912
      O   O1     1.37278   19.87648    8.32418
      O   O1    17.95911   24.91052   19.87648
      O   O1     8.32418   24.91052    6.40682
      O   O1    17.95912    1.37278    6.40682
      O   O1     8.32418    1.37278   19.87648
      O   O1    17.95911   19.87648    1.37278
      O   O1     8.32418    6.40682    1.37278
      O   O1    17.95911    6.40682   24.91052
      O   O1     8.32418   19.87648   24.91052
      O   O1    19.87648   24.91052    8.32418
      O   O1     6.40682   24.91052   17.95912
      O   O1     6.40682    1.37278    8.32418
      O   O1    19.87648    1.37278   17.95912
      O   O1    24.91052   17.95912    6.40682
      O   O1    24.91052    8.32418   19.87648
      O   O1     1.37278   17.95912   19.87648
      O   O1     1.37278    8.32418    6.40682
      O   O1     6.40682   21.46583   14.51443
      O   O1    19.87648    4.81747   14.51443
      O   O1    19.87648   21.46583   11.76887
      O   O1     6.40682    4.81747   11.76887
      O   O1     1.37277   19.54847   21.46583
      O   O1     1.37278    6.73483    4.81747
      O   O1    24.91052    6.73483   21.46583
      O   O1    24.91052   19.54847    4.81747
      O   O1     8.32418   14.51443   19.54847
      O   O1    17.95911   14.51443    6.73483
      O   O1     8.32418   11.76887    6.73483
      O   O1    17.95911   11.76887   19.54847
      O   O1     8.32418   19.54847   11.76887
      O   O1    17.95912    6.73483   11.76887
      O   O1     8.32418    6.73483   14.51443
      O   O1    17.95911   19.54847   14.51443
      O   O1     6.40682   14.51443    4.81747
      O   O1    19.87648   14.51443   21.46583
      O   O1    19.87648   11.76887    4.81747
      O   O1     6.40682   11.76887   21.46583
      O   O1     1.37278   21.46583    6.73483
      O   O1     1.37278    4.81746   19.54847
      O   O1    24.91052   21.46583   19.54847
      O   O1    24.91052    4.81747    6.73483
      O   O1    19.87648    4.81747   11.76887
      O   O1     6.40682   21.46583   11.76887
      O   O1     6.40682    4.81747   14.51443
      O   O1    19.87648   21.46583   14.51443
      O   O1    24.91052    6.73483    4.81747
      O   O1    24.91052   19.54847   21.46583
      O   O1     1.37278   19.54847    4.81747
      O   O1     1.37278    6.73483   21.46583
      O   O1    17.95912   11.76887    6.73483
      O   O1     8.32418   11.76887   19.54847
      O   O1    17.95911   14.51443   19.54847
      O   O1     8.32418   14.51443    6.73483
      O   O1    17.95911    6.73483   14.51443
      O   O1     8.32418   19.54847   14.51443
      O   O1    17.95911   19.54847   11.76887
      O   O1     8.32418    6.73483   11.76887
      O   O1    19.87648   11.76887   21.46583
      O   O1     6.40682   11.76887    4.81747
      O   O1     6.40682   14.51443   21.46583
      O   O1    19.87648   14.51443    4.81747
      O   O1    24.91052    4.81746   19.54847
      O   O1    24.91052   21.46583    6.73483
      O   O1     1.37278    4.81747    6.73483
      O   O1     1.37277   21.46583   19.54847
      O   O1    19.54847    8.32418   14.51443
      O   O1     6.73483   17.95912   14.51443
      O   O1     6.73483    8.32418   11.76887
      O   O1    19.54847   17.95912   11.76887
      O   O1    14.51443    6.40682   21.46583
      O   O1    14.51443   19.87648    4.81747
      O   O1    11.76887   19.87648   21.46583
      O   O1    11.76887    6.40682    4.81747
      O   O1    21.46583    1.37278   19.54847
      O   O1     4.81747    1.37278    6.73483
      O   O1    21.46583   24.91052    6.73483
      O   O1     4.81746   24.91052   19.54847
      O   O1    21.46583    6.40682   11.76887
      O   O1     4.81746   19.87648   11.76887
      O   O1    21.46583   19.87648   14.51443
      O   O1     4.81746    6.40682   14.51443
      O   O1    19.54847    1.37278    4.81747
      O   O1     6.73483    1.37278   21.46583
      O   O1     6.73483   24.91052    4.81747
      O   O1    19.54847   24.91052   21.46583
      O   O1    14.51443    8.32418    6.73483
      O   O1    14.51443   17.95912   19.54847
      O   O1    11.76887    8.32418   19.54847
      O   O1    11.76887   17.95912    6.73483
      O   O1     6.73483   17.95912   11.76887
      O   O1    19.54847    8.32418   11.76887
      O   O1    19.54847   17.95912   14.51443
      O   O1     6.73483    8.32418   14.51443
      O   O1    11.76887   19.87648    4.81747
      O   O1    11.76887    6.40682   21.46583
      O   O1    14.51443    6.40682    4.81747
      O   O1    14.51443   19.87648   21.46583
      O   O1     4.81746   24.91052    6.73483
      O   O1    21.46583   24.91052   19.54847
      O   O1     4.81746    1.37278   19.54847
      O   O1    21.46583    1.37278    6.73483
      O   O1     4.81746   19.87648   14.51443
      O   O1    21.46583    6.40682   14.51443
      O   O1     4.81746    6.40682   11.76887
      O   O1    21.46583   19.87648   11.76887
      O   O1     6.73483   24.91052   21.46583
      O   O1    19.54847   24.91052    4.81747
      O   O1    19.54847    1.37278   21.46583
      O   O1     6.73483    1.37278    4.81747
      O   O1    11.76887   17.95912   19.54847
      O   O1    11.76887    8.32418    6.73483
      O   O1    14.51443   17.95912    6.73483
      O   O1    14.51443    8.32418   19.54847
      O   O1    19.54847   21.46583    1.37278
      O   O1     6.73483    4.81747    1.37278
      O   O1     6.73483   21.46583   24.91052
      O   O1    19.54847    4.81746   24.91052
      O   O1    14.51443   19.54847    8.32418
      O   O1    14.51443    6.73483   17.95912
      O   O1    11.76887    6.73483    8.32418
      O   O1    11.76887   19.54847   17.95912
      O   O1    21.46583   14.51443    6.40682
      O   O1     4.81746   14.51443   19.87648
      O   O1    21.46583   11.76887   19.87648
      O   O1     4.81746   11.76887    6.40682
      O   O1    21.46583   19.54847   24.91052
      O   O1     4.81746    6.73483   24.91052
      O   O1    21.46583    6.73483    1.37278
      O   O1     4.81746   19.54847    1.37278
      O   O1    19.54847   14.51443   17.95912
      O   O1     6.73483   14.51443    8.32418
      O   O1     6.73483   11.76887   17.95912
      O   O1    19.54847   11.76887    8.32418
      O   O1    14.51443   21.46583   19.87648
      O   O1    14.51443    4.81747    6.40682
      O   O1    11.76887   21.46583    6.40682
      O   O1    11.76887    4.81746   19.87648
      O   O1     6.73483    4.81746   24.91052
      O   O1    19.54847   21.46583   24.91052
      O   O1    19.54847    4.81747    1.37278
      O   O1     6.73483   21.46583    1.37278
      O   O1    11.76887    6.73483   17.95912
      O   O1    11.76887   19.54847    8.32418
      O   O1    14.51443   19.54847   17.95912
      O   O1    14.51443    6.73483    8.32418
      O   O1     4.81746   11.76887   19.87648
      O   O1    21.46583   11.76887    6.40682
      O   O1     4.81746   14.51443    6.40682
      O   O1    21.46583   14.51443   19.87648
      O   O1     4.81747    6.73483    1.37278
      O   O1    21.46583   19.54847    1.37278
      O   O1     4.81746   19.54847   24.91052
      O   O1    21.46583    6.73483   24.91052
      O   O1     6.73483   11.76887    8.32418
      O   O1    19.54847   11.76887   17.95912
      O   O1    19.54847   14.51443    8.32418
      O   O1     6.73483   14.51443   17.95912
      O   O1    11.76887    4.81747    6.40682
      O   O1    11.76887   21.46583   19.87648
      O   O1    14.51443    4.81746   19.87648
      O   O1    14.51443   21.46583    6.40682
      C   C1    21.59199   17.83296    2.98526
      C   C1    21.59199    8.45034   23.29804
      C   C1     4.69130   17.83296   23.29804
      C   C1     2.98526    4.69131    8.45034
      C   C1     2.98526   21.59199   17.83296
      C   C1    23.29804   21.59199    8.45034
      C   C1    23.29804    4.69131   17.83296
      C   C1     8.45034    2.98526    4.69131
      C   C1    17.83296    2.98526   21.59199
      C   C1     8.45034   23.29804   21.59199
      C   C1    17.83296   23.29804    4.69131
      C   C1     8.45034    4.69131   23.29804
      C   C1    17.83296   21.59199   23.29804
      C   C1     8.45034   21.59199    2.98526
      C   C1    17.83296    4.69131    2.98526
      C   C1     4.69131    2.98526   17.83296
      C   C1    21.59199    2.98526    8.45034
      C   C1    21.59199   23.29804   17.83296
      C   C1     4.69130   23.29804    8.45034
      C   C1     2.98526    8.45034   21.59199
      C   C1     2.98526   17.83296    4.69131
      C   C1    23.29804    8.45034    4.69131
      C   C1    23.29804   17.83296   21.59199
      C   C1    21.59199   17.83296   23.29804
      C   C1     4.69130    8.45034   23.29804
      C   C1     4.69131   17.83296    2.98526
      C   C1    21.59199    8.45034    2.98526
      C   C1    23.29804   21.59199   17.83296
      C   C1    23.29804    4.69131    8.45034
      C   C1     2.98526    4.69131   17.83296
      C   C1     2.98526   21.59199    8.45034
      C   C1    17.83296   23.29804   21.59199
      C   C1     8.45034   23.29804    4.69131
      C   C1    17.83296    2.98526    4.69131
      C   C1     8.45034    2.98526   21.59199
      C   C1    17.83296   21.59199    2.98526
      C   C1     8.45034    4.69131    2.98526
      C   C1    17.83296    4.69131   23.29804
      C   C1     8.45034   21.59199   23.29804
      C   C1    21.59199   23.29804    8.45034
      C   C1     4.69130   23.29804   17.83296
      C   C1     4.69131    2.98526    8.45034
      C   C1    21.59199    2.98526   17.83296
      C   C1    23.29804   17.83296    4.69131
      C   C1    23.29804    8.45034   21.59199
      C   C1     2.98526   17.83296   21.59199
      C   C1     2.98526    8.45034    4.69131
      C   C1     4.69130   21.59199   16.12691
      C   C1    21.59199    4.69131   16.12691
      C   C1    21.59199   21.59199   10.15639
      C   C1     4.69131    4.69131   10.15639
      C   C1     8.45034   16.12691   17.83296
      C   C1    17.83296   16.12691    8.45034
      C   C1     8.45034   10.15639    8.45034
      C   C1    17.83296   10.15639   17.83296
      C   C1     8.45034   17.83296   10.15639
      C   C1    17.83296    8.45034   10.15639
      C   C1     8.45034    8.45034   16.12691
      C   C1    17.83296   17.83296   16.12691
      C   C1     4.69131   16.12691    4.69131
      C   C1    21.59199   16.12691   21.59199
      C   C1    21.59199   10.15639    4.69131
      C   C1     4.69130   10.15639   21.59199
      C   C1    21.59199    4.69131   10.15639
      C   C1     4.69130   21.59199   10.15639
      C   C1     4.69131    4.69131   16.12691
      C   C1    21.59199   21.59199   16.12691
      C   C1    17.83296   10.15639    8.45034
      C   C1     8.45034   10.15639   17.83296
      C   C1    17.83296   16.12691   17.83296
      C   C1     8.45034   16.12691    8.45034
      C   C1    17.83296    8.45034   16.12691
      C   C1     8.45034   17.83296   16.12691
      C   C1    17.83296   17.83296   10.15639
      C   C1     8.45034    8.45034   10.15639
      C   C1    21.59199   10.15639   21.59199
      C   C1     4.69131   10.15639    4.69131
      C   C1     4.69130   16.12691   21.59199
      C   C1    21.59199   16.12691    4.69131
      C   C1    16.12691    4.69131   21.59199
      C   C1    16.12691   21.59199    4.69131
      C   C1    10.15639   21.59199   21.59199
      C   C1    10.15639    4.69131    4.69131
      C   C1    16.12691    8.45034    8.45034
      C   C1    16.12691   17.83296   17.83296
      C   C1    10.15639    8.45034   17.83296
      C   C1    10.15639   17.83296    8.45034
      C   C1    10.15639   21.59199    4.69131
      C   C1    10.15639    4.69131   21.59199
      C   C1    16.12691    4.69131    4.69131
      C   C1    16.12691   21.59199   21.59199
      C   C1    10.15639   17.83296   17.83296
      C   C1    10.15639    8.45034    8.45034
      C   C1    16.12691   17.83296    8.45034
      C   C1    16.12691    8.45034   17.83296
      C   C2    20.93386   18.49109    1.81381
      C   C2    20.93386    7.79221   24.46949
      C   C2     5.34944   18.49109   24.46949
      C   C2     1.81381    5.34944    7.79221
      C   C2     1.81381   20.93386   18.49109
      C   C2    24.46949   20.93386    7.79221
      C   C2    24.46949    5.34944   18.49109
      C   C2     7.79221    1.81381    5.34944
      C   C2    18.49109    1.81381   20.93386
      C   C2     7.79221   24.46949   20.93386
      C   C2    18.49109   24.46949    5.34944
      C   C2     7.79221    5.34944   24.46949
      C   C2    18.49109   20.93386   24.46949
      C   C2     7.79221   20.93386    1.81381
      C   C2    18.49109    5.34944    1.81381
      C   C2     5.34944    1.81381   18.49109
      C   C2    20.93386    1.81381    7.79221
      C   C2    20.93386   24.46949   18.49109
      C   C2     5.34944   24.46949    7.79221
      C   C2     1.81381    7.79221   20.93386
      C   C2     1.81381   18.49109    5.34944
      C   C2    24.46949    7.79221    5.34944
      C   C2    24.46949   18.49109   20.93386
      C   C2    20.93386   18.49109   24.46949
      C   C2     5.34944    7.79221   24.46949
      C   C2     5.34944   18.49109    1.81381
      C   C2    20.93386    7.79221    1.81381
      C   C2    24.46949   20.93386   18.49109
      C   C2    24.46949    5.34944    7.79221
      C   C2     1.81381    5.34944   18.49109
      C   C2     1.81381   20.93386    7.79221
      C   C2    18.49109   24.46949   20.93386
      C   C2     7.79221   24.46949    5.34944
      C   C2    18.49109    1.81381    5.34944
      C   C2     7.79221    1.81381   20.93386
      C   C2    18.49109   20.93386    1.81381
      C   C2     7.79221    5.34944    1.81381
      C   C2    18.49109    5.34944   24.46949
      C   C2     7.79221   20.93386   24.46949
      C   C2    20.93386   24.46949    7.79221
      C   C2     5.34944   24.46949   18.49109
      C   C2     5.34944    1.81381    7.79221
      C   C2    20.93386    1.81381   18.49109
      C   C2    24.46949   18.49109    5.34944
      C   C2    24.46949    7.79221   20.93386
      C   C2     1.81381   18.49109   20.93386
      C   C2     1.81381    7.79221    5.34944
      C   C2     5.34944   20.93386   14.95546
      C   C2    20.93386    5.34944   14.95546
      C   C2    20.93386   20.93386   11.32784
      C   C2     5.34944    5.34944   11.32784
      C   C2     7.79221   14.95546   18.49109
      C   C2    18.49109   14.95546    7.79221
      C   C2     7.79221   11.32784    7.79221
      C   C2    18.49109   11.32784   18.49109
      C   C2     7.79221   18.49109   11.32784
      C   C2    18.49109    7.79221   11.32784
      C   C2     7.79221    7.79221   14.95546
      C   C2    18.49109   18.49109   14.95546
      C   C2     5.34944   14.95546    5.34944
      C   C2    20.93386   14.95546   20.93386
      C   C2    20.93386   11.32784    5.34944
      C   C2     5.34944   11.32784   20.93386
      C   C2    20.93386    5.34944   11.32784
      C   C2     5.34944   20.93386   11.32784
      C   C2     5.34944    5.34944   14.95546
      C   C2    20.93386   20.93386   14.95546
      C   C2    18.49109   11.32784    7.79221
      C   C2     7.79221   11.32784   18.49109
      C   C2    18.49109   14.95546   18.49109
      C   C2     7.79221   14.95546    7.79221
      C   C2    18.49109    7.79221   14.95546
      C   C2     7.79221   18.49109   14.95546
      C   C2    18.49109   18.49109   11.32784
      C   C2     7.79221    7.79221   11.32784
      C   C2    20.93386   11.32784   20.93386
      C   C2     5.34944   11.32784    5.34944
      C   C2     5.34944   14.95546   20.93386
      C   C2    20.93386   14.95546    5.34944
      C   C2    14.95546    5.34944   20.93386
      C   C2    14.95546   20.93386    5.34944
      C   C2    11.32784   20.93386   20.93386
      C   C2    11.32784    5.34944    5.34944
      C   C2    14.95546    7.79221    7.79221
      C   C2    14.95546   18.49109   18.49109
      C   C2    11.32784    7.79221   18.49109
      C   C2    11.32784   18.49109    7.79221
      C   C2    11.32784   20.93386    5.34944
      C   C2    11.32784    5.34944   20.93386
      C   C2    14.95546    5.34944    5.34944
      C   C2    14.95546   20.93386   20.93386
      C   C2    11.32784   18.49109   18.49109
      C   C2    11.32784    7.79221    7.79221
      C   C2    14.95546   18.49109    7.79221
      C   C2    14.95546    7.79221   18.49109
      C   C3    22.73111   18.39778    3.55219
      C   C3    22.73111    7.88551   22.73111
      C   C3     3.55219   18.39778   22.73111
      C   C3     3.55219    3.55219    7.88552
      C   C3     3.55219   22.73111   18.39778
      C   C3    22.73111   22.73111    7.88552
      C   C3    22.73111    3.55219   18.39778
      C   C3     7.88552    3.55219    3.55219
      C   C3    18.39778    3.55219   22.73111
      C   C3     7.88551   22.73111   22.73111
      C   C3    18.39778   22.73111    3.55219
      C   C3     7.88551    3.55219   22.73111
      C   C3    18.39778   22.73111   22.73111
      C   C3     7.88551   22.73111    3.55219
      C   C3    18.39778    3.55219    3.55219
      C   C3     3.55219    3.55219   18.39778
      C   C3    22.73111    3.55219    7.88552
      C   C3    22.73111   22.73111   18.39778
      C   C3     3.55219   22.73111    7.88552
      C   C3     3.55219    7.88551   22.73111
      C   C3     3.55219   18.39778    3.55219
      C   C3    22.73111    7.88552    3.55219
      C   C3    22.73111   18.39778   22.73111
      C   C3     3.55219   21.02717   16.69384
      C   C3    22.73111    5.25613   16.69384
      C   C3    22.73111   21.02717    9.58946
      C   C3     3.55219    5.25613    9.58946
      C   C3     3.55219   16.69384   21.02717
      C   C3     3.55219    9.58946    5.25613
      C   C3    22.73111    9.58946   21.02717
      C   C3    22.73111   16.69384    5.25613
      C   C3     7.88551   16.69384   16.69384
      C   C3    18.39778   16.69384    9.58946
      C   C3     7.88552    9.58946    9.58946
      C   C3    18.39778    9.58946   16.69384
      C   C3     7.88551   16.69384    9.58946
      C   C3    18.39778    9.58946    9.58946
      C   C3     7.88551    9.58946   16.69384
      C   C3    18.39778   16.69384   16.69384
      C   C3     3.55219   16.69384    5.25613
      C   C3    22.73111   16.69384   21.02717
      C   C3    22.73111    9.58946    5.25613
      C   C3     3.55219    9.58946   21.02717
      C   C3     3.55219   21.02717    9.58946
      C   C3     3.55219    5.25613   16.69384
      C   C3    22.73111   21.02717   16.69384
      C   C3    22.73111    5.25613    9.58946
      C   C3    16.69384    7.88552   16.69384
      C   C3     9.58946   18.39778   16.69384
      C   C3     9.58946    7.88552    9.58946
      C   C3    16.69384   18.39778    9.58946
      C   C3    16.69384    3.55219   21.02717
      C   C3    16.69384   22.73111    5.25613
      C   C3     9.58946   22.73111   21.02717
      C   C3     9.58946    3.55219    5.25613
      C   C3    21.02717    3.55219   16.69384
      C   C3     5.25613    3.55219    9.58946
      C   C3    21.02716   22.73111    9.58946
      C   C3     5.25613   22.73111   16.69384
      C   C3    21.02717    3.55219    9.58946
      C   C3     5.25613   22.73111    9.58946
      C   C3    21.02716   22.73111   16.69384
      C   C3     5.25613    3.55219   16.69384
      C   C3    16.69384    3.55219    5.25613
      C   C3     9.58946    3.55219   21.02717
      C   C3     9.58946   22.73111    5.25613
      C   C3    16.69384   22.73111   21.02717
      C   C3    16.69384    7.88552    9.58946
      C   C3    16.69384   18.39778   16.69384
      C   C3     9.58946    7.88552   16.69384
      C   C3     9.58946   18.39778    9.58946
      C   C3    16.69384   21.02717    3.55219
      C   C3     9.58946    5.25613    3.55219
      C   C3     9.58946   21.02717   22.73111
      C   C3    16.69384    5.25613   22.73111
      C   C3    16.69384   16.69384    7.88552
      C   C3    16.69384    9.58946   18.39778
      C   C3     9.58946    9.58946    7.88552
      C   C3     9.58946   16.69384   18.39778
      C   C3    21.02717   16.69384    3.55219
      C   C3     5.25613   16.69384   22.73111
      C   C3    21.02716    9.58946   22.73111
      C   C3     5.25613    9.58946    3.55219
      C   C3    21.02716   16.69384   22.73111
      C   C3     5.25613    9.58946   22.73111
      C   C3    21.02717    9.58946    3.55219
      C   C3     5.25613   16.69384    3.55219
      C   C3    16.69384   16.69384   18.39778
      C   C3     9.58946   16.69384    7.88552
      C   C3     9.58946    9.58946   18.39778
      C   C3    16.69384    9.58946    7.88552
      C   C3    16.69384   21.02717   22.73111
      C   C3    16.69384    5.25613    3.55219
      C   C3     9.58946   21.02717    3.55219
      C   C3     9.58946    5.25613   22.73111
      H   H1    23.12142   19.17104    3.16188
      H   H1    23.12142    7.11226   23.12142
      H   H1     3.16188   19.17104   23.12142
      H   H1     3.16188    3.16188    7.11226
      H   H1     3.16188   23.12142   19.17104
      H   H1    23.12142   23.12142    7.11226
      H   H1    23.12142    3.16188   19.17104
      H   H1     7.11226    3.16188    3.16188
      H   H1    19.17104    3.16188   23.12142
      H   H1     7.11226   23.12142   23.12142
      H   H1    19.17104   23.12142    3.16188
      H   H1     7.11226    3.16188   23.12142
      H   H1    19.17104   23.12142   23.12142
      H   H1     7.11226   23.12142    3.16188
      H   H1    19.17104    3.16188    3.16188
      H   H1     3.16188    3.16188   19.17104
      H   H1    23.12142    3.16188    7.11226
      H   H1    23.12142   23.12142   19.17104
      H   H1     3.16188   23.12142    7.11226
      H   H1     3.16188    7.11226   23.12142
      H   H1     3.16188   19.17104    3.16188
      H   H1    23.12142    7.11226    3.16188
      H   H1    23.12142   19.17104   23.12142
      H   H1     3.16188   20.25391   16.30353
      H   H1    23.12142    6.02939   16.30353
      H   H1    23.12142   20.25391    9.97977
      H   H1     3.16188    6.02939    9.97977
      H   H1     3.16188   16.30353   20.25391
      H   H1     3.16188    9.97977    6.02939
      H   H1    23.12142    9.97977   20.25391
      H   H1    23.12142   16.30353    6.02939
      H   H1     7.11226   16.30353   16.30353
      H   H1    19.17104   16.30353    9.97977
      H   H1     7.11226    9.97977    9.97977
      H   H1    19.17104    9.97977   16.30353
      H   H1     7.11226   16.30353    9.97977
      H   H1    19.17104    9.97977    9.97977
      H   H1     7.11226    9.97977   16.30353
      H   H1    19.17104   16.30353   16.30353
      H   H1     3.16188   16.30353    6.02939
      H   H1    23.12142   16.30353   20.25391
      H   H1    23.12142    9.97977    6.02939
      H   H1     3.16188    9.97977   20.25391
      H   H1     3.16188   20.25391    9.97977
      H   H1     3.16188    6.02939   16.30353
      H   H1    23.12142   20.25391   16.30353
      H   H1    23.12142    6.02939    9.97977
      H   H1    16.30353    7.11226   16.30353
      H   H1     9.97977   19.17104   16.30353
      H   H1     9.97977    7.11226    9.97977
      H   H1    16.30353   19.17104    9.97977
      H   H1    16.30353    3.16188   20.25391
      H   H1    16.30353   23.12142    6.02939
      H   H1     9.97977   23.12142   20.25391
      H   H1     9.97977    3.16188    6.02939
      H   H1    20.25391    3.16188   16.30353
      H   H1     6.02939    3.16188    9.97977
      H   H1    20.25391   23.12142    9.97977
      H   H1     6.02939   23.12142   16.30353
      H   H1    20.25391    3.16188    9.97977
      H   H1     6.02939   23.12142    9.97977
      H   H1    20.25391   23.12142   16.30353
      H   H1     6.02939    3.16188   16.30353
      H   H1    16.30353    3.16188    6.02939
      H   H1     9.97977    3.16188   20.25391
      H   H1     9.97977   23.12142    6.02939
      H   H1    16.30353   23.12142   20.25391
      H   H1    16.30353    7.11226    9.97977
      H   H1    16.30353   19.17104   16.30353
      H   H1     9.97977    7.11226   16.30353
      H   H1     9.97977   19.17104    9.97977
      H   H1    16.30353   20.25391    3.16188
      H   H1     9.97977    6.02939    3.16188
      H   H1     9.97977   20.25391   23.12142
      H   H1    16.30353    6.02939   23.12142
      H   H1    16.30353   16.30353    7.11226
      H   H1    16.30353    9.97977   19.17104
      H   H1     9.97977    9.97977    7.11226
      H   H1     9.97977   16.30353   19.17104
      H   H1    20.25391   16.30353    3.16188
      H   H1     6.02939   16.30353   23.12142
      H   H1    20.25391    9.97977   23.12142
      H   H1     6.02939    9.97977    3.16188
      H   H1    20.25391   16.30353   23.12142
      H   H1     6.02939    9.97977   23.12142
      H   H1    20.25391    9.97977    3.16188
      H   H1     6.02939   16.30353    3.16188
      H   H1    16.30353   16.30353   19.17104
      H   H1     9.97977   16.30353    7.11226
      H   H1     9.97977    9.97977   19.17104
      H   H1    16.30353    9.97977    7.11226
      H   H1    16.30353   20.25391   23.12142
      H   H1    16.30353    6.02939    3.16188
      H   H1     9.97977   20.25391    3.16188
      H   H1     9.97977    6.02939   23.12142
