
#######################################################################
#
#                 Cambridge Crystallographic Data Centre
#                                CCDC 
#
#######################################################################
#
# If this CIF has been generated from an entry in the Cambridge 
# Structural Database, then it will include bibliographic, chemical, 
# crystal, experimental, refinement or atomic coordinate data resulting 
# from the CCDC's data processing and validation procedures.
#
#######################################################################

data_casdb
_symmetry_cell_setting           monoclinic
_symmetry_space_group_name_H-M   'P 21/n'
_symmetry_Int_Tables_number      14
_space_group_name_Hall           '-P 2yn'

_cell_length_a                   11.8214(3)
_cell_length_b                   5.56730(13)
_cell_length_c                   22.7603(5)
_cell_angle_alpha                90.00
_cell_angle_beta                 100.356(2)
_cell_angle_gamma                90.00
_cell_volume                     1473.53
loop_
_atom_site_label
_atom_site_type_symbol
_atom_site_fract_x
_atom_site_fract_y
_atom_site_fract_z
Ca1 Ca 0.36318(3) 0.24415(5) 0.277126(14)
S1 S 0.60165(3) 0.03637(7) 0.392320(16)
O6 O 0.50690(10) 0.1950(2) 0.36904(5)
O1 O 0.73774(11) 0.0848(2) 0.69064(5)
O5 O 0.58466(12) -0.2189(2) 0.38824(6)
O3 O 1.01577(12) 0.4743(2) 0.25622(6)
O4 O 1.04305(12) 0.0809(2) 0.24715(7)
C4 C 0.99546(14) 0.2586(3) 0.26511(8)
C4A C 0.72326(14) 0.2607(3) 0.65507(7)
C6 C 0.64494(14) 0.1092(3) 0.46864(7)
C7 C 0.71894(14) 0.1104(3) 0.35781(7)
C8 C 0.80704(16) -0.0567(3) 0.36004(8)
H8 H 0.8055 -0.1996 0.3811
C9 C 0.72975(17) -0.0114(3) 0.56772(8)
H9 H 0.7682 -0.1249 0.5939
C10 C 0.69872(14) 0.2073(3) 0.58931(7)
C11 C 0.61656(16) 0.3313(3) 0.48920(8)
H11 H 0.5794 0.4459 0.4628
C12 C 0.72051(15) 0.3272(3) 0.32810(8)
H12 H 0.6612 0.4377 0.3271
C13 C 0.81276(15) 0.3756(3) 0.29975(8)
H13 H 0.8161 0.5217 0.2803
C14 C 0.89738(16) -0.0071(3) 0.33040(9)
H14 H 0.9561 -0.1186 0.3309
C15 C 0.70345(18) -0.0610(3) 0.50695(8)
H15 H 0.7249 -0.2066 0.4922
C16 C 0.90018(14) 0.2083(3) 0.30006(7)
C17 C 0.64454(16) 0.3796(3) 0.54979(8)
H17 H 0.6269 0.5287 0.5642
O2 O 0.73242(11) 0.4749(2) 0.67168(6)

#END
