data_functionalizedCrystal
_audit_creation_method	'EQeq! by Chris Wilmer'
_symmetry_space_group_name_H-M	'P1'
_symmetry_Int_Tables_number	1
_symmetry_cell_setting	triclinic
loop_
_symmetry_equiv_pos_as_xyz
  x,y,z
_cell_length_a	39.97
_cell_length_b	40
_cell_length_c	33.16
_cell_angle_alpha	90
_cell_angle_beta	90
_cell_angle_gamma	120
loop_
_atom_site_label
_atom_site_type_symbol
_atom_site_fract_x
_atom_site_fract_y
_atom_site_fract_z
_atom_site_charge
C 	C 	0.48232	0.83626	0.91686	0.057
C 	C 	0.51988	0.16457	0.91505	0.058
C 	C 	0.35383	0.83638	0.9165	0.055
C 	C 	0.64356	0.16356	0.91396	0.055
C 	C 	0.51013	0.87489	0.90938	-0.159
C 	C 	0.49329	0.12575	0.90657	-0.159
C 	C 	0.36518	0.87506	0.90838	-0.155
C 	C 	0.63222	0.12494	0.90573	-0.155
C 	C 	0.53578	0.88346	0.87708	0.056
C 	C 	0.46629	0.11703	0.87554	0.055
C 	C 	0.34687	0.88332	0.87702	0.053
C 	C 	0.65065	0.11668	0.87452	0.053
C 	C 	0.5334	0.8541	0.8525	-0.089
C 	C 	0.46645	0.14644	0.85299	-0.09
C 	C 	0.31862	0.85376	0.85368	-0.089
C 	C 	0.67917	0.14633	0.85145	-0.089
C 	C 	0.50551	0.81522	0.85968	0.051
C 	C 	0.49367	0.18544	0.86059	0.053
C 	C 	0.30759	0.81487	0.86107	0.052
C 	C 	0.69029	0.18519	0.85905	0.052
C 	C 	0.48018	0.80693	0.89249	-0.088
C 	C 	0.51994	0.1939	0.89249	-0.089
C 	C 	0.32542	0.80685	0.89328	-0.087
C 	C 	0.67226	0.19321	0.8911	-0.087
H 	H 	0.46241	0.82983	0.94177	0.032
H 	H 	0.5405	0.1711	0.93932	0.032
H 	H 	0.36792	0.83009	0.94092	0.033
H 	H 	0.62937	0.16974	0.93839	0.033
H 	H 	0.55705	0.91345	0.87114	0.025
H 	H 	0.44541	0.08701	0.86948	0.024
H 	H 	0.35577	0.91331	0.87078	0.025
H 	H 	0.64227	0.08678	0.86864	0.025
H 	H 	0.55335	0.86138	0.82738	0.054
H 	H 	0.44544	0.13917	0.82889	0.054
H 	H 	0.30518	0.86086	0.82922	0.054
H 	H 	0.69301	0.13937	0.82726	0.054
H 	H 	0.4584	0.77717	0.89876	0.053
H 	H 	0.54089	0.22381	0.89937	0.053
H 	H 	0.31714	0.77706	0.89991	0.053
H 	H 	0.68058	0.22294	0.89786	0.053
C 	C 	0.5199	0.16348	0.08562	0.053
C 	C 	0.48273	0.83629	0.08338	0.052
C 	C 	0.64491	0.16466	0.08465	0.056
C 	C 	0.35341	0.83595	0.08293	0.054
C 	C 	0.49261	0.12488	0.09397	-0.163
C 	C 	0.51008	0.87495	0.09162	-0.162
C 	C 	0.63258	0.12586	0.09331	-0.167
C 	C 	0.3643	0.8746	0.09056	-0.166
C 	C 	0.46591	0.11662	0.12521	0.052
C 	C 	0.5367	0.88309	0.12292	0.052
C 	C 	0.65089	0.11714	0.12428	0.055
C 	C 	0.34698	0.883	0.1228	0.054
C 	C 	0.46712	0.14633	0.14819	-0.092
C 	C 	0.53532	0.85344	0.14611	-0.092
C 	C 	0.68024	0.14656	0.14674	-0.094
C 	C 	0.31994	0.85355	0.14723	-0.092
C 	C 	0.49488	0.18513	0.14053	0.051
C 	C 	0.50742	0.81458	0.13866	0.052
C 	C 	0.69212	0.18556	0.13902	0.054
C 	C 	0.30906	0.8147	0.14002	0.052
C 	C 	0.52087	0.19315	0.10844	-0.092
C 	C 	0.48158	0.80664	0.10642	-0.091
C 	C 	0.67429	0.19402	0.10715	-0.093
C 	C 	0.32617	0.80656	0.10718	-0.092
H 	H 	0.54027	0.16963	0.06119	0.023
H 	H 	0.4624	0.83011	0.05896	0.023
H 	H 	0.63079	0.17113	0.0604	0.022
H 	H 	0.36699	0.82962	0.05802	0.022
H 	H 	0.44441	0.08675	0.13106	0.021
H 	H 	0.55784	0.91305	0.12931	0.022
H 	H 	0.64163	0.08709	0.13043	0.021
H 	H 	0.35567	0.91296	0.12886	0.023
H 	H 	0.44632	0.13937	0.17238	0.052
H 	H 	0.55588	0.86043	0.1706	0.052
H 	H 	0.69396	0.13929	0.17078	0.052
H 	H 	0.3072	0.86074	0.17232	0.052
H 	H 	0.5423	0.22289	0.10172	0.048
H 	H 	0.46004	0.77688	0.09967	0.048
H 	H 	0.68329	0.2239	0.10021	0.048
H 	H 	0.31819	0.7768	0.10081	0.048
Zr	Zr	0.53614	0.07228	-0	3.204
Zr	Zr	0.54671	0.99919	0.94855	3.207
Zr	Zr	0.5431	0.00078	0.05676	3.204
Zr	Zr	0.45244	0.9991	0.0516	3.202
Zr	Zr	0.46371	0.92743	0.00018	3.203
Zr	Zr	0.45765	0.00072	0.94337	3.204
O 	O 	0.52155	0.96937	0.00163	-1.417
O 	O 	0.48181	0.8959	0.04297	-0.665
O 	O 	0.41171	0.8959	0.03984	-0.676
O 	O 	0.48422	0.89602	0.9604	-0.653
O 	O 	0.53708	0.94071	0.92702	-0.654
O 	O 	0.53463	0.00121	0.88025	-0.715
O 	O 	0.59021	0.05883	0.92048	-0.634
O 	O 	0.46977	0.05964	0.91975	-0.657
O 	O 	0.58722	0.10395	0.95887	-0.641
O 	O 	0.51913	0.10433	0.95733	-0.658
O 	O 	0.58522	0.10436	0.04264	-0.676
O 	O 	0.5167	0.10387	0.04101	-0.667
O 	O 	0.46861	0.05877	0.07949	-0.644
O 	O 	0.58986	0.05973	0.08028	-0.661
O 	O 	0.51408	0.03069	0.04475	-1.406
O 	O 	0.57212	0.04013	0.00178	-1.198
O 	O 	0.59891	0.00052	0.96191	-0.726
O 	O 	0.59842	0.99838	0.04122	-0.72
O 	O 	0.39991	0.99833	0.95893	-0.721
O 	O 	0.51665	0.03072	0.95528	-1.389
O 	O 	0.48139	0.9597	0.93733	-1.174
O 	O 	0.40488	0.94085	0.92618	-0.635
O 	O 	0.46794	0.99942	0.88118	-0.743
O 	O 	0.41414	0.8959	0.95736	-0.648
O 	O 	0.5315	0.99951	0.11897	-0.743
O 	O 	0.46657	0.00124	0.11984	-0.717
O 	O 	0.47831	0.9597	0.06288	-1.188
O 	O 	0.53605	0.94085	0.07413	-0.637
O 	O 	0.40345	0.9405	0.07322	-0.663
O 	O 	0.40154	0.00038	0.03827	-0.762
O 	O 	0.46797	0.04004	0.99828	-1.173
O 	O 	0.44779	0.96931	0.99858	-1.381
C 	C 	0.39687	0.90635	0.93254	0.492
C 	C 	0.51074	0.90621	0.93423	0.501
C 	C 	0.50959	0.90632	0.0677	0.491
C 	C 	0.60015	0.09425	0.07042	0.504
C 	C 	0.49257	0.09344	0.06978	0.493
C 	C 	0.49407	0.09419	0.92955	0.5
C 	C 	0.39522	0.90601	0.06592	0.5
C 	C 	0.60088	0.0935	0.93004	0.491
H 	H 	0.45694	0.05664	0.99867	0.317
H 	H 	0.473	0.94359	0.91363	0.305
H 	H 	0.59251	0.97278	0.04922	0.207
H 	H 	0.60122	0.99939	0.01077	0.203
H 	H 	0.37921	0.97855	0.04979	0.21
H 	H 	0.49149	0.00049	0.12256	0.214
H 	H 	0.55194	0.02151	0.13263	0.21
H 	H 	0.47264	0.02682	0.12823	0.21
H 	H 	0.59974	0.05672	0.00133	0.304
H 	H 	0.4706	0.94359	0.08658	0.308
H 	H 	0.5995	0.97875	0.95033	0.215
H 	H 	0.39809	0.99928	0.98938	0.227
H 	H 	0.3802	0.97272	0.95097	0.217
H 	H 	0.55416	0.02679	0.87186	0.209
H 	H 	0.46951	0.02142	0.86752	0.211
H 	H 	0.50897	0.00043	0.87756	0.213
C 	C 	0.83615	0.35394	0.91686	0.056
C 	C 	0.1647	0.6447	0.91505	0.057
C 	C 	0.83626	0.48246	0.9165	0.054
C 	C 	0.16368	0.52011	0.91396	0.054
C 	C 	0.87477	0.36477	0.90938	-0.16
C 	C 	0.12585	0.63246	0.90657	-0.16
C 	C 	0.87497	0.50977	0.90838	-0.157
C 	C 	0.12502	0.4928	0.90573	-0.156
C 	C 	0.88337	0.34771	0.87708	0.055
C 	C 	0.11711	0.6507	0.87554	0.055
C 	C 	0.88323	0.53633	0.87702	0.053
C 	C 	0.11676	0.46615	0.87452	0.053
C 	C 	0.85397	0.32072	0.8525	-0.089
C 	C 	0.14656	0.67995	0.85299	-0.09
C 	C 	0.85364	0.535	0.85368	-0.089
C 	C 	0.14642	0.46728	0.85145	-0.089
C 	C 	0.81507	0.30972	0.85968	0.051
C 	C 	0.18558	0.69178	0.86059	0.053
C 	C 	0.81473	0.50714	0.86107	0.052
C 	C 	0.18532	0.49502	0.85905	0.052
C 	C 	0.80678	0.32675	0.89249	-0.088
C 	C 	0.19403	0.67397	0.89249	-0.089
C 	C 	0.80671	0.48131	0.89328	-0.088
C 	C 	0.19335	0.52106	0.8911	-0.087
H 	H 	0.8297	0.3674	0.94177	0.032
H 	H 	0.17123	0.63061	0.93932	0.032
H 	H 	0.82996	0.46208	0.94092	0.033
H 	H 	0.16986	0.54046	0.93839	0.033
H 	H 	0.91337	0.35643	0.87114	0.025
H 	H 	0.08707	0.64155	0.86948	0.024
H 	H 	0.91325	0.55743	0.87078	0.025
H 	H 	0.08682	0.44462	0.86864	0.025
H 	H 	0.86124	0.30805	0.82738	0.054
H 	H 	0.13926	0.69366	0.82889	0.054
H 	H 	0.86075	0.55556	0.82922	0.054
H 	H 	0.13945	0.44649	0.82726	0.054
H 	H 	0.77701	0.31876	0.89876	0.053
H 	H 	0.22399	0.68295	0.89937	0.053
H 	H 	0.77691	0.4598	0.89991	0.053
H 	H 	0.22312	0.54251	0.89786	0.053
C 	C 	0.16362	0.6436	0.08562	0.053
C 	C 	0.83617	0.35354	0.08338	0.053
C 	C 	0.16477	0.51985	0.08465	0.056
C 	C 	0.83584	0.48243	0.08293	0.054
C 	C 	0.12497	0.63226	0.09397	-0.163
C 	C 	0.87485	0.36489	0.09162	-0.162
C 	C 	0.12596	0.49337	0.09331	-0.167
C 	C 	0.87451	0.5102	0.09056	-0.166
C 	C 	0.11674	0.6507	0.12521	0.052
C 	C 	0.88301	0.34644	0.12292	0.052
C 	C 	0.11722	0.46635	0.12428	0.055
C 	C 	0.88292	0.53593	0.1228	0.054
C 	C 	0.14643	0.67919	0.14819	-0.092
C 	C 	0.85331	0.31815	0.14611	-0.092
C 	C 	0.14666	0.46644	0.14674	-0.094
C 	C 	0.85343	0.53347	0.14723	-0.092
C 	C 	0.18529	0.69025	0.14053	0.052
C 	C 	0.81444	0.30715	0.13866	0.053
C 	C 	0.1857	0.49358	0.13902	0.054
C 	C 	0.81457	0.50553	0.14002	0.052
C 	C 	0.19329	0.6723	0.10844	-0.092
C 	C 	0.80648	0.32505	0.10642	-0.092
C 	C 	0.19414	0.51985	0.10715	-0.093
C 	C 	0.8064	0.48024	0.10718	-0.092
H 	H 	0.16978	0.6294	0.06119	0.023
H 	H 	0.82999	0.36769	0.05896	0.023
H 	H 	0.17124	0.54043	0.0604	0.022
H 	H 	0.82949	0.46254	0.05802	0.022
H 	H 	0.08682	0.6423	0.13106	0.022
H 	H 	0.91298	0.35524	0.12931	0.022
H 	H 	0.08715	0.44557	0.13043	0.022
H 	H 	0.91291	0.5572	0.12886	0.023
H 	H 	0.13949	0.69302	0.17238	0.052
H 	H 	0.86033	0.30461	0.1706	0.052
H 	H 	0.1394	0.44548	0.17078	0.053
H 	H 	0.86066	0.55342	0.17232	0.052
H 	H 	0.22307	0.68061	0.10172	0.048
H 	H 	0.77672	0.31682	0.09967	0.048
H 	H 	0.22407	0.54075	0.10021	0.048
H 	H 	0.77664	0.45847	0.10081	0.048
Zr	Zr	0.07233	0.53616	-0	3.204
Zr	Zr	0.99919	0.45253	0.94855	3.207
Zr	Zr	0.00079	0.45772	0.05676	3.204
Zr	Zr	0.9991	0.54661	0.0516	3.202
Zr	Zr	0.92737	0.4637	0.00018	3.203
Zr	Zr	0.00073	0.54306	0.94337	3.204
O 	O 	0.96936	0.44782	0.00163	-1.416
O 	O 	0.89583	0.41408	0.04297	-0.665
O 	O 	0.89583	0.48411	0.03984	-0.676
O 	O 	0.89594	0.4118	0.9604	-0.653
O 	O 	0.94064	0.40363	0.92702	-0.654
O 	O 	0.00121	0.46661	0.88025	-0.716
O 	O 	0.05889	0.46869	0.92048	-0.633
O 	O 	0.05969	0.58985	0.91975	-0.657
O 	O 	0.10402	0.51679	0.95887	-0.642
O 	O 	0.1044	0.5852	0.95733	-0.658
O 	O 	0.10443	0.51921	0.04264	-0.675
O 	O 	0.10395	0.58719	0.04101	-0.667
O 	O 	0.05881	0.59014	0.07949	-0.644
O 	O 	0.05976	0.46993	0.08028	-0.661
O 	O 	0.03073	0.51661	0.04475	-1.406
O 	O 	0.04016	0.46806	0.00178	-1.198
O 	O 	0.00052	0.40169	0.96191	-0.726
O 	O 	0.9984	0.40005	0.04122	-0.719
O 	O 	0.99834	0.59834	0.95893	-0.721
O 	O 	0.03073	0.51407	0.95528	-1.389
O 	O 	0.95967	0.47831	0.93733	-1.174
O 	O 	0.94083	0.5359	0.92618	-0.635
O 	O 	0.99944	0.53148	0.88118	-0.743
O 	O 	0.89583	0.48171	0.95736	-0.649
O 	O 	0.99951	0.46803	0.11897	-0.743
O 	O 	0.00125	0.53466	0.11984	-0.718
O 	O 	0.95968	0.48137	0.06288	-1.188
O 	O 	0.9408	0.40484	0.07413	-0.637
O 	O 	0.94045	0.53699	0.07322	-0.663
O 	O 	0.00039	0.59877	0.03827	-0.761
O 	O 	0.04007	0.57204	0.99828	-1.173
O 	O 	0.9693	0.52149	0.99858	-1.381
C 	C 	0.90628	0.5094	0.93254	0.492
C 	C 	0.90613	0.39546	0.93423	0.5
C 	C 	0.90624	0.39673	0.0677	0.492
C 	C 	0.09432	0.49415	0.07042	0.503
C 	C 	0.09349	0.60085	0.06978	0.493
C 	C 	0.09426	0.60013	0.92955	0.5
C 	C 	0.90594	0.51072	0.06592	0.499
C 	C 	0.09358	0.49271	0.93004	0.491
H 	H 	0.05667	0.59966	0.99867	0.317
H 	H 	0.94354	0.47057	0.91363	0.304
H 	H 	0.97274	0.38033	0.04922	0.206
H 	H 	0.99938	0.39826	0.01077	0.203
H 	H 	0.97854	0.59926	0.04979	0.21
H 	H 	0.00051	0.50902	0.12256	0.214
H 	H 	0.02151	0.46959	0.13263	0.211
H 	H 	0.02683	0.55417	0.12823	0.21
H 	H 	0.05677	0.45706	0.00133	0.304
H 	H 	0.94354	0.47297	0.08658	0.307
H 	H 	0.97872	0.37932	0.95033	0.215
H 	H 	0.99928	0.60111	0.98938	0.227
H 	H 	0.97269	0.59242	0.95097	0.216
H 	H 	0.02679	0.47265	0.87186	0.21
H 	H 	0.02144	0.55189	0.86752	0.211
H 	H 	0.00044	0.49147	0.87756	0.214
C 	C 	0.51775	0.35397	0.08314	0.055
C 	C 	0.48004	0.64467	0.08495	0.056
C 	C 	0.64622	0.48252	0.0835	0.053
C 	C 	0.35638	0.52002	0.08604	0.053
C 	C 	0.48994	0.3648	0.09062	-0.167
C 	C 	0.50664	0.63243	0.09343	-0.166
C 	C 	0.63484	0.50983	0.09162	-0.162
C 	C 	0.36776	0.49277	0.09427	-0.162
C 	C 	0.46425	0.34771	0.12292	0.054
C 	C 	0.53365	0.6507	0.12446	0.054
C 	C 	0.65313	0.53639	0.12298	0.053
C 	C 	0.34933	0.46609	0.12548	0.052
C 	C 	0.46667	0.32075	0.1475	-0.092
C 	C 	0.53347	0.67995	0.14701	-0.093
C 	C 	0.68139	0.53506	0.14632	-0.092
C 	C 	0.3208	0.46722	0.14855	-0.092
C 	C 	0.49458	0.30978	0.14032	0.051
C 	C 	0.50626	0.69175	0.13941	0.053
C 	C 	0.69246	0.50723	0.13893	0.052
C 	C 	0.30966	0.49496	0.14095	0.052
C 	C 	0.51991	0.32678	0.10751	-0.092
C 	C 	0.47998	0.67394	0.10751	-0.093
C 	C 	0.67465	0.48139	0.10672	-0.092
C 	C 	0.32768	0.52097	0.1089	-0.092
H 	H 	0.53766	0.36745	0.05823	0.022
H 	H 	0.45944	0.63058	0.06068	0.022
H 	H 	0.63212	0.46214	0.05908	0.023
H 	H 	0.37058	0.5404	0.06161	0.023
H 	H 	0.44301	0.35646	0.12886	0.023
H 	H 	0.55454	0.64155	0.13052	0.022
H 	H 	0.64424	0.55746	0.12922	0.022
H 	H 	0.35772	0.44456	0.13136	0.022
H 	H 	0.44672	0.30807	0.17262	0.052
H 	H 	0.55447	0.69366	0.17111	0.052
H 	H 	0.69485	0.55561	0.17078	0.052
H 	H 	0.30697	0.44644	0.17274	0.052
H 	H 	0.54169	0.31881	0.10124	0.048
H 	H 	0.45903	0.68292	0.10063	0.048
H 	H 	0.68292	0.45986	0.10009	0.048
H 	H 	0.31937	0.54242	0.10214	0.048
C 	C 	0.48005	0.64357	0.91438	0.055
C 	C 	0.51732	0.35357	0.91662	0.054
C 	C 	0.35506	0.51979	0.91535	0.057
C 	C 	0.64661	0.48249	0.91707	0.056
C 	C 	0.50732	0.63223	0.90603	-0.157
C 	C 	0.49	0.36491	0.90838	-0.156
C 	C 	0.36738	0.49332	0.90669	-0.16
C 	C 	0.63573	0.51026	0.90944	-0.159
C 	C 	0.53401	0.65067	0.87479	0.053
C 	C 	0.46337	0.34644	0.87708	0.053
C 	C 	0.34911	0.4663	0.87572	0.055
C 	C 	0.65303	0.53598	0.8772	0.054
C 	C 	0.53283	0.67917	0.85181	-0.089
C 	C 	0.46476	0.31818	0.85389	-0.089
C 	C 	0.31976	0.46638	0.85326	-0.09
C 	C 	0.68009	0.53356	0.85277	-0.089
C 	C 	0.50504	0.69022	0.85947	0.051
C 	C 	0.49265	0.30721	0.86134	0.053
C 	C 	0.30783	0.49349	0.86098	0.054
C 	C 	0.69099	0.50559	0.85998	0.052
C 	C 	0.47905	0.67224	0.89156	-0.087
C 	C 	0.5185	0.32508	0.89358	-0.088
C 	C 	0.32565	0.51976	0.89285	-0.089
C 	C 	0.67387	0.48033	0.89282	-0.088
H 	H 	0.45967	0.62934	0.93881	0.033
H 	H 	0.53767	0.36774	0.94104	0.033
H 	H 	0.36916	0.54037	0.9396	0.032
H 	H 	0.63305	0.4626	0.94198	0.032
H 	H 	0.55553	0.64227	0.86894	0.025
H 	H 	0.4422	0.35524	0.87069	0.025
H 	H 	0.35837	0.44551	0.86957	0.024
H 	H 	0.64435	0.55723	0.87114	0.025
H 	H 	0.55361	0.69299	0.82762	0.054
H 	H 	0.44421	0.30461	0.8294	0.054
H 	H 	0.30603	0.4454	0.82922	0.054
H 	H 	0.69283	0.55348	0.82768	0.054
H 	H 	0.45759	0.68055	0.89828	0.053
H 	H 	0.54004	0.31688	0.90033	0.053
H 	H 	0.31664	0.54066	0.89979	0.053
H 	H 	0.68187	0.45856	0.89919	0.053
Zr	Zr	0.46383	0.53616	-0	3.204
Zr	Zr	0.45331	0.4525	0.05145	3.203
Zr	Zr	0.45691	0.45769	0.94324	3.204
Zr	Zr	0.54755	0.54664	0.9484	3.207
Zr	Zr	0.53632	0.46373	0.99982	3.211
Zr	Zr	0.54233	0.54306	0.05663	3.204
O 	O 	0.47844	0.44782	0.99837	-1.382
O 	O 	0.51822	0.4141	0.95703	-0.649
O 	O 	0.5883	0.48417	0.96016	-0.654
O 	O 	0.51582	0.41182	0.0396	-0.677
O 	O 	0.46295	0.40365	0.07298	-0.665
O 	O 	0.46538	0.46661	0.11975	-0.717
O 	O 	0.40979	0.46866	0.07952	-0.644
O 	O 	0.5302	0.58985	0.08025	-0.66
O 	O 	0.41274	0.51676	0.04113	-0.665
O 	O 	0.48082	0.58517	0.04267	-0.675
O 	O 	0.41475	0.51918	0.95736	-0.659
O 	O 	0.48327	0.58717	0.95899	-0.644
O 	O 	0.53137	0.59014	0.92054	-0.635
O 	O 	0.41014	0.46991	0.91972	-0.658
O 	O 	0.4859	0.51661	0.95525	-1.388
O 	O 	0.42786	0.46803	0.99822	-1.173
O 	O 	0.40111	0.40166	0.03809	-0.761
O 	O 	0.40162	0.40005	0.95878	-0.722
O 	O 	0.60006	0.59837	0.04107	-0.719
O 	O 	0.48335	0.51407	0.04472	-1.407
O 	O 	0.51862	0.47831	0.06267	-1.186
O 	O 	0.59511	0.53593	0.07382	-0.639
O 	O 	0.53206	0.53148	0.11882	-0.744
O 	O 	0.58588	0.48174	0.04264	-0.667
O 	O 	0.46849	0.46803	0.88103	-0.743
O 	O 	0.5334	0.53466	0.88016	-0.717
O 	O 	0.52169	0.48139	0.93712	-1.178
O 	O 	0.46399	0.40484	0.92587	-0.633
O 	O 	0.59656	0.53702	0.92678	-0.652
O 	O 	0.59843	0.59877	0.96173	-0.727
O 	O 	0.53199	0.57204	0.00172	-1.198
O 	O 	0.55222	0.52152	0.00142	-1.418
C 	C 	0.60314	0.50943	0.06746	0.493
C 	C 	0.48928	0.39548	0.06577	0.501
C 	C 	0.49045	0.39676	0.9323	0.491
C 	C 	0.39984	0.49413	0.92958	0.501
C 	C 	0.5074	0.60085	0.93022	0.493
C 	C 	0.5059	0.6001	0.07045	0.503
C 	C 	0.60478	0.51075	0.93408	0.5
C 	C 	0.3991	0.49265	0.06996	0.491
H 	H 	0.54304	0.59966	0.00133	0.303
H 	H 	0.52702	0.4706	0.08637	0.308
H 	H 	0.40752	0.38033	0.95078	0.216
H 	H 	0.39881	0.39823	0.98923	0.227
H 	H 	0.62079	0.59929	0.95021	0.215
H 	H 	0.50852	0.50902	0.87744	0.214
H 	H 	0.44805	0.46959	0.86737	0.211
H 	H 	0.52736	0.55417	0.87177	0.211
H 	H 	0.40024	0.45703	0.99867	0.317
H 	H 	0.52942	0.47299	0.91342	0.305
H 	H 	0.40052	0.37929	0.04967	0.21
H 	H 	0.60189	0.60114	0.01062	0.203
H 	H 	0.61979	0.59245	0.04903	0.207
H 	H 	0.44583	0.47265	0.12814	0.21
H 	H 	0.53049	0.55189	0.13248	0.211
H 	H 	0.49103	0.49147	0.12244	0.214
C 	C 	0.48232	0.83626	0.41686	0.055
C 	C 	0.51988	0.16457	0.41505	0.056
C 	C 	0.35383	0.83638	0.4165	0.053
C 	C 	0.64356	0.16356	0.41396	0.054
C 	C 	0.51013	0.87489	0.40938	-0.163
C 	C 	0.49329	0.12575	0.40657	-0.163
C 	C 	0.36518	0.87506	0.40838	-0.159
C 	C 	0.63222	0.12494	0.40573	-0.159
C 	C 	0.53578	0.88346	0.37708	0.055
C 	C 	0.46629	0.11703	0.37554	0.054
C 	C 	0.34687	0.88332	0.37702	0.053
C 	C 	0.65065	0.11668	0.37452	0.052
C 	C 	0.5334	0.8541	0.3525	-0.091
C 	C 	0.46645	0.14644	0.35299	-0.091
C 	C 	0.31862	0.85376	0.35368	-0.09
C 	C 	0.67917	0.14633	0.35145	-0.09
C 	C 	0.50551	0.81522	0.35968	0.051
C 	C 	0.49364	0.18544	0.36059	0.053
C 	C 	0.30759	0.81487	0.36107	0.052
C 	C 	0.69029	0.18519	0.35905	0.052
C 	C 	0.48018	0.80693	0.39249	-0.09
C 	C 	0.51994	0.1939	0.39249	-0.091
C 	C 	0.32542	0.80685	0.39328	-0.089
C 	C 	0.67226	0.19321	0.3911	-0.089
H 	H 	0.46241	0.82983	0.44177	0.027
H 	H 	0.5405	0.1711	0.43932	0.027
H 	H 	0.36792	0.83009	0.44092	0.028
H 	H 	0.62937	0.16974	0.43839	0.028
H 	H 	0.55705	0.91345	0.37114	0.024
H 	H 	0.44541	0.08701	0.36948	0.023
H 	H 	0.35577	0.91331	0.37078	0.023
H 	H 	0.64227	0.08678	0.36864	0.023
H 	H 	0.55335	0.86138	0.32738	0.052
H 	H 	0.44544	0.13917	0.32889	0.053
H 	H 	0.30518	0.86086	0.32922	0.053
H 	H 	0.69301	0.13937	0.32726	0.052
H 	H 	0.4584	0.77717	0.39876	0.05
H 	H 	0.54089	0.22381	0.39937	0.051
H 	H 	0.31714	0.77706	0.39991	0.05
H 	H 	0.68058	0.22294	0.39786	0.05
C 	C 	0.5199	0.16348	0.58562	0.054
C 	C 	0.48276	0.83629	0.58338	0.053
C 	C 	0.64491	0.16466	0.58465	0.057
C 	C 	0.35341	0.83595	0.58293	0.055
C 	C 	0.49261	0.12488	0.59397	-0.16
C 	C 	0.51008	0.87495	0.59162	-0.159
C 	C 	0.63258	0.12586	0.59331	-0.164
C 	C 	0.3643	0.8746	0.59056	-0.163
C 	C 	0.46591	0.11662	0.62521	0.052
C 	C 	0.5367	0.88309	0.62292	0.053
C 	C 	0.65089	0.11714	0.62428	0.055
C 	C 	0.34698	0.883	0.6228	0.055
C 	C 	0.46712	0.14633	0.64819	-0.09
C 	C 	0.53532	0.85344	0.64611	-0.09
C 	C 	0.68024	0.14656	0.64674	-0.092
C 	C 	0.31994	0.85355	0.64723	-0.091
C 	C 	0.49488	0.18513	0.64053	0.052
C 	C 	0.50742	0.81458	0.63866	0.052
C 	C 	0.69212	0.18556	0.63902	0.054
C 	C 	0.30906	0.8147	0.64002	0.052
C 	C 	0.52087	0.19315	0.60844	-0.09
C 	C 	0.48158	0.80664	0.60642	-0.09
C 	C 	0.67429	0.19402	0.60715	-0.091
C 	C 	0.32617	0.80656	0.60718	-0.09
H 	H 	0.54027	0.16963	0.56119	0.028
H 	H 	0.4624	0.83011	0.55896	0.028
H 	H 	0.63079	0.17113	0.5604	0.027
H 	H 	0.36699	0.82962	0.55802	0.027
H 	H 	0.44441	0.08675	0.63106	0.023
H 	H 	0.55784	0.91305	0.62931	0.024
H 	H 	0.64163	0.08709	0.63043	0.023
H 	H 	0.35567	0.91296	0.62886	0.024
H 	H 	0.44632	0.13937	0.67238	0.053
H 	H 	0.55588	0.86043	0.6706	0.053
H 	H 	0.69396	0.13929	0.67078	0.054
H 	H 	0.3072	0.86074	0.67232	0.053
H 	H 	0.5423	0.22289	0.60172	0.05
H 	H 	0.46004	0.77688	0.59967	0.05
H 	H 	0.68329	0.2239	0.60021	0.051
H 	H 	0.31819	0.7768	0.60081	0.05
Zr	Zr	0.53614	0.07228	0.5	3.208
Zr	Zr	0.54671	0.99919	0.44855	3.205
Zr	Zr	0.5431	0.00078	0.55676	3.204
Zr	Zr	0.45244	0.9991	0.5516	3.205
Zr	Zr	0.46371	0.92743	0.50018	3.207
Zr	Zr	0.45765	0.00072	0.44337	3.204
O 	O 	0.52155	0.96937	0.50163	-1.399
O 	O 	0.48181	0.8959	0.54297	-0.657
O 	O 	0.41171	0.8959	0.53984	-0.665
O 	O 	0.48422	0.89602	0.4604	-0.665
O 	O 	0.53708	0.94071	0.42702	-0.66
O 	O 	0.53463	0.00121	0.38025	-0.716
O 	O 	0.59021	0.05883	0.42048	-0.639
O 	O 	0.46977	0.05964	0.41975	-0.658
O 	O 	0.58722	0.10395	0.45887	-0.654
O 	O 	0.51913	0.10433	0.45733	-0.667
O 	O 	0.58522	0.10436	0.54264	-0.668
O 	O 	0.5167	0.10387	0.54101	-0.656
O 	O 	0.46861	0.05877	0.57949	-0.639
O 	O 	0.58986	0.05973	0.58028	-0.66
O 	O 	0.51408	0.03069	0.54475	-1.398
O 	O 	0.57212	0.04013	0.50178	-1.186
O 	O 	0.59891	0.00052	0.46191	-0.744
O 	O 	0.59842	0.99838	0.54122	-0.721
O 	O 	0.39991	0.99833	0.45893	-0.72
O 	O 	0.51665	0.03072	0.45528	-1.398
O 	O 	0.48139	0.9597	0.43733	-1.18
O 	O 	0.40488	0.94085	0.42618	-0.637
O 	O 	0.46794	0.99942	0.38118	-0.743
O 	O 	0.41414	0.8959	0.45736	-0.658
O 	O 	0.5315	0.99951	0.61897	-0.743
O 	O 	0.46657	0.00124	0.61984	-0.717
O 	O 	0.47831	0.9597	0.56288	-1.183
O 	O 	0.53605	0.94085	0.57413	-0.635
O 	O 	0.40345	0.9405	0.57322	-0.658
O 	O 	0.40154	0.00038	0.53827	-0.744
O 	O 	0.46797	0.04004	0.49828	-1.185
O 	O 	0.44779	0.96931	0.49858	-1.4
C 	C 	0.39687	0.90635	0.43254	0.492
C 	C 	0.51074	0.90621	0.43423	0.501
C 	C 	0.50959	0.90632	0.5677	0.491
C 	C 	0.60015	0.09425	0.57042	0.503
C 	C 	0.49257	0.09344	0.56978	0.493
C 	C 	0.49407	0.09419	0.42955	0.502
C 	C 	0.39522	0.90601	0.56592	0.5
C 	C 	0.60088	0.0935	0.43004	0.491
H 	H 	0.45694	0.05664	0.49867	0.31
H 	H 	0.473	0.94359	0.41363	0.306
H 	H 	0.59251	0.97278	0.54922	0.212
H 	H 	0.60122	0.99939	0.51077	0.215
H 	H 	0.37921	0.97855	0.54979	0.213
H 	H 	0.49149	0.00049	0.62256	0.213
H 	H 	0.55194	0.02151	0.63263	0.21
H 	H 	0.47264	0.02682	0.62823	0.21
H 	H 	0.59974	0.05672	0.50133	0.311
H 	H 	0.4706	0.94359	0.58658	0.306
H 	H 	0.5995	0.97875	0.45033	0.213
H 	H 	0.39809	0.99928	0.48938	0.215
H 	H 	0.3802	0.97272	0.45097	0.212
H 	H 	0.55416	0.02679	0.37186	0.209
H 	H 	0.46951	0.02142	0.36752	0.21
H 	H 	0.50897	0.00043	0.37756	0.214
C 	C 	0.16385	0.64605	0.41686	0.056
C 	C 	0.8353	0.3553	0.41505	0.056
C 	C 	0.16374	0.51754	0.4165	0.054
C 	C 	0.83632	0.47989	0.41396	0.054
C 	C 	0.12523	0.63523	0.40938	-0.163
C 	C 	0.87415	0.36754	0.40657	-0.163
C 	C 	0.12503	0.49023	0.40838	-0.16
C 	C 	0.87498	0.5072	0.40573	-0.159
C 	C 	0.11663	0.65229	0.37708	0.055
C 	C 	0.88289	0.3493	0.37554	0.054
C 	C 	0.11677	0.46367	0.37702	0.053
C 	C 	0.88324	0.53385	0.37452	0.053
C 	C 	0.14603	0.67928	0.3525	-0.091
C 	C 	0.85343	0.32003	0.35299	-0.091
C 	C 	0.14636	0.465	0.35368	-0.091
C 	C 	0.85358	0.53272	0.35145	-0.09
C 	C 	0.18493	0.69028	0.35968	0.051
C 	C 	0.81442	0.30822	0.36059	0.053
C 	C 	0.18527	0.49286	0.36107	0.052
C 	C 	0.81468	0.50498	0.35905	0.052
C 	C 	0.19322	0.67325	0.39249	-0.09
C 	C 	0.80597	0.32603	0.39249	-0.091
C 	C 	0.19329	0.51869	0.39328	-0.09
C 	C 	0.80665	0.47894	0.3911	-0.089
H 	H 	0.1703	0.6326	0.44177	0.027
H 	H 	0.82877	0.36939	0.43932	0.027
H 	H 	0.17004	0.53792	0.44092	0.028
H 	H 	0.83014	0.45954	0.43839	0.028
H 	H 	0.08661	0.64354	0.37114	0.024
H 	H 	0.91293	0.35845	0.36948	0.023
H 	H 	0.08675	0.44257	0.37078	0.023
H 	H 	0.91318	0.55538	0.36864	0.023
H 	H 	0.13876	0.69195	0.32738	0.052
H 	H 	0.86074	0.30634	0.32889	0.053
H 	H 	0.13925	0.44444	0.32922	0.053
H 	H 	0.86055	0.55351	0.32726	0.053
H 	H 	0.22299	0.68124	0.39876	0.05
H 	H 	0.77601	0.31705	0.39937	0.051
H 	H 	0.22309	0.5402	0.39991	0.05
H 	H 	0.77688	0.45749	0.39786	0.05
C 	C 	0.83638	0.3564	0.58562	0.054
C 	C 	0.16383	0.64646	0.58338	0.053
C 	C 	0.83523	0.48015	0.58465	0.057
C 	C 	0.16416	0.51757	0.58293	0.055
C 	C 	0.87503	0.36774	0.59397	-0.159
C 	C 	0.12515	0.63511	0.59162	-0.159
C 	C 	0.87404	0.50662	0.59331	-0.164
C 	C 	0.12549	0.4898	0.59056	-0.163
C 	C 	0.88326	0.3493	0.62521	0.053
C 	C 	0.11699	0.65356	0.62292	0.053
C 	C 	0.88278	0.53364	0.62428	0.055
C 	C 	0.11707	0.46407	0.6228	0.054
C 	C 	0.85357	0.3208	0.64819	-0.09
C 	C 	0.14669	0.68185	0.64611	-0.09
C 	C 	0.85334	0.53356	0.64674	-0.092
C 	C 	0.14657	0.46653	0.64723	-0.091
C 	C 	0.81471	0.30975	0.64053	0.052
C 	C 	0.18556	0.69285	0.63866	0.053
C 	C 	0.8143	0.50642	0.63902	0.054
C 	C 	0.18542	0.49447	0.64002	0.052
C 	C 	0.80671	0.3277	0.60844	-0.089
C 	C 	0.19352	0.67495	0.60642	-0.09
C 	C 	0.80586	0.48015	0.60715	-0.091
C 	C 	0.1936	0.51976	0.60718	-0.09
H 	H 	0.83022	0.3706	0.56119	0.028
H 	H 	0.17	0.63229	0.55899	0.028
H 	H 	0.82874	0.45954	0.5604	0.027
H 	H 	0.17051	0.53746	0.55802	0.027
H 	H 	0.91318	0.3577	0.63106	0.023
H 	H 	0.08702	0.64476	0.62931	0.023
H 	H 	0.91285	0.55443	0.63043	0.023
H 	H 	0.08709	0.4428	0.62886	0.024
H 	H 	0.86051	0.30698	0.67238	0.053
H 	H 	0.13967	0.69539	0.6706	0.053
H 	H 	0.8606	0.55452	0.67078	0.054
H 	H 	0.13934	0.44658	0.67232	0.053
H 	H 	0.77693	0.31939	0.60172	0.05
H 	H 	0.22328	0.68318	0.59967	0.05
H 	H 	0.77593	0.45925	0.60021	0.051
H 	H 	0.22336	0.54153	0.60081	0.05
Zr	Zr	0.92767	0.46384	0.5	3.208
Zr	Zr	0.00081	0.54747	0.44855	3.205
Zr	Zr	0.99921	0.54228	0.55676	3.204
Zr	Zr	0.0009	0.45339	0.5516	3.204
Zr	Zr	0.07263	0.5363	0.50018	3.207
Zr	Zr	0.99927	0.45694	0.44337	3.204
O 	O 	0.03064	0.55218	0.50163	-1.399
O 	O 	0.10417	0.58592	0.54297	-0.657
O 	O 	0.10416	0.51586	0.53984	-0.665
O 	O 	0.10406	0.5882	0.4604	-0.665
O 	O 	0.05936	0.59637	0.42702	-0.659
O 	O 	0.99879	0.53339	0.38025	-0.716
O 	O 	0.94111	0.53131	0.42048	-0.639
O 	O 	0.94031	0.41015	0.41975	-0.659
O 	O 	0.89598	0.48321	0.45887	-0.654
O 	O 	0.8956	0.4148	0.45733	-0.667
O 	O 	0.89557	0.48079	0.54264	-0.668
O 	O 	0.89605	0.41281	0.54101	-0.656
O 	O 	0.94119	0.40986	0.57949	-0.639
O 	O 	0.94024	0.53007	0.58028	-0.66
O 	O 	0.96927	0.48339	0.54475	-1.398
O 	O 	0.95984	0.53194	0.50178	-1.186
O 	O 	0.99948	0.59831	0.46191	-0.744
O 	O 	0.0016	0.59995	0.54122	-0.72
O 	O 	0.00166	0.40166	0.45893	-0.72
O 	O 	0.96927	0.48593	0.45528	-1.399
O 	O 	0.04033	0.52169	0.43733	-1.18
O 	O 	0.05917	0.4641	0.42618	-0.637
O 	O 	0.00056	0.46852	0.38118	-0.743
O 	O 	0.10417	0.51829	0.45736	-0.658
O 	O 	0.00049	0.53197	0.61897	-0.743
O 	O 	0.99875	0.46534	0.61984	-0.717
O 	O 	0.04032	0.51863	0.56288	-1.183
O 	O 	0.0592	0.59516	0.57413	-0.635
O 	O 	0.05955	0.46301	0.57322	-0.658
O 	O 	0.99961	0.40123	0.53827	-0.743
O 	O 	0.95991	0.42793	0.49828	-1.186
O 	O 	0.0307	0.47851	0.49858	-1.4
C 	C 	0.09372	0.4906	0.43254	0.492
C 	C 	0.09387	0.60454	0.43423	0.501
C 	C 	0.09376	0.60327	0.5677	0.491
C 	C 	0.90568	0.50585	0.57042	0.502
C 	C 	0.90651	0.39915	0.56978	0.493
C 	C 	0.90574	0.39987	0.42955	0.502
C 	C 	0.09406	0.48928	0.56592	0.5
C 	C 	0.90642	0.50729	0.43004	0.492
H 	H 	0.94332	0.40033	0.49867	0.311
H 	H 	0.05646	0.52943	0.41363	0.306
H 	H 	0.02726	0.61967	0.54922	0.211
H 	H 	0.00062	0.60174	0.51077	0.215
H 	H 	0.02146	0.40074	0.54979	0.213
H 	H 	0.99949	0.49098	0.62256	0.214
H 	H 	0.97849	0.53041	0.63263	0.211
H 	H 	0.97317	0.44583	0.62823	0.21
H 	H 	0.94323	0.54294	0.50133	0.311
H 	H 	0.05646	0.52703	0.58658	0.306
H 	H 	0.02128	0.62068	0.45036	0.213
H 	H 	0.00072	0.39889	0.48938	0.215
H 	H 	0.02731	0.40758	0.45097	0.211
H 	H 	0.97321	0.52735	0.37186	0.21
H 	H 	0.97856	0.44811	0.36752	0.211
H 	H 	0.99956	0.50853	0.37756	0.214
C 	C 	0.35385	0.51771	0.41686	0.056
C 	C 	0.64478	0.4801	0.41505	0.057
C 	C 	0.48248	0.64608	0.4165	0.054
C 	C 	0.52007	0.35651	0.41396	0.054
C 	C 	0.36469	0.48994	0.40938	-0.164
C 	C 	0.63253	0.50665	0.40657	-0.163
C 	C 	0.5098	0.63474	0.40838	-0.16
C 	C 	0.49279	0.36789	0.40573	-0.159
C 	C 	0.3476	0.46428	0.37708	0.055
C 	C 	0.65081	0.53364	0.37554	0.055
C 	C 	0.53638	0.65301	0.37702	0.053
C 	C 	0.46607	0.34944	0.37452	0.052
C 	C 	0.3206	0.46667	0.3525	-0.091
C 	C 	0.68007	0.53347	0.35299	-0.092
C 	C 	0.53505	0.68124	0.35368	-0.09
C 	C 	0.46722	0.32095	0.35145	-0.09
C 	C 	0.30961	0.49456	0.35968	0.052
C 	C 	0.69191	0.50628	0.36059	0.054
C 	C 	0.50721	0.6923	0.36107	0.052
C 	C 	0.49497	0.30981	0.35905	0.052
C 	C 	0.32666	0.51988	0.39249	-0.091
C 	C 	0.67407	0.48004	0.39249	-0.091
C 	C 	0.48133	0.67449	0.39328	-0.089
C 	C 	0.52103	0.32782	0.3911	-0.089
H 	H 	0.36733	0.5376	0.44177	0.027
H 	H 	0.63069	0.45948	0.43932	0.027
H 	H 	0.46211	0.63203	0.44092	0.028
H 	H 	0.54045	0.37069	0.43839	0.028
H 	H 	0.35633	0.44303	0.37114	0.024
H 	H 	0.64164	0.55452	0.36948	0.023
H 	H 	0.5575	0.64412	0.37078	0.023
H 	H 	0.44453	0.35784	0.36864	0.023
H 	H 	0.30792	0.44672	0.32738	0.052
H 	H 	0.6938	0.55446	0.32889	0.053
H 	H 	0.55562	0.6947	0.32922	0.052
H 	H 	0.44642	0.30712	0.32726	0.053
H 	H 	0.31865	0.54161	0.39876	0.051
H 	H 	0.68305	0.45908	0.39937	0.051
H 	H 	0.45979	0.68275	0.39991	0.05
H 	H 	0.5425	0.31953	0.39786	0.05
C 	C 	0.64369	0.48007	0.58562	0.054
C 	C 	0.35345	0.51728	0.58338	0.053
C 	C 	0.51983	0.35519	0.58465	0.057
C 	C 	0.48246	0.64649	0.58293	0.055
C 	C 	0.63235	0.50735	0.59397	-0.16
C 	C 	0.36478	0.48997	0.59162	-0.159
C 	C 	0.49335	0.36751	0.59331	-0.164
C 	C 	0.51025	0.63563	0.59056	-0.162
C 	C 	0.6508	0.53402	0.62521	0.053
C 	C 	0.34633	0.46338	0.62292	0.052
C 	C 	0.4663	0.34921	0.62428	0.055
C 	C 	0.53599	0.65293	0.6228	0.054
C 	C 	0.6793	0.53284	0.64819	-0.091
C 	C 	0.31802	0.46477	0.64611	-0.09
C 	C 	0.46639	0.31988	0.64674	-0.092
C 	C 	0.53355	0.67995	0.64723	-0.091
C 	C 	0.69038	0.50507	0.64053	0.052
C 	C 	0.30704	0.49262	0.63866	0.053
C 	C 	0.49351	0.30799	0.63902	0.054
C 	C 	0.50557	0.69083	0.64002	0.052
C 	C 	0.67237	0.47909	0.60844	-0.09
C 	C 	0.32495	0.51846	0.60642	-0.09
C 	C 	0.51981	0.3258	0.60715	-0.091
C 	C 	0.48028	0.67374	0.60718	-0.09
H 	H 	0.62945	0.45972	0.56119	0.028
H 	H 	0.36764	0.53763	0.55896	0.028
H 	H 	0.54044	0.36927	0.5604	0.027
H 	H 	0.46253	0.63292	0.55802	0.027
H 	H 	0.6424	0.55553	0.63106	0.023
H 	H 	0.35514	0.44225	0.62931	0.023
H 	H 	0.4455	0.35848	0.63043	0.023
H 	H 	0.55726	0.64424	0.62886	0.024
H 	H 	0.69314	0.55359	0.67238	0.053
H 	H 	0.30446	0.44421	0.6706	0.053
H 	H 	0.44541	0.3062	0.67078	0.054
H 	H 	0.55348	0.69268	0.67232	0.053
H 	H 	0.68072	0.45767	0.60172	0.05
H 	H 	0.31671	0.54	0.59967	0.05
H 	H 	0.54074	0.31682	0.60021	0.051
H 	H 	0.4585	0.68171	0.60081	0.05
Zr	Zr	0.53619	0.46387	0.5	3.208
Zr	Zr	0.45248	0.45334	0.44855	3.205
Zr	Zr	0.45769	0.45694	0.55676	3.204
Zr	Zr	0.54666	0.5475	0.5516	3.204
Zr	Zr	0.46368	0.53627	0.50018	3.207
Zr	Zr	0.54308	0.54231	0.44337	3.204
O 	O 	0.44779	0.47845	0.50163	-1.4
O 	O 	0.41404	0.5182	0.54297	-0.657
O 	O 	0.48413	0.58823	0.53984	-0.665
O 	O 	0.41176	0.5158	0.4604	-0.665
O 	O 	0.40357	0.46298	0.42702	-0.66
O 	O 	0.46658	0.4654	0.38025	-0.716
O 	O 	0.46864	0.40983	0.42048	-0.639
O 	O 	0.58991	0.53018	0.41975	-0.659
O 	O 	0.51677	0.41281	0.45887	-0.654
O 	O 	0.58526	0.48085	0.45733	-0.667
O 	O 	0.5192	0.41483	0.54264	-0.668
O 	O 	0.58724	0.4833	0.54101	-0.656
O 	O 	0.59021	0.53134	0.57949	-0.639
O 	O 	0.46991	0.41021	0.58028	-0.66
O 	O 	0.51663	0.48593	0.54475	-1.398
O 	O 	0.46802	0.42793	0.50178	-1.186
O 	O 	0.40161	0.40117	0.46191	-0.744
O 	O 	0.39996	0.40166	0.54122	-0.72
O 	O 	0.59842	0.59998	0.45893	-0.72
O 	O 	0.51409	0.48336	0.45528	-1.399
O 	O 	0.47829	0.5186	0.43733	-1.18
O 	O 	0.53595	0.59505	0.42618	-0.637
O 	O 	0.53149	0.53203	0.38118	-0.744
O 	O 	0.48172	0.58581	0.45736	-0.658
O 	O 	0.46801	0.46852	0.61897	-0.743
O 	O 	0.53467	0.53339	0.61984	-0.717
O 	O 	0.48137	0.52166	0.56288	-1.183
O 	O 	0.40475	0.46399	0.57413	-0.634
O 	O 	0.53702	0.59649	0.57322	-0.658
O 	O 	0.59886	0.59837	0.53827	-0.744
O 	O 	0.5721	0.532	0.49828	-1.185
O 	O 	0.52153	0.55218	0.49858	-1.4
C 	C 	0.50944	0.60307	0.43254	0.492
C 	C 	0.39538	0.48928	0.43423	0.501
C 	C 	0.39668	0.49046	0.5677	0.491
C 	C 	0.49412	0.3999	0.57042	0.503
C 	C 	0.60093	0.5074	0.56978	0.493
C 	C 	0.60018	0.5059	0.42955	0.502
C 	C 	0.51077	0.60472	0.56592	0.5
C 	C 	0.49267	0.39921	0.43004	0.492
H 	H 	0.59976	0.54303	0.49867	0.309
H 	H 	0.47054	0.52698	0.41363	0.306
H 	H 	0.38023	0.40758	0.54922	0.211
H 	H 	0.39815	0.39886	0.51077	0.215
H 	H 	0.59934	0.62068	0.54979	0.213
H 	H 	0.50901	0.5085	0.62256	0.214
H 	H 	0.46954	0.44808	0.63263	0.211
H 	H 	0.55422	0.52735	0.62823	0.21
H 	H 	0.45701	0.40033	0.50133	0.311
H 	H 	0.47296	0.5294	0.58658	0.306
H 	H 	0.37923	0.40059	0.45036	0.213
H 	H 	0.60119	0.60183	0.48938	0.215
H 	H 	0.59252	0.6197	0.45097	0.212
H 	H 	0.47261	0.44586	0.37186	0.21
H 	H 	0.55192	0.53047	0.36752	0.211
H 	H 	0.49146	0.49104	0.37756	0.214
C 	C 	0.49231	0.21469	0.16119	-0.029
C 	C 	0.49061	0.21498	0.20479	0.017
C 	C 	0.49481	0.18868	0.2279	-0.048
H 	H 	0.83115	0.49874	0.28589	0.044
H 	H 	0.49566	0.24783	0.1092	0.037
C 	C 	0.49473	0.24737	0.14141	-0.033
C 	C 	0.48925	0.24462	0.22651	-0.011
C 	C 	0.27761	0.49231	0.16119	-0.029
C 	C 	0.27565	0.49063	0.20479	0.018
C 	C 	0.30611	0.49482	0.2279	-0.048
H 	H 	0.3324	0.83115	0.28589	0.045
H 	H 	0.24784	0.49566	0.1092	0.037
C 	C 	0.24738	0.49473	0.14141	-0.032
C 	C 	0.24461	0.48925	0.22651	-0.011
C 	C 	0.7853	0.27762	0.16119	-0.03
C 	C 	0.785	0.27563	0.20479	0.018
C 	C 	0.81131	0.30611	0.2279	-0.048
H 	H 	0.50126	0.33241	0.28589	0.044
H 	H 	0.75218	0.24783	0.1092	0.036
C 	C 	0.75265	0.24737	0.14141	-0.031
C 	C 	0.75538	0.24462	0.22651	-0.011
C 	C 	0.50769	0.78531	0.16119	-0.03
C 	C 	0.50939	0.78502	0.20479	0.018
C 	C 	0.50519	0.81132	0.2279	-0.048
H 	H 	0.16885	0.50126	0.28589	0.045
H 	H 	0.50434	0.75217	0.1092	0.036
C 	C 	0.50527	0.75263	0.14141	-0.032
C 	C 	0.51075	0.75538	0.22651	-0.011
C 	C 	0.72239	0.50769	0.16119	-0.03
C 	C 	0.72435	0.50937	0.20479	0.018
C 	C 	0.69389	0.50518	0.2279	-0.048
H 	H 	0.6676	0.16885	0.28589	0.044
H 	H 	0.75216	0.50434	0.1092	0.036
C 	C 	0.75262	0.50527	0.14141	-0.032
C 	C 	0.75539	0.51075	0.22651	-0.011
C 	C 	0.2147	0.72238	0.16119	-0.029
C 	C 	0.215	0.72437	0.20479	0.018
C 	C 	0.18869	0.69389	0.2279	-0.048
H 	H 	0.49874	0.66759	0.28589	0.044
H 	H 	0.24782	0.75217	0.1092	0.037
C 	C 	0.24735	0.75263	0.14141	-0.032
C 	C 	0.24462	0.75538	0.22651	-0.011
C 	C 	0.78531	0.50769	0.33881	-0.028
C 	C 	0.78502	0.50937	0.29521	0.017
C 	C 	0.8113	0.50518	0.2721	-0.047
H 	H 	0.50125	0.16885	0.21411	0.044
H 	H 	0.75216	0.50434	0.3908	0.04
C 	C 	0.75265	0.50527	0.35859	-0.032
C 	C 	0.75537	0.51075	0.27349	-0.01
C 	C 	0.27761	0.78531	0.33881	-0.028
C 	C 	0.27564	0.78502	0.29521	0.018
C 	C 	0.30612	0.81132	0.2721	-0.047
H 	H 	0.3324	0.50126	0.21411	0.044
H 	H 	0.24782	0.75217	0.3908	0.039
C 	C 	0.24738	0.75263	0.35859	-0.032
C 	C 	0.24462	0.75538	0.27349	-0.01
C 	C 	0.4923	0.27762	0.33881	-0.028
C 	C 	0.49061	0.27563	0.29521	0.017
C 	C 	0.4948	0.30611	0.2721	-0.047
H 	H 	0.83115	0.33241	0.21411	0.045
H 	H 	0.49566	0.24783	0.3908	0.04
C 	C 	0.49473	0.24737	0.35859	-0.032
C 	C 	0.48925	0.24462	0.27349	-0.011
C 	C 	0.21469	0.49231	0.33881	-0.028
C 	C 	0.21498	0.49063	0.29521	0.018
C 	C 	0.1887	0.49482	0.2721	-0.047
H 	H 	0.49875	0.83115	0.21411	0.045
H 	H 	0.24784	0.49566	0.3908	0.039
C 	C 	0.24735	0.49473	0.35859	-0.032
C 	C 	0.24463	0.48925	0.27349	-0.01
C 	C 	0.72239	0.21469	0.33881	-0.028
C 	C 	0.72436	0.21498	0.29521	0.017
C 	C 	0.69388	0.18868	0.2721	-0.047
H 	H 	0.6676	0.49874	0.21411	0.045
H 	H 	0.75218	0.24783	0.3908	0.04
C 	C 	0.75262	0.24737	0.35859	-0.032
C 	C 	0.75538	0.24462	0.27349	-0.01
C 	C 	0.5077	0.72238	0.33881	-0.028
C 	C 	0.50939	0.72437	0.29521	0.017
C 	C 	0.5052	0.69389	0.2721	-0.047
H 	H 	0.16885	0.66759	0.21411	0.044
H 	H 	0.50434	0.75217	0.3908	0.039
C 	C 	0.50527	0.75263	0.35859	-0.033
C 	C 	0.51075	0.75538	0.27349	-0.01
C 	C 	0.50769	0.78531	0.33881	-0.027
C 	C 	0.50939	0.78502	0.29521	0.017
C 	C 	0.50519	0.81132	0.2721	-0.047
H 	H 	0.16885	0.50126	0.21411	0.044
C 	C 	0.72239	0.50769	0.33881	-0.029
C 	C 	0.72435	0.50937	0.29521	0.018
C 	C 	0.69389	0.50518	0.2721	-0.047
H 	H 	0.6676	0.16885	0.21411	0.044
C 	C 	0.2147	0.72238	0.33881	-0.027
C 	C 	0.215	0.72437	0.29521	0.017
C 	C 	0.18869	0.69389	0.2721	-0.047
H 	H 	0.49874	0.66759	0.21411	0.044
C 	C 	0.49231	0.21469	0.33881	-0.029
C 	C 	0.49061	0.21498	0.29521	0.018
C 	C 	0.49481	0.18868	0.2721	-0.047
H 	H 	0.83115	0.49874	0.21411	0.045
C 	C 	0.27761	0.49231	0.33881	-0.027
C 	C 	0.27565	0.49063	0.29521	0.017
C 	C 	0.30611	0.49482	0.2721	-0.047
H 	H 	0.3324	0.83115	0.21411	0.045
C 	C 	0.7853	0.27762	0.33881	-0.029
C 	C 	0.785	0.27563	0.29521	0.018
C 	C 	0.81131	0.30611	0.2721	-0.047
H 	H 	0.50126	0.33241	0.21411	0.044
C 	C 	0.21469	0.49231	0.16119	-0.03
C 	C 	0.21498	0.49063	0.20479	0.018
C 	C 	0.1887	0.49482	0.2279	-0.048
H 	H 	0.49875	0.83115	0.28589	0.045
C 	C 	0.72239	0.21469	0.16119	-0.03
C 	C 	0.72436	0.21498	0.20479	0.019
C 	C 	0.69388	0.18868	0.2279	-0.048
H 	H 	0.6676	0.49874	0.28589	0.044
C 	C 	0.5077	0.72238	0.16119	-0.03
C 	C 	0.50939	0.72437	0.20479	0.018
C 	C 	0.5052	0.69389	0.2279	-0.048
H 	H 	0.16885	0.66759	0.28589	0.044
C 	C 	0.78531	0.50769	0.16119	-0.03
C 	C 	0.78502	0.50937	0.20479	0.018
C 	C 	0.8113	0.50518	0.2279	-0.048
H 	H 	0.50125	0.16885	0.28589	0.044
C 	C 	0.27761	0.78531	0.16119	-0.029
C 	C 	0.27564	0.78502	0.20479	0.018
C 	C 	0.30612	0.81132	0.2279	-0.048
H 	H 	0.3324	0.50126	0.28589	0.044
C 	C 	0.4923	0.27762	0.16119	-0.028
C 	C 	0.49061	0.27563	0.20479	0.017
C 	C 	0.4948	0.30611	0.2279	-0.047
H 	H 	0.83115	0.33241	0.28589	0.044
C 	C 	0.49231	0.21469	0.66119	-0.027
C 	C 	0.49061	0.21498	0.70479	0.018
C 	C 	0.49481	0.18868	0.7279	-0.047
H 	H 	0.83115	0.49874	0.78589	0.045
H 	H 	0.49566	0.24783	0.6092	0.04
C 	C 	0.49473	0.24737	0.64141	-0.032
C 	C 	0.48925	0.24462	0.72651	-0.01
C 	C 	0.27761	0.49231	0.66119	-0.029
C 	C 	0.27565	0.49063	0.70479	0.018
C 	C 	0.30611	0.49482	0.7279	-0.047
H 	H 	0.3324	0.83115	0.78589	0.045
H 	H 	0.24784	0.49566	0.6092	0.039
C 	C 	0.24738	0.49473	0.64141	-0.032
C 	C 	0.24461	0.48925	0.72651	-0.011
C 	C 	0.7853	0.27762	0.66119	-0.027
C 	C 	0.785	0.27563	0.70479	0.018
C 	C 	0.81131	0.30611	0.7279	-0.047
H 	H 	0.50126	0.33241	0.78589	0.045
H 	H 	0.75218	0.24783	0.6092	0.04
C 	C 	0.75265	0.24737	0.64141	-0.032
C 	C 	0.75538	0.24462	0.72651	-0.01
C 	C 	0.50769	0.78531	0.66119	-0.029
C 	C 	0.50939	0.78502	0.70479	0.018
C 	C 	0.50519	0.81132	0.7279	-0.047
H 	H 	0.16885	0.50126	0.78589	0.044
H 	H 	0.50434	0.75217	0.6092	0.039
C 	C 	0.50527	0.75263	0.64141	-0.032
C 	C 	0.51075	0.75538	0.72651	-0.011
C 	C 	0.72239	0.50769	0.66119	-0.028
C 	C 	0.72435	0.50937	0.70479	0.018
C 	C 	0.69389	0.50518	0.7279	-0.047
H 	H 	0.6676	0.16885	0.78589	0.044
H 	H 	0.75216	0.50434	0.6092	0.04
C 	C 	0.75262	0.50527	0.64141	-0.032
C 	C 	0.75539	0.51075	0.72651	-0.01
C 	C 	0.2147	0.72238	0.66119	-0.029
C 	C 	0.215	0.72437	0.70479	0.018
C 	C 	0.18869	0.69389	0.7279	-0.047
H 	H 	0.49874	0.66759	0.78589	0.044
H 	H 	0.24782	0.75217	0.6092	0.039
C 	C 	0.24735	0.75263	0.64141	-0.032
C 	C 	0.24462	0.75538	0.72651	-0.01
C 	C 	0.78531	0.50769	0.83881	-0.027
C 	C 	0.78502	0.50937	0.79521	0.018
C 	C 	0.8113	0.50518	0.7721	-0.047
H 	H 	0.50125	0.16885	0.71411	0.044
H 	H 	0.75216	0.50434	0.8908	0.042
C 	C 	0.75265	0.50527	0.85859	-0.032
C 	C 	0.75537	0.51075	0.77349	-0.01
C 	C 	0.27761	0.78531	0.83881	-0.027
C 	C 	0.27564	0.78502	0.79521	0.018
C 	C 	0.30612	0.81132	0.7721	-0.047
H 	H 	0.3324	0.50126	0.71411	0.045
H 	H 	0.24782	0.75217	0.8908	0.042
C 	C 	0.24738	0.75263	0.85859	-0.032
C 	C 	0.24462	0.75538	0.77349	-0.01
C 	C 	0.4923	0.27762	0.83881	-0.027
C 	C 	0.49061	0.27563	0.79521	0.018
C 	C 	0.4948	0.30611	0.7721	-0.047
H 	H 	0.83115	0.33241	0.71411	0.044
H 	H 	0.49566	0.24783	0.8908	0.042
C 	C 	0.49473	0.24737	0.85859	-0.032
C 	C 	0.48925	0.24462	0.77349	-0.01
C 	C 	0.21469	0.49231	0.83881	-0.026
C 	C 	0.21498	0.49063	0.79521	0.017
C 	C 	0.1887	0.49482	0.7721	-0.047
H 	H 	0.49875	0.83115	0.71411	0.045
H 	H 	0.24784	0.49566	0.8908	0.043
C 	C 	0.24735	0.49473	0.85859	-0.032
C 	C 	0.24463	0.48925	0.77349	-0.01
C 	C 	0.72239	0.21469	0.83881	-0.026
C 	C 	0.72436	0.21498	0.79521	0.017
C 	C 	0.69388	0.18868	0.7721	-0.047
H 	H 	0.6676	0.49874	0.71411	0.044
H 	H 	0.75218	0.24783	0.8908	0.043
C 	C 	0.75262	0.24737	0.85859	-0.033
C 	C 	0.75538	0.24462	0.77349	-0.009
C 	C 	0.5077	0.72238	0.83881	-0.026
C 	C 	0.50939	0.72437	0.79521	0.017
C 	C 	0.5052	0.69389	0.7721	-0.046
H 	H 	0.16885	0.66759	0.71411	0.045
H 	H 	0.50434	0.75217	0.8908	0.043
C 	C 	0.50527	0.75263	0.85859	-0.033
C 	C 	0.51075	0.75538	0.77349	-0.009
C 	C 	0.50769	0.78531	0.83881	-0.025
C 	C 	0.50939	0.78502	0.79521	0.017
C 	C 	0.50519	0.81132	0.7721	-0.046
H 	H 	0.16885	0.50126	0.71411	0.045
C 	C 	0.72239	0.50769	0.83881	-0.027
C 	C 	0.72435	0.50937	0.79521	0.018
C 	C 	0.69389	0.50518	0.7721	-0.047
H 	H 	0.6676	0.16885	0.71411	0.044
C 	C 	0.2147	0.72238	0.83881	-0.027
C 	C 	0.215	0.72437	0.79521	0.018
C 	C 	0.18869	0.69389	0.7721	-0.047
H 	H 	0.49874	0.66759	0.71411	0.045
C 	C 	0.49231	0.21469	0.83881	-0.027
C 	C 	0.49061	0.21498	0.79521	0.018
C 	C 	0.49481	0.18868	0.7721	-0.047
H 	H 	0.83115	0.49874	0.71411	0.044
C 	C 	0.27761	0.49231	0.83881	-0.027
C 	C 	0.27565	0.49063	0.79521	0.018
C 	C 	0.30611	0.49482	0.7721	-0.047
H 	H 	0.3324	0.83115	0.71411	0.045
C 	C 	0.7853	0.27762	0.83881	-0.025
C 	C 	0.785	0.27563	0.79521	0.017
C 	C 	0.81131	0.30611	0.7721	-0.047
H 	H 	0.50126	0.33241	0.71411	0.044
C 	C 	0.21469	0.49231	0.66119	-0.028
C 	C 	0.21498	0.49063	0.70479	0.018
C 	C 	0.1887	0.49482	0.7279	-0.047
H 	H 	0.49875	0.83115	0.78589	0.045
C 	C 	0.72239	0.21469	0.66119	-0.029
C 	C 	0.72436	0.21498	0.70479	0.018
C 	C 	0.69388	0.18868	0.7279	-0.047
H 	H 	0.6676	0.49874	0.78589	0.044
C 	C 	0.5077	0.72238	0.66119	-0.028
C 	C 	0.50939	0.72437	0.70479	0.018
C 	C 	0.5052	0.69389	0.7279	-0.047
H 	H 	0.16885	0.66759	0.78589	0.044
C 	C 	0.78531	0.50769	0.66119	-0.029
C 	C 	0.78502	0.50937	0.70479	0.018
C 	C 	0.8113	0.50518	0.7279	-0.047
H 	H 	0.50125	0.16885	0.78589	0.044
C 	C 	0.27761	0.78531	0.66119	-0.028
C 	C 	0.27564	0.78502	0.70479	0.018
C 	C 	0.30612	0.81132	0.7279	-0.047
H 	H 	0.3324	0.50126	0.78589	0.044
C 	C 	0.4923	0.27762	0.66119	-0.029
C 	C 	0.49061	0.27563	0.70479	0.018
C 	C 	0.4948	0.30611	0.7279	-0.047
H 	H 	0.83115	0.33241	0.78589	0.044
_end
