# CIF file generated by openbabel 2.4.1, see http://openbabel.sf.net
data_I
_chemical_name_common ''
_cell_length_a 26.179
_cell_length_b 26.179
_cell_length_c 6.65197
_cell_angle_alpha 90
_cell_angle_beta 90
_cell_angle_gamma 120
_symmetry_space_group_name_H-M 'R -3'
_space_group_name_Hall '-R 3'
loop_
    _symmetry_equiv_pos_as_xyz
    x,y,z
    -y,x-y,z
    -x+y,-x,z
    -x,-y,-z
    y,-x+y,-z
    x-y,x,-z
    2/3+x,1/3+y,1/3+z
    2/3-y,1/3+x-y,1/3+z
    2/3-x+y,1/3-x,1/3+z
    2/3-x,1/3-y,1/3-z
    2/3+y,1/3-x+y,1/3-z
    2/3+x-y,1/3+x,1/3-z
    1/3+x,2/3+y,2/3+z
    1/3-y,2/3+x-y,2/3+z
    1/3-x+y,2/3-x,2/3+z
    1/3-x,2/3-y,2/3-z
    1/3+y,2/3-x+y,2/3-z
    1/3+x-y,2/3+x,2/3-z
loop_
    _atom_site_label
    _atom_site_type_symbol
    _atom_site_fract_x
    _atom_site_fract_y
    _atom_site_fract_z
    _atom_site_occupancy
    Zn1     Zn   0.38790   0.35068   0.15211   1.000
    C2      C    0.32290   0.20386   0.28779   1.000
    C3      C    0.34291   0.22040   0.09164   1.000
    C4      C    0.35335   0.18320   0.97052   1.000
    C5      C    0.34376   0.12947   0.04554   1.000
    C6      C    0.32375   0.11294   0.24169   1.000
    C7      C    0.31332   0.15013   0.36282   1.000
    H8      H    0.36889   0.19605   0.81817   1.000
    H9      H    0.29778   0.13729   0.51516   1.000
    C10     C    0.31168   0.24386   0.41805   1.000
    O11     O    0.32032   0.29230   0.35040   1.000
    O12     O    0.29364   0.22895   0.59490   1.000
    C13     C    0.35498   0.08948   0.91529   1.000
    O14     O    0.34635   0.04106   0.98280   1.000
    O15     O    0.37303   0.10439   0.73843   1.000
    O16     O    0.35220   0.27243   0.01900   1.000
    O17     O    0.31447   0.06090   0.31440   1.000
