# CIF file generated by openbabel 2.3.2, see http://openbabel.sf.net
data_I
_chemical_name_common ''
_cell_length_a 25.5177
_cell_length_b 25.5177
_cell_length_c 6.9661
_cell_angle_alpha 90
_cell_angle_beta 90
_cell_angle_gamma 120
_space_group_name_H-M_alt 'R -3'
_space_group_name_Hall '-R 3'
_symmetry_space_group_name_H-M 'R -3'
loop_
    _symmetry_equiv_pos_as_xyz
    'x,y,z'
    '-y,x-y,z'
    '-x+y,-x,z'
    '-x,-y,-z'
    'y,-x+y,-z'
    'x-y,x,-z'
    '2/3+x,1/3+y,1/3+z'
    '2/3-y,1/3+x-y,1/3+z'
    '2/3-x+y,1/3-x,1/3+z'
    '2/3-x,1/3-y,1/3-z'
    '2/3+y,1/3-x+y,1/3-z'
    '2/3+x-y,1/3+x,1/3-z'
    '1/3+x,2/3+y,2/3+z'
    '1/3-y,2/3+x-y,2/3+z'
    '1/3-x+y,2/3-x,2/3+z'
    '1/3-x,2/3-y,2/3-z'
    '1/3+y,2/3-x+y,2/3-z'
    '1/3+x-y,2/3+x,2/3-z'
loop_
    _atom_site_type_symbol
    _atom_site_label
    _atom_site_Cartn_x
    _atom_site_Cartn_y
    _atom_site_Cartn_z
     Fe   Fe     5.42047    7.79254    1.02889
      O   O1     4.35459    6.52141    2.43814
      O   O2     4.87133    5.12254    4.10582
      O   O3     5.52713    6.09490    0.00627
      C   C1     4.96192    5.50043    2.88675
      C   C2     5.71724    4.57670    1.93658
      C   C3     5.95073    4.91481    0.58446
      C   C4     6.65757    3.99108   -0.19296
      H    H     6.80174    4.11262   -1.22255
      O  O1a     5.71979   14.80410    4.71953
      O  O1b     5.30130   13.95992    5.54153
      O  O2a     4.49239   14.91018    1.72063
      O  O2b     4.26911   16.00850    2.15044
      O  O3a    -0.23221    3.00988    6.73622
      O  O3b    -0.26794    4.04411    6.12320
