# CIF file generated by openbabel 2.4.1, see http://openbabel.sf.net
data_I
_chemical_name_common '?'
_cell_length_a 25.5177
_cell_length_b 25.5177
_cell_length_c 6.9661
_cell_angle_alpha 90
_cell_angle_beta 90
_cell_angle_gamma 120
_space_group_name_H-M_alt 'P 1'
_space_group_name_Hall 'P 1'
loop_
    _symmetry_equiv_pos_as_xyz
    x,y,z
loop_
    _atom_site_label
    _atom_site_type_symbol
    _atom_site_fract_x
    _atom_site_fract_y
    _atom_site_fract_z
    _atom_site_occupancy
    Fe      Fe   0.38873   0.35262   0.14770   1.000
    O1      O    0.31820   0.29510   0.35000   1.000
    O2      O    0.30680   0.23180   0.58940   1.000
    O3      O    0.35450   0.27580   0.00090   1.000
    C1      C    0.31890   0.24890   0.41440   1.000
    C2      C    0.32760   0.20710   0.27800   1.000
    C3      C    0.34440   0.22240   0.08390   1.000
    C4      C    0.35120   0.18060   0.97230   1.000
    H       H    0.35960   0.18610   0.82450   1.000
    O1a     O    0.55910   0.66990   0.67750   0.901
    O1b     O    0.52360   0.63170   0.79550   0.901
    O2a     O    0.51340   0.67470   0.24700   0.866
    O2b     O    0.52950   0.72440   0.30870   0.866
    O3a     O    0.05900   0.13620   0.96700   0.221
    O3b     O    0.08100   0.18300   0.87900   0.221
    Fe      Fe   0.64738   0.03611   0.14770   1.000
    Fe      Fe   0.96389   0.61127   0.14770   1.000
    Fe      Fe   0.61127   0.64738   0.85230   1.000
    Fe      Fe   0.35262   0.96389   0.85230   1.000
    Fe      Fe   0.03611   0.38873   0.85230   1.000
    Fe      Fe   0.05540   0.68595   0.48103   1.000
    Fe      Fe   0.31405   0.36944   0.48103   1.000
    Fe      Fe   0.63056   0.94460   0.48103   1.000
    Fe      Fe   0.27794   0.98071   0.18563   1.000
    Fe      Fe   0.01929   0.29722   0.18563   1.000
    Fe      Fe   0.70278   0.72206   0.18563   1.000
    Fe      Fe   0.72206   0.01929   0.81437   1.000
    Fe      Fe   0.98071   0.70278   0.81437   1.000
    Fe      Fe   0.29722   0.27794   0.81437   1.000
    Fe      Fe   0.94460   0.31405   0.51897   1.000
    Fe      Fe   0.68595   0.63056   0.51897   1.000
    Fe      Fe   0.36944   0.05540   0.51897   1.000
    O1      O    0.70490   0.02310   0.35000   1.000
    O1      O    0.97690   0.68180   0.35000   1.000
    O1      O    0.68180   0.70490   0.65000   1.000
    O1      O    0.29510   0.97690   0.65000   1.000
    O1      O    0.02310   0.31820   0.65000   1.000
    O1      O    0.98487   0.62843   0.68333   1.000
    O1      O    0.37157   0.35643   0.68333   1.000
    O1      O    0.64357   0.01513   0.68333   1.000
    O1      O    0.34847   0.03823   0.98333   1.000
    O1      O    0.96177   0.31023   0.98333   1.000
    O1      O    0.68977   0.65153   0.98333   1.000
    O1      O    0.65153   0.96177   0.01667   1.000
    O1      O    0.03823   0.68977   0.01667   1.000
    O1      O    0.31023   0.34847   0.01667   1.000
    O1      O    0.01513   0.37157   0.31667   1.000
    O1      O    0.62843   0.64357   0.31667   1.000
    O1      O    0.35643   0.98487   0.31667   1.000
    O2      O    0.76820   0.07500   0.58940   1.000
    O2      O    0.92500   0.69320   0.58940   1.000
    O2      O    0.69320   0.76820   0.41060   1.000
    O2      O    0.23180   0.92500   0.41060   1.000
    O2      O    0.07500   0.30680   0.41060   1.000
    O2      O    0.97347   0.56513   0.92273   1.000
    O2      O    0.43487   0.40833   0.92273   1.000
    O2      O    0.59167   0.02653   0.92273   1.000
    O2      O    0.35987   0.10153   0.74393   1.000
    O2      O    0.89847   0.25833   0.74393   1.000
    O2      O    0.74167   0.64013   0.74393   1.000
    O2      O    0.64013   0.89847   0.25607   1.000
    O2      O    0.10153   0.74167   0.25607   1.000
    O2      O    0.25833   0.35987   0.25607   1.000
    O2      O    0.02653   0.43487   0.07727   1.000
    O2      O    0.56513   0.59167   0.07727   1.000
    O2      O    0.40833   0.97347   0.07727   1.000
    O3      O    0.72420   0.07870   0.00090   1.000
    O3      O    0.92130   0.64550   0.00090   1.000
    O3      O    0.64550   0.72420   0.99910   1.000
    O3      O    0.27580   0.92130   0.99910   1.000
    O3      O    0.07870   0.35450   0.99910   1.000
    O3      O    0.02117   0.60913   0.33423   1.000
    O3      O    0.39087   0.41203   0.33423   1.000
    O3      O    0.58797   0.97883   0.33423   1.000
    O3      O    0.31217   0.05753   0.33243   1.000
    O3      O    0.94247   0.25463   0.33243   1.000
    O3      O    0.74537   0.68783   0.33243   1.000
    O3      O    0.68783   0.94247   0.66757   1.000
    O3      O    0.05753   0.74537   0.66757   1.000
    O3      O    0.25463   0.31217   0.66757   1.000
    O3      O    0.97883   0.39087   0.66577   1.000
    O3      O    0.60913   0.58797   0.66577   1.000
    O3      O    0.41203   0.02117   0.66577   1.000
    C1      C    0.75110   0.07000   0.41440   1.000
    C1      C    0.93000   0.68110   0.41440   1.000
    C1      C    0.68110   0.75110   0.58560   1.000
    C1      C    0.24890   0.93000   0.58560   1.000
    C1      C    0.07000   0.31890   0.58560   1.000
    C1      C    0.98557   0.58223   0.74773   1.000
    C1      C    0.41777   0.40333   0.74773   1.000
    C1      C    0.59667   0.01443   0.74773   1.000
    C1      C    0.34777   0.08443   0.91893   1.000
    C1      C    0.91557   0.26333   0.91893   1.000
    C1      C    0.73667   0.65223   0.91893   1.000
    C1      C    0.65223   0.91557   0.08107   1.000
    C1      C    0.08443   0.73667   0.08107   1.000
    C1      C    0.26333   0.34777   0.08107   1.000
    C1      C    0.01443   0.41777   0.25227   1.000
    C1      C    0.58223   0.59667   0.25227   1.000
    C1      C    0.40333   0.98557   0.25227   1.000
    C2      C    0.79290   0.12050   0.27800   1.000
    C2      C    0.87950   0.67240   0.27800   1.000
    C2      C    0.67240   0.79290   0.72200   1.000
    C2      C    0.20710   0.87950   0.72200   1.000
    C2      C    0.12050   0.32760   0.72200   1.000
    C2      C    0.99427   0.54043   0.61133   1.000
    C2      C    0.45957   0.45383   0.61133   1.000
    C2      C    0.54617   0.00573   0.61133   1.000
    C2      C    0.33907   0.12623   0.05533   1.000
    C2      C    0.87377   0.21283   0.05533   1.000
    C2      C    0.78717   0.66093   0.05533   1.000
    C2      C    0.66093   0.87377   0.94467   1.000
    C2      C    0.12623   0.78717   0.94467   1.000
    C2      C    0.21283   0.33907   0.94467   1.000
    C2      C    0.00573   0.45957   0.38867   1.000
    C2      C    0.54043   0.54617   0.38867   1.000
    C2      C    0.45383   0.99427   0.38867   1.000
    C3      C    0.77760   0.12200   0.08390   1.000
    C3      C    0.87800   0.65560   0.08390   1.000
    C3      C    0.65560   0.77760   0.91610   1.000
    C3      C    0.22240   0.87800   0.91610   1.000
    C3      C    0.12200   0.34440   0.91610   1.000
    C3      C    0.01107   0.55573   0.41723   1.000
    C3      C    0.44427   0.45533   0.41723   1.000
    C3      C    0.54467   0.98893   0.41723   1.000
    C3      C    0.32227   0.11093   0.24943   1.000
    C3      C    0.88907   0.21133   0.24943   1.000
    C3      C    0.78867   0.67773   0.24943   1.000
    C3      C    0.67773   0.88907   0.75057   1.000
    C3      C    0.11093   0.78867   0.75057   1.000
    C3      C    0.21133   0.32227   0.75057   1.000
    C3      C    0.98893   0.44427   0.58277   1.000
    C3      C    0.55573   0.54467   0.58277   1.000
    C3      C    0.45533   0.01107   0.58277   1.000
    C4      C    0.81940   0.17060   0.97230   1.000
    C4      C    0.82940   0.64880   0.97230   1.000
    C4      C    0.64880   0.81940   0.02770   1.000
    C4      C    0.18060   0.82940   0.02770   1.000
    C4      C    0.17060   0.35120   0.02770   1.000
    C4      C    0.01787   0.51393   0.30563   1.000
    C4      C    0.48607   0.50393   0.30563   1.000
    C4      C    0.49607   0.98213   0.30563   1.000
    C4      C    0.31547   0.15273   0.36103   1.000
    C4      C    0.84727   0.16273   0.36103   1.000
    C4      C    0.83727   0.68453   0.36103   1.000
    C4      C    0.68453   0.84727   0.63897   1.000
    C4      C    0.15273   0.83727   0.63897   1.000
    C4      C    0.16273   0.31547   0.63897   1.000
    C4      C    0.98213   0.48607   0.69437   1.000
    C4      C    0.51393   0.49607   0.69437   1.000
    C4      C    0.50393   0.01787   0.69437   1.000
    H       H    0.81390   0.17350   0.82450   1.000
    H       H    0.82650   0.64040   0.82450   1.000
    H       H    0.64040   0.81390   0.17550   1.000
    H       H    0.18610   0.82650   0.17550   1.000
    H       H    0.17350   0.35960   0.17550   1.000
    H       H    0.02627   0.51943   0.15783   1.000
    H       H    0.48057   0.50683   0.15783   1.000
    H       H    0.49317   0.97373   0.15783   1.000
    H       H    0.30707   0.14723   0.50883   1.000
    H       H    0.85277   0.15983   0.50883   1.000
    H       H    0.84017   0.69293   0.50883   1.000
    H       H    0.69293   0.85277   0.49117   1.000
    H       H    0.14723   0.84017   0.49117   1.000
    H       H    0.15983   0.30707   0.49117   1.000
    H       H    0.97373   0.48057   0.84217   1.000
    H       H    0.51943   0.49317   0.84217   1.000
    H       H    0.50683   0.02627   0.84217   1.000
    O1a     O    0.33010   0.88920   0.67750   0.901
    O1a     O    0.11080   0.44090   0.67750   0.901
    O1a     O    0.44090   0.33010   0.32250   0.901
    O1a     O    0.66990   0.11080   0.32250   0.901
    O1a     O    0.88920   0.55910   0.32250   0.901
    O1a     O    0.22577   0.00323   0.01083   0.901
    O1a     O    0.99677   0.22253   0.01083   0.901
    O1a     O    0.77747   0.77423   0.01083   0.901
    O1a     O    0.10757   0.66343   0.65583   0.901
    O1a     O    0.33657   0.44413   0.65583   0.901
    O1a     O    0.55587   0.89243   0.65583   0.901
    O1a     O    0.89243   0.33657   0.34417   0.901
    O1a     O    0.66343   0.55587   0.34417   0.901
    O1a     O    0.44413   0.10757   0.34417   0.901
    O1a     O    0.77423   0.99677   0.98917   0.901
    O1a     O    0.00323   0.77747   0.98917   0.901
    O1a     O    0.22253   0.22577   0.98917   0.901
    O1b     O    0.36830   0.89190   0.79550   0.901
    O1b     O    0.10810   0.47640   0.79550   0.901
    O1b     O    0.47640   0.36830   0.20450   0.901
    O1b     O    0.63170   0.10810   0.20450   0.901
    O1b     O    0.89190   0.52360   0.20450   0.901
    O1b     O    0.19027   0.96503   0.12883   0.901
    O1b     O    0.03497   0.22523   0.12883   0.901
    O1b     O    0.77477   0.80973   0.12883   0.901
    O1b     O    0.14307   0.70163   0.53783   0.901
    O1b     O    0.29837   0.44143   0.53783   0.901
    O1b     O    0.55857   0.85693   0.53783   0.901
    O1b     O    0.85693   0.29837   0.46217   0.901
    O1b     O    0.70163   0.55857   0.46217   0.901
    O1b     O    0.44143   0.14307   0.46217   0.901
    O1b     O    0.80973   0.03497   0.87117   0.901
    O1b     O    0.96503   0.77477   0.87117   0.901
    O1b     O    0.22523   0.19027   0.87117   0.901
    O2a     O    0.32530   0.83870   0.24700   0.866
    O2a     O    0.16130   0.48660   0.24700   0.866
    O2a     O    0.48660   0.32530   0.75300   0.866
    O2a     O    0.67470   0.16130   0.75300   0.866
    O2a     O    0.83870   0.51340   0.75300   0.866
    O2a     O    0.18007   0.00803   0.58033   0.866
    O2a     O    0.99197   0.17203   0.58033   0.866
    O2a     O    0.82797   0.81993   0.58033   0.866
    O2a     O    0.15327   0.65863   0.08633   0.866
    O2a     O    0.34137   0.49463   0.08633   0.866
    O2a     O    0.50537   0.84673   0.08633   0.866
    O2a     O    0.84673   0.34137   0.91367   0.866
    O2a     O    0.65863   0.50537   0.91367   0.866
    O2a     O    0.49463   0.15327   0.91367   0.866
    O2a     O    0.81993   0.99197   0.41967   0.866
    O2a     O    0.00803   0.82797   0.41967   0.866
    O2a     O    0.17203   0.18007   0.41967   0.866
    O2b     O    0.27560   0.80510   0.30870   0.866
    O2b     O    0.19490   0.47050   0.30870   0.866
    O2b     O    0.47050   0.27560   0.69130   0.866
    O2b     O    0.72440   0.19490   0.69130   0.866
    O2b     O    0.80510   0.52950   0.69130   0.866
    O2b     O    0.19617   0.05773   0.64203   0.866
    O2b     O    0.94227   0.13843   0.64203   0.866
    O2b     O    0.86157   0.80383   0.64203   0.866
    O2b     O    0.13717   0.60893   0.02463   0.866
    O2b     O    0.39107   0.52823   0.02463   0.866
    O2b     O    0.47177   0.86283   0.02463   0.866
    O2b     O    0.86283   0.39107   0.97537   0.866
    O2b     O    0.60893   0.47177   0.97537   0.866
    O2b     O    0.52823   0.13717   0.97537   0.866
    O2b     O    0.80383   0.94227   0.35797   0.866
    O2b     O    0.05773   0.86157   0.35797   0.866
    O2b     O    0.13843   0.19617   0.35797   0.866
    O3a     O    0.86380   0.92280   0.96700   0.221
    O3a     O    0.07720   0.94100   0.96700   0.221
    O3a     O    0.94100   0.86380   0.03300   0.221
    O3a     O    0.13620   0.07720   0.03300   0.221
    O3a     O    0.92280   0.05900   0.03300   0.221
    O3a     O    0.72567   0.46953   0.30033   0.221
    O3a     O    0.53047   0.25613   0.30033   0.221
    O3a     O    0.74387   0.27433   0.30033   0.221
    O3a     O    0.60767   0.19713   0.36633   0.221
    O3a     O    0.80287   0.41053   0.36633   0.221
    O3a     O    0.58947   0.39233   0.36633   0.221
    O3a     O    0.39233   0.80287   0.63367   0.221
    O3a     O    0.19713   0.58947   0.63367   0.221
    O3a     O    0.41053   0.60767   0.63367   0.221
    O3a     O    0.27433   0.53047   0.69967   0.221
    O3a     O    0.46953   0.74387   0.69967   0.221
    O3a     O    0.25613   0.72567   0.69967   0.221
    O3b     O    0.81700   0.89800   0.87900   0.221
    O3b     O    0.10200   0.91900   0.87900   0.221
    O3b     O    0.91900   0.81700   0.12100   0.221
    O3b     O    0.18300   0.10200   0.12100   0.221
    O3b     O    0.89800   0.08100   0.12100   0.221
    O3b     O    0.74767   0.51633   0.21233   0.221
    O3b     O    0.48367   0.23133   0.21233   0.221
    O3b     O    0.76867   0.25233   0.21233   0.221
    O3b     O    0.58567   0.15033   0.45433   0.221
    O3b     O    0.84967   0.43533   0.45433   0.221
    O3b     O    0.56467   0.41433   0.45433   0.221
    O3b     O    0.41433   0.84967   0.54567   0.221
    O3b     O    0.15033   0.56467   0.54567   0.221
    O3b     O    0.43533   0.58567   0.54567   0.221
    O3b     O    0.25233   0.48367   0.78767   0.221
    O3b     O    0.51633   0.76867   0.78767   0.221
    O3b     O    0.23133   0.74767   0.78767   0.221
