data_MOF_publ
_cell_length_a  10.0
_cell_length_b  10.0
_cell_length_c  10.0
_cell_angle_alpha   90.0
_cell_angle_beta    90.0
_cell_angle_gamma   90.0

_symmetry_space_group_name_H-M  'P1'

loop_
_symmetry_equiv_pos_as_xyz
    'x,y,z'

loop_
_atom_site_type_symbol
_atom_site_label
_atom_site_fract_x
_atom_site_fract_y
_atom_site_fract_z
    C   C1  0.1     0.1     0.1
    H   H1  0.05    0.05    0.05
    O   O1  0.5     0.5     0.5
    O   O2  1.0     1.0     1.0
    O   O3  1.0     1.0     0.0
    O   O4  1.0     0.0     1.0
    O   O5  0.0     1.0     1.0

loop_
_geom_bond_atom_site_label_1
_geom_bond_atom_site_label_2
    C1  O1
    C1  O2
    C1  O3
    C1  O4
    C1  O5
