data_ZnCo_ZIF-71
_audit_creation_date              2017-09-16
_audit_creation_method            'Materials Studio'
_symmetry_space_group_name_H-M    'P1'
_symmetry_Int_Tables_number       1
_symmetry_cell_setting            triclinic
loop_
_symmetry_equiv_pos_as_xyz
  x,y,z
_cell_length_a                    28.5539
_cell_length_b                    28.5539
_cell_length_c                    28.5539
_cell_angle_alpha                 90.0000
_cell_angle_beta                  90.0000
_cell_angle_gamma                 90.0000
loop_
_atom_site_label
_atom_site_type_symbol
_atom_site_fract_x
_atom_site_fract_y
_atom_site_fract_z
_atom_site_charge					
Zn1							Zn	0.39513	0.10813	0.25038	0.223877
N2							N	0.37933	0.04376	0.2391	0.485315
C3							C	0.33954	0.02772	0.21972	-0.304731
Cl4							Cl	0.29405	0.06366	0.1997	0.051745
N5							N	0.45876	0.10776	0.27363	0.14508
C6							C	0.4738	0.08904	0.31411	-0.060343
Cl7							Cl	0.43688	0.06556	0.35673	-0.032794
N8							N	0.35007	0.13111	0.29726	0.183552
C9							C	0.34771	0.17314	0.31843	-0.044113
Cl10							Cl	0.38638	0.2194	0.30701	-0.045869
N11							N	0.39504	0.14206	0.19045	0.088272
C12							C	0.41292	0.12211	0.15165	-0.275496
Cl13							Cl	0.4361	0.06536	0.14905	0.094558
Zn14							Zn	0.60441	0.89247	0.24832	0.145972
N15							N	0.621	0.95654	0.23713	0.461863
C16							C	0.66073	0.97288	0.21803	-0.271675
Cl17							Cl	0.70641	0.93733	0.19779	0.048783
N18							N	0.54162	0.89397	0.27155	0.259823
C19							C	0.52705	0.91242	0.31233	-0.119582
Cl20							Cl	0.56452	0.9344	0.35541	0.017612
N21							N	0.64692	0.8689	0.29624	0.205328
C22							C	0.6469	0.8274	0.31853	-0.065056
Cl23							Cl	0.60755	0.78194	0.30622	-0.028966
N24							N	0.60442	0.85797	0.18877	0.128356
C25							C	0.58656	0.87758	0.14981	-0.287815
Cl26							Cl	0.56384	0.9345	0.14673	0.090411
Zn27							Zn	0.60412	0.10643	0.75151	0.120171
N28							N	0.62111	0.04231	0.76261	0.542768
C29							C	0.66107	0.02694	0.78201	-0.296024
Cl30							Cl	0.70618	0.06324	0.80221	0.04401
N31							N	0.54128	0.10498	0.72843	0.274405
C32							C	0.52665	0.08726	0.68735	-0.106941
Cl33							Cl	0.56405	0.06633	0.6437	0.004113
N34							N	0.64637	0.13033	0.70356	0.206418
C35							C	0.64609	0.17186	0.68133	-0.064738
Cl36							Cl	0.60649	0.21707	0.69373	-0.026249
N37							N	0.60425	0.14101	0.81101	0.130664
C38							C	0.58646	0.12148	0.85002	-0.291376
Cl39							Cl	0.56377	0.06456	0.85325	0.087593
Zn40							Zn	0.39497	0.89291	0.74969	0.20887
N41							N	0.37901	0.95723	0.76121	0.474682
C42							C	0.33934	0.97358	0.78056	-0.291348
Cl43							Cl	0.29364	0.93794	0.80072	0.048739
N44							N	0.45862	0.89353	0.72647	0.158595
C45							C	0.47366	0.91239	0.68606	-0.050354
Cl46							Cl	0.43671	0.93571	0.64336	-0.042946
N47							N	0.34999	0.86993	0.70274	0.190261
C48							C	0.34781	0.82796	0.68145	-0.042946
Cl49							Cl	0.3867	0.78184	0.69273	-0.046067
N50							N	0.39496	0.85868	0.80945	0.096392
C51							C	0.41298	0.87848	0.84824	-0.287748
Cl52							Cl	0.43618	0.93522	0.85093	0.097621
Co53							Co	0.25373	0.38869	0.12017	0.429109
N54							N	0.23876	0.37655	0.05431	0.117989
C55							C	0.21717	0.33787	0.0385	-0.376461
Cl56							Cl	0.19909	0.2912	0.07392	0.07335
N57							N	0.27149	0.45409	0.10516	0.122945
C58							C	0.31066	0.47123	0.08435	-0.109805
Cl59							Cl	0.36073	0.44011	0.06723	-0.095017
N60							N	0.31611	0.36382	0.1146	0.667175
C61							C	0.34576	0.36718	0.15111	-0.342607
Cl62							Cl	0.33882	0.40721	0.19713	-0.009357
N63							N	0.19084	0.40652	0.13631	0.05154
C64							C	0.15239	0.42074	0.11295	-0.055425
Cl65							Cl	0.14863	0.43457	0.05349	0.07548
Co66							Co	0.25402	0.61135	0.87999	0.432769
N67							N	0.23907	0.62299	0.94594	0.116094
C68							C	0.2178	0.66151	0.96265	-0.366799
Cl69							Cl	0.19997	0.70879	0.92785	0.061631
N70							N	0.2719	0.54588	0.89473	0.108009
C71							C	0.31105	0.52873	0.91557	-0.096421
Cl72							Cl	0.3611	0.55987	0.93278	-0.105594
N73							N	0.31637	0.63635	0.88571	0.672101
C74							C	0.34615	0.63294	0.8493	-0.346795
Cl75							Cl	0.33944	0.59274	0.80339	-0.009244
N76							N	0.19117	0.59348	0.86372	0.039634
C77							C	0.15271	0.57914	0.88699	-0.052424
Cl78							Cl	0.14883	0.56522	0.94642	0.074275
Co79							Co	0.7587	0.61629	0.11561	0.526432
N80							N	0.76636	0.62591	0.04825	0.243769
C81							C	0.77865	0.6667	0.02828	-0.452135
Cl82							Cl	0.79439	0.71736	0.05912	0.048241
N83							N	0.73447	0.55239	0.10366	0.239375
C84							C	0.69354	0.53866	0.08346	-0.294612
Cl85							Cl	0.64896	0.57447	0.06124	0.142497
N86							N	0.69605	0.6437	0.11627	0.313615
C87							C	0.66773	0.63898	0.15369	-0.332831
Cl88							Cl	0.67854	0.60026	0.20009	0.018466
N89							N	0.82341	0.59489	0.12596	-0.012798
C90							C	0.86452	0.60621	0.105	-0.117839
Cl91							Cl	0.87338	0.61491	0.04493	-0.040594
Co92							Co	0.75876	0.38323	0.88441	0.526996
N93							N	0.76631	0.37416	0.95185	0.228043
C94							C	0.77835	0.33371	0.97273	-0.453869
Cl95							Cl	0.79367	0.28246	0.94258	0.037983
N96							N	0.73428	0.44714	0.89607	0.234097
C97							C	0.69329	0.46081	0.91623	-0.283424
Cl98							Cl	0.64866	0.42493	0.93828	0.129045
N99							N	0.69615	0.3556	0.88377	0.301224
C100							C	0.66781	0.36027	0.84635	-0.321291
Cl101							Cl	0.67856	0.39901	0.79995	0.018044
N102							N	0.82348	0.40479	0.87405	-0.007012
C103							C	0.86461	0.39338	0.89494	-0.120097
Cl104							Cl	0.87345	0.38418	0.95494	-0.040468
Co105							Co	0.10807	0.25707	0.37468	0.394827
N106							N	0.03895	0.24424	0.36577	0.243239
C107							C	0.02199	0.22149	0.32814	-0.191562
Cl108							Cl	0.05747	0.19834	0.28376	-0.006614
N109							N	0.0994	0.27434	0.44139	0.09545
C110							C	0.08022	0.31364	0.45999	-0.033177
Cl111							Cl	0.05613	0.36141	0.42984	-0.030175
N112							N	0.10524	0.32096	0.35257	0.67459
C113							C	0.14256	0.34896	0.36031	-0.443305
Cl114							Cl	0.18561	0.33785	0.4027	0.032327
N115							N	0.12767	0.19325	0.38921	0.149417
C116							C	0.10931	0.15563	0.41056	-0.152125
Cl117							Cl	0.05338	0.1529	0.43423	0.019159
Zn118							Zn	0.89991	0.2485	0.58888	0.040868
N119							N	0.96134	0.23196	0.60366	0.504193
C120							C	0.97795	0.21157	0.64271	-0.31192
Cl121							Cl	0.94252	0.1897	0.68781	0.039124
N122							N	0.89989	0.27004	0.52433	0.307425
C123							C	0.91906	0.31057	0.51069	-0.17659
Cl124							Cl	0.94108	0.35284	0.5492	-0.04416
N125							N	0.88572	0.2983	0.63267	0.355151
C126							C	0.85	0.32848	0.62897	-0.03036
Cl127							Cl	0.80633	0.3249	0.58599	0.025689
N128							N	0.86211	0.19289	0.59443	0.051256
C129							C	0.87842	0.15121	0.5798	0.023325
Cl130							Cl	0.93352	0.14183	0.55446	-0.029501
Co131							Co	0.10809	0.74317	0.6251	0.402623
N132							N	0.039	0.75597	0.63416	0.22827
C133							C	0.02202	0.77871	0.67178	-0.192653
Cl134							Cl	0.05748	0.80201	0.71611	-0.007311
N135							N	0.09908	0.72594	0.55839	0.074869
C136							C	0.07974	0.68669	0.53984	-0.031908
Cl137							Cl	0.05613	0.63872	0.57005	-0.033527
N138							N	0.10528	0.67927	0.64724	0.675229
C139							C	0.14259	0.65125	0.63947	-0.443352
Cl140							Cl	0.18551	0.66229	0.59692	0.033145
N141							N	0.12771	0.80703	0.61055	0.158446
C142							C	0.1093	0.84465	0.58926	-0.165535
Cl143							Cl	0.05336	0.84735	0.56563	0.029266
Zn144							Zn	0.9007	0.75151	0.41095	0.059684
N145							N	0.96212	0.76797	0.39532	0.56277
C146							C	0.97682	0.78944	0.35613	-0.32933
Cl147							Cl	0.9401	0.81044	0.31171	0.045289
N148							N	0.90081	0.73003	0.47554	0.289991
C149							C	0.91959	0.68933	0.48921	-0.152459
Cl150							Cl	0.94103	0.64675	0.45072	-0.047926
N151							N	0.88603	0.7017	0.36735	0.345054
C152							C	0.85016	0.6717	0.37111	-0.033208
Cl153							Cl	0.80661	0.67546	0.4142	0.026104
N154							N	0.86277	0.8071	0.4056	0.029886
C155							C	0.87896	0.84873	0.42046	0.031006
Cl156							Cl	0.93402	0.85803	0.44591	-0.025682
Co157							Co	0.114	0.37572	0.74894	0.511598
N158							N	0.04542	0.36396	0.75918	0.144544
C159							C	0.02862	0.32224	0.77333	-0.114627
Cl160							Cl	0.0646	0.27457	0.78744	-0.02072
N161							N	0.10165	0.44117	0.73054	0.236586
C162							C	0.08089	0.45798	0.69118	-0.014699
Cl163							Cl	0.05833	0.42585	0.64407	-0.009279
N164							N	0.1137	0.35372	0.68487	0.452895
C165							C	0.15078	0.36272	0.657	-0.331261
Cl166							Cl	0.19343	0.40515	0.66931	-0.008166
N167							N	0.1294	0.39167	0.8137	-0.146778
C168							C	0.10753	0.41268	0.84967	0.012234
Cl169							Cl	0.05033	0.43468	0.84837	0.084345
Zn170							Zn	0.89645	0.58487	0.75384	0.072484
N171							N	0.95596	0.60235	0.77118	0.726014
C172							C	0.9709	0.64187	0.79175	-0.299358
Cl173							Cl	0.93435	0.68752	0.81029	0.025468
N174							N	0.90072	0.52108	0.73282	0.427387
C175							C	0.91934	0.50615	0.69237	-0.300975
Cl176							Cl	0.93776	0.54304	0.64703	-0.005959
N177							N	0.88231	0.62559	0.70224	0.324499
C178							C	0.84906	0.6183	0.67001	-0.008125
Cl179							Cl	0.806	0.57477	0.67427	-0.008453
N180							N	0.85912	0.58847	0.81025	-0.061766
C181							C	0.87707	0.57091	0.85019	-0.176744
Cl182							Cl	0.93093	0.54169	0.85504	0.047437
Co183							Co	0.11409	0.62449	0.25095	0.509619
N184							N	0.04566	0.63667	0.24056	0.18141
C185							C	0.02975	0.6785	0.22591	-0.13631
Cl186							Cl	0.06625	0.72566	0.21156	-0.011053
N187							N	0.10153	0.55911	0.26936	0.224414
C188							C	0.08075	0.54233	0.30872	-0.007827
Cl189							Cl	0.05816	0.57452	0.35578	-0.010791
N190							N	0.11369	0.64655	0.31501	0.449238
C191							C	0.15065	0.63756	0.34304	-0.329171
Cl192							Cl	0.19339	0.59517	0.33091	-0.007242
N193							N	0.12936	0.60849	0.18617	-0.145846
C194							C	0.10738	0.5874	0.15031	0.016852
Cl195							Cl	0.05026	0.56524	0.15189	0.082355
Zn196							Zn	0.89647	0.41515	0.24612	0.037358
N197							N	0.95619	0.3981	0.2292	0.745721
C198							C	0.97219	0.35872	0.20907	-0.311587
Cl199							Cl	0.93628	0.31295	0.18948	0.01917
N200							N	0.9005	0.47895	0.2672	0.456736
C201							C	0.91907	0.49387	0.30767	-0.330714
Cl202							Cl	0.93744	0.45697	0.35303	-0.00178
N203							N	0.88224	0.37433	0.29764	0.34811
C204							C	0.84894	0.38159	0.32982	-0.009437
Cl205							Cl	0.80589	0.42513	0.32554	-0.008209
N206							N	0.85946	0.41135	0.18951	-0.058994
C207							C	0.8775	0.42884	0.14957	-0.173106
Cl208							Cl	0.93127	0.45823	0.14485	0.044006
Co209							Co	0.38524	0.25749	0.8799	0.467679
N210							N	0.3772	0.24217	0.94641	0.039316
C211							C	0.33938	0.22176	0.96563	-0.303942
Cl212							Cl	0.29105	0.20235	0.93318	0.04156
N213							N	0.45119	0.27761	0.89235	-0.046815
C214							C	0.46739	0.3175	0.9126	-0.013942
Cl215							Cl	0.43424	0.36503	0.93269	-0.084569
N216							N	0.35744	0.31912	0.88666	0.650936
C217							C	0.35862	0.34894	0.85012	-0.419817
Cl218							Cl	0.39879	0.34454	0.8039	0.015005
N219							N	0.40341	0.19473	0.86164	0.116979
C220							C	0.41826	0.15568	0.88353	-0.017588
Cl221							Cl	0.43697	0.15184	0.94172	0.091629
Co222							Co	0.61279	0.25969	0.1211	0.412066
N223							N	0.62162	0.24514	0.05418	0.20775
C224							C	0.65886	0.22276	0.03598	-0.341223
Cl225							Cl	0.70566	0.20187	0.06972	0.030815
N226							N	0.54715	0.2786	0.10828	0.107755
C227							C	0.53057	0.31812	0.0874	-0.192495
Cl228							Cl	0.56282	0.36601	0.0662	0.023813
N229							N	0.63741	0.32223	0.11539	0.698797
C230							C	0.63407	0.35224	0.15167	-0.465657
Cl231							Cl	0.59399	0.3458	0.19773	0.022937
N232							N	0.59652	0.19626	0.13885	0.107951
C233							C	0.58174	0.15711	0.11711	-0.046744
Cl234							Cl	0.5622	0.15328	0.05921	0.095309
Co235							Co	0.61271	0.74054	0.87867	0.412979
N236							N	0.62172	0.75529	0.94543	0.202717
C237							C	0.65902	0.77715	0.96406	-0.33092
Cl238							Cl	0.70604	0.79834	0.93084	0.035845
N239							N	0.54715	0.72203	0.89224	0.118629
C240							C	0.53068	0.68299	0.91404	-0.216332
Cl241							Cl	0.56304	0.63541	0.93579	0.037701
N242							N	0.6371	0.67788	0.88457	0.686973
C243							C	0.63323	0.64755	0.84861	-0.444982
Cl244							Cl	0.59268	0.65374	0.80294	0.020358
N245							N	0.59657	0.80401	0.86088	0.103792
C246							C	0.58165	0.84305	0.88269	-0.044659
Cl247							Cl	0.5622	0.84666	0.94064	0.09322
Co248							Co	0.38528	0.74175	0.11996	0.464678
N249							N	0.37729	0.7568	0.05329	0.075717
C250							C	0.33955	0.77789	0.03456	-0.309531
Cl251							Cl	0.29147	0.79699	0.06757	0.032129
N252							N	0.45125	0.72132	0.10812	-0.059028
C253							C	0.46756	0.681	0.0888	0.000426
Cl254							Cl	0.43457	0.63302	0.06952	-0.091658
N255							N	0.35729	0.68024	0.11341	0.642494
C256							C	0.35802	0.65073	0.15022	-0.411629
Cl257							Cl	0.39777	0.65536	0.19677	0.013626
N258							N	0.40358	0.80447	0.13815	0.131659
C259							C	0.41831	0.84363	0.11635	-0.032215
Cl260							Cl	0.43677	0.84779	0.05811	0.093153
Zn261							Zn	0.25361	0.10299	0.60313	0.134805
N262							N	0.24117	0.03926	0.62052	0.389864
C263							C	0.22165	0.02467	0.66082	-0.160618
Cl264							Cl	0.20291	0.06222	0.70559	0.037477
N265							N	0.2741	0.10387	0.53908	0.303301
C266							C	0.3142	0.08692	0.52149	-0.157392
Cl267							Cl	0.35928	0.06313	0.55546	-0.023862
N268							N	0.30128	0.12616	0.6466	0.238202
C269							C	0.32451	0.16713	0.64658	-0.084648
Cl270							Cl	0.31557	0.2115	0.60515	-0.028704
N271							N	0.1954	0.13736	0.603	0.134253
C272							C	0.15628	0.11772	0.58554	-0.258339
Cl273							Cl	0.15131	0.05948	0.56689	0.032954
Zn274							Zn	0.25402	0.89631	0.39691	0.148046
N275							N	0.24174	0.95989	0.37943	0.328713
C276							C	0.22246	0.97535	0.33932	-0.133816
Cl277							Cl	0.20364	0.93839	0.29409	0.037545
N278							N	0.27443	0.89599	0.461	0.287896
C279							C	0.31421	0.91372	0.47856	-0.151697
Cl280							Cl	0.35907	0.9378	0.44447	-0.023045
N281							N	0.30167	0.87295	0.35352	0.221827
C282							C	0.32476	0.83191	0.3535	-0.077667
Cl283							Cl	0.31563	0.78751	0.39486	-0.029833
N284							N	0.1957	0.86221	0.39717	0.136144
C285							C	0.15674	0.88207	0.41475	-0.273511
Cl286							Cl	0.15214	0.94034	0.43342	0.039633
Zn287							Zn	0.75299	0.1024	0.39513	0.180936
N288							N	0.76263	0.03804	0.37914	0.432922
C289							C	0.78082	0.0214	0.33907	-0.257721
Cl290							Cl	0.80251	0.05673	0.29383	0.022768
N291							N	0.72872	0.10331	0.45816	0.209474
C292							C	0.68735	0.08589	0.47229	-0.143144
Cl293							Cl	0.64538	0.06227	0.43452	0.017157
N294							N	0.70524	0.12609	0.35094	0.284643
C295							C	0.68289	0.16756	0.35138	-0.098741
Cl296							Cl	0.69433	0.21203	0.3921	-0.015634
N297							N	0.81373	0.1359	0.39492	0.108339
C298							C	0.85421	0.12044	0.41389	-0.070985
Cl299							Cl	0.86083	0.06529	0.43987	-0.05072
Zn300							Zn	0.75288	0.89729	0.6048	0.178148
N301							N	0.76276	0.96148	0.62106	0.449178
C302							C	0.78132	0.97717	0.6613	-0.274751
Cl303							Cl	0.80237	0.94122	0.70631	0.033268
N304							N	0.72876	0.89646	0.5417	0.198723
C305							C	0.68733	0.91362	0.52744	-0.123253
Cl306							Cl	0.64506	0.9369	0.56508	0.001729
N307							N	0.70496	0.87382	0.64895	0.275006
C308							C	0.68232	0.83251	0.64851	-0.094346
Cl309							Cl	0.69351	0.78793	0.60785	-0.015179
N310							N	0.81357	0.86376	0.60502	0.120799
C311							C	0.85409	0.87942	0.58632	-0.076704
Cl312							Cl	0.86071	0.93472	0.56068	-0.049911
Zn313							Zn	0.60124	0.899	0.75049	0.150713
N314							N	0.61912	0.96266	0.76272	0.424928
C315							C	0.65976	0.97623	0.78217	-0.171065
Cl316							Cl	0.70329	0.93791	0.80216	0.023611
N317							N	0.53791	0.89786	0.72713	0.26406
C318							C	0.52181	0.91503	0.68646	-0.167395
Cl319							Cl	0.55711	0.94129	0.64393	-0.003355
N320							N	0.64637	0.87469	0.70373	0.282813
C321							C	0.64678	0.83306	0.68158	-0.165157
Cl322							Cl	0.60453	0.78936	0.69003	0.000083
N323							N	0.59934	0.8644	0.8093	0.186348
C324							C	0.58271	0.87963	0.85085	-0.214052
Cl325							Cl	0.56339	0.93693	0.86115	-0.049286
Zn326							Zn	0.39972	0.09992	0.75132	0.063401
N327							N	0.38143	0.0363	0.76245	0.46107
C328							C	0.34082	0.02178	0.78132	-0.151982
Cl329							Cl	0.29717	0.05951	0.80221	0.004013
N330							N	0.4624	0.10059	0.72853	0.395275
C331							C	0.47855	0.08461	0.6874	-0.242942
Cl332							Cl	0.44318	0.06083	0.6434	0.038858
N333							N	0.35699	0.12509	0.70383	0.303665
C334							C	0.35843	0.16644	0.68124	-0.172237
Cl335							Cl	0.40113	0.20942	0.69106	0.011975
N336							N	0.40127	0.13441	0.81002	0.232352
C337							C	0.41761	0.11916	0.85165	-0.237967
Cl338							Cl	0.43667	0.0618	0.86208	-0.054688
Zn339							Zn	0.40006	0.89895	0.2487	0.055833
N340							N	0.38175	0.96242	0.23724	0.420759
C341							C	0.34108	0.97683	0.21851	-0.145363
Cl342							Cl	0.29725	0.93908	0.19813	0.0157
N343							N	0.46274	0.89843	0.27147	0.391111
C344							C	0.47894	0.9151	0.3123	-0.234913
Cl345							Cl	0.44363	0.93982	0.35585	0.035361
N346							N	0.35733	0.87388	0.29624	0.304381
C347							C	0.35866	0.83251	0.31882	-0.176998
Cl348							Cl	0.40117	0.78937	0.30889	0.013453
N349							N	0.40163	0.86456	0.19002	0.244793
C350							C	0.41779	0.88	0.14839	-0.23737
Cl351							Cl	0.43672	0.93744	0.1381	-0.051302
Zn352							Zn	0.60129	0.10167	0.24947	0.156547
N353							N	0.61858	0.0379	0.23742	0.440564
C354							C	0.65917	0.02378	0.21814	-0.179644
Cl355							Cl	0.7029	0.06189	0.19818	0.018859
N356							N	0.53804	0.10332	0.27295	0.241003
C357							C	0.52194	0.08635	0.3137	-0.144454
Cl358							Cl	0.55719	0.05997	0.3562	-0.020301
N359							N	0.64668	0.12567	0.29612	0.28996
C360							C	0.64738	0.16729	0.31828	-0.164602
Cl361							Cl	0.60542	0.21128	0.30985	0.001782
N362							N	0.59947	0.136	0.19056	0.175057
C363							C	0.58289	0.12062	0.14904	-0.20968
Cl364							Cl	0.56361	0.06327	0.1389	-0.049061
Zn365							Zn	0.75091	0.59136	0.90749	0.021387
N366							N	0.76479	0.61578	0.96906	0.234912
C367							C	0.77832	0.66001	0.97796	0.144354
Cl368							Cl	0.79321	0.70118	0.93498	-0.017291
N369							N	0.73445	0.52595	0.90798	0.44774
C370							C	0.69383	0.50837	0.92319	-0.124259
Cl371							Cl	0.6488	0.54201	0.94764	-0.033088
N372							N	0.69765	0.62661	0.88625	0.465923
C373							C	0.66972	0.6161	0.84997	-0.0558
Cl374							Cl	0.6806	0.5707	0.81012	0.020292
N375							N	0.80576	0.59451	0.86875	-0.098189
C376							C	0.84505	0.57484	0.88539	0.050853
Cl377							Cl	0.85069	0.5505	0.94151	-0.012002
Zn378							Zn	0.75136	0.40832	0.09222	0.087758
N379							N	0.76491	0.38422	0.0305	0.195912
C380							C	0.77803	0.34004	0.02059	0.179385
Cl381							Cl	0.79263	0.29815	0.06301	-0.026511
N382							N	0.73481	0.47362	0.09182	0.42106
C383							C	0.69419	0.4911	0.07651	-0.124719
Cl384							Cl	0.64933	0.45738	0.05188	-0.022115
N385							N	0.69819	0.37317	0.11357	0.419003
C386							C	0.67069	0.38351	0.15021	-0.027135
Cl387							Cl	0.68217	0.42856	0.19031	0.017444
N388							N	0.80627	0.40511	0.13087	-0.134664
C389							C	0.84557	0.42479	0.11429	0.061963
Cl390							Cl	0.85125	0.44914	0.05818	-0.01543
Zn391							Zn	0.24079	0.40394	0.91104	0.287922
N392							N	0.23121	0.38329	0.97493	0.187651
C393							C	0.21247	0.34213	0.98804	-0.020777
Cl394							Cl	0.19057	0.30009	0.94913	-0.011663
N395							N	0.26287	0.46797	0.90953	0.17082
C396							C	0.30506	0.48189	0.92464	-0.12347
Cl397							Cl	0.34628	0.44483	0.95065	0.095237
N398							N	0.29329	0.36671	0.8883	0.278162
C399							C	0.32012	0.37794	0.85136	-0.009909
Cl400							Cl	0.30647	0.4222	0.81105	0.029587
N401							N	0.18162	0.40016	0.87386	-0.027917
C402							C	0.13946	0.41801	0.88596	-0.043892
Cl403							Cl	0.1286	0.44664	0.93889	-0.084563
Zn404							Zn	0.24052	0.59597	0.08876	0.280279
N405							N	0.2314	0.6164	0.02476	0.177709
C406							C	0.21332	0.65756	0.01064	-0.008802
Cl407							Cl	0.19014	0.69967	0.04876	-0.019435
N408							N	0.2625	0.53197	0.09038	0.191241
C409							C	0.30468	0.51806	0.07528	-0.130965
Cl410							Cl	0.34591	0.55508	0.04925	0.103745
N411							N	0.29295	0.633	0.11164	0.277206
C412							C	0.3194	0.62191	0.14889	-0.008687
Cl413							Cl	0.30522	0.57798	0.18937	0.028909
N414							N	0.18137	0.59993	0.12585	-0.017005
C415							C	0.13919	0.58204	0.11391	-0.052984
Cl416							Cl	0.12821	0.55324	0.06109	-0.081504
Co417							Co	0.88887	0.74261	0.62205	0.406584
N418							N	0.95762	0.75565	0.63312	0.212377
C419							C	0.97345	0.77853	0.67117	-0.135632
Cl420							Cl	0.93669	0.8016	0.71454	-0.012109
N421							N	0.8998	0.7259	0.55537	0.05736
C422							C	0.91929	0.68651	0.53716	-0.107573
Cl423							Cl	0.94239	0.63858	0.56778	0.023903
N424							N	0.89117	0.67867	0.64368	0.677757
C425							C	0.85399	0.65076	0.63483	-0.458908
Cl426							Cl	0.81259	0.66168	0.59078	0.042691
N427							N	0.86936	0.80657	0.60832	0.147155
C428							C	0.88811	0.8448	0.58852	-0.156006
Cl429							Cl	0.944	0.84793	0.56486	0.025652
Zn430							Zn	0.1018	0.75138	0.41415	-0.007103
N431							N	0.04086	0.76773	0.39644	0.620576
C432							C	0.02738	0.78927	0.35684	-0.283219
Cl433							Cl	0.06542	0.81005	0.31341	0.030158
N434							N	0.09976	0.73018	0.47865	0.316932
C435							C	0.08036	0.68959	0.49191	-0.232481
Cl436							Cl	0.05929	0.64717	0.45304	0.00475
N437							N	0.11773	0.70108	0.3725	0.448227
C438							C	0.15274	0.67037	0.37821	-0.140181
Cl439							Cl	0.19479	0.67403	0.42276	0.052511
N440							N	0.13992	0.80671	0.408	0.040814
C441							C	0.12324	0.84863	0.42134	0.033495
Cl442							Cl	0.06848	0.85798	0.44741	-0.027133
Co443							Co	0.88875	0.25724	0.3778	0.398577
N444							N	0.95756	0.24436	0.36687	0.230886
C445							C	0.97343	0.22156	0.3288	-0.151489
Cl446							Cl	0.93671	0.19847	0.28541	-0.007512
N447							N	0.89937	0.27401	0.4445	0.055414
C448							C	0.91899	0.31332	0.46273	-0.091205
Cl449							Cl	0.94242	0.36109	0.4321	0.021887
N450							N	0.89099	0.32119	0.35616	0.701659
C451							C	0.8538	0.3491	0.36498	-0.468939
Cl452							Cl	0.81233	0.33816	0.40896	0.043807
N453							N	0.86941	0.1932	0.39153	0.145248
C454							C	0.88815	0.15514	0.41166	-0.160036
Cl455							Cl	0.94391	0.15236	0.43572	0.031346
Zn456							Zn	0.10238	0.24894	0.58558	0.023224
N457							N	0.04114	0.23319	0.60244	0.585643
C458							C	0.02619	0.21229	0.64195	-0.263012
Cl459							Cl	0.06348	0.19095	0.6858	0.018259
N460							N	0.10076	0.27031	0.52112	0.308976
C461							C	0.08127	0.31088	0.50792	-0.236028
Cl462							Cl	0.05999	0.35318	0.54683	0.002513
N463							N	0.11812	0.29911	0.62747	0.415825
C464							C	0.1531	0.32987	0.62189	-0.126131
Cl465							Cl	0.19535	0.32626	0.57752	0.049542
N466							N	0.13998	0.19323	0.59202	0.047843
C467							C	0.123	0.15137	0.57887	0.01663
Cl468							Cl	0.06826	0.1423	0.55266	-0.017938
Co469							Co	0.89377	0.62316	0.2454	0.539926
N470							N	0.96233	0.63609	0.23787	-0.037252
C471							C	0.97862	0.6784	0.22495	0.023384
Cl472							Cl	0.94254	0.72584	0.21033	-0.035808
N473							N	0.90409	0.55836	0.26658	0.342022
C474							C	0.92152	0.54193	0.30751	-0.055086
Cl475							Cl	0.94514	0.57489	0.35343	0.053179
N476							N	0.89103	0.64782	0.30896	0.344042
C477							C	0.85287	0.63937	0.33552	-0.437532
Cl478							Cl	0.81	0.59764	0.32164	0.049414
N479							N	0.88139	0.60199	0.18124	-0.162504
C480							C	0.89957	0.61087	0.13857	0.067612
Cl481							Cl	0.95606	0.63168	0.12715	-0.079709
Zn482							Zn	0.09559	0.41668	0.24385	0.028165
N483							N	0.03544	0.39979	0.22831	0.530348
C484							C	0.02038	0.35974	0.20855	-0.144863
Cl485							Cl	0.05752	0.31527	0.18825	-0.020436
N486							N	0.09596	0.47999	0.26545	0.561693
C487							C	0.0777	0.49454	0.30606	-0.382824
Cl488							Cl	0.05446	0.45727	0.34883	0.053631
N489							N	0.11136	0.375	0.29448	0.458415
C490							C	0.14583	0.38199	0.32549	-0.106692
Cl491							Cl	0.18852	0.42579	0.32022	0.039809
N492							N	0.13151	0.41329	0.18774	0.028098
C493							C	0.11645	0.42546	0.14467	-0.03959
Cl494							Cl	0.06002	0.44585	0.13185	-0.11294
Co495							Co	0.89397	0.37684	0.75458	0.550335
N496							N	0.9627	0.36444	0.76187	-0.058399
C497							C	0.97999	0.32231	0.77432	0.044404
Cl498							Cl	0.94453	0.27443	0.78921	-0.043562
N499							N	0.90406	0.44166	0.73334	0.345614
C500							C	0.92166	0.45809	0.69248	-0.077183
Cl501							Cl	0.94529	0.4251	0.64657	0.056584
N502							N	0.89112	0.35221	0.69102	0.343515
C503							C	0.85295	0.36082	0.66453	-0.440849
Cl504							Cl	0.81024	0.40268	0.67852	0.049542
N505							N	0.88154	0.398	0.81875	-0.177303
C506							C	0.89967	0.38889	0.86138	0.077926
Cl507							Cl	0.95611	0.36786	0.87268	-0.08349
Zn508							Zn	0.09581	0.58362	0.75613	0.000993
N509							N	0.03579	0.6008	0.77201	0.570333
C510							C	0.0216	0.64091	0.79224	-0.181285
Cl511							Cl	0.05923	0.68539	0.81148	-0.009751
N512							N	0.09598	0.52028	0.73455	0.582881
C513							C	0.07779	0.50577	0.69391	-0.389238
Cl514							Cl	0.05462	0.54307	0.65113	0.058512
N515							N	0.11152	0.62528	0.7054	0.46926
C516							C	0.14594	0.61826	0.67433	-0.113052
Cl517							Cl	0.18863	0.57445	0.67953	0.041077
N518							N	0.13189	0.58681	0.81219	0.037114
C519							C	0.11681	0.57447	0.85521	-0.042733
Cl520							Cl	0.06039	0.55398	0.86793	-0.111516
Zn521							Zn	0.59602	0.74725	0.09168	0.142654
N522							N	0.61441	0.75919	0.02658	0.335101
C523							C	0.65468	0.77939	0.0124	-0.10632
Cl524							Cl	0.69582	0.80355	0.05101	-0.002201
N525							N	0.53049	0.72639	0.09578	0.165818
C526							C	0.51505	0.68455	0.08138	-0.075756
Cl527							Cl	0.55082	0.64196	0.05577	-0.107224
N528							N	0.63773	0.69782	0.1128	0.447191
C529							C	0.63218	0.67151	0.15136	-0.097347
Cl530							Cl	0.58708	0.67946	0.19223	0.050582
N531							N	0.60141	0.80392	0.12992	-0.02313
C532							C	0.58476	0.84507	0.11454	0.103038
Cl533							Cl	0.55952	0.85348	0.0594	-0.118011
Zn534							Zn	0.40429	0.74915	0.90802	0.09976
N535							N	0.3849	0.76161	0.97235	0.291076
C536							C	0.34399	0.78052	0.98628	-0.057659
Cl537							Cl	0.30187	0.80244	0.94741	-0.018451
N538							N	0.46888	0.72922	0.90581	0.303331
C539							C	0.48362	0.6879	0.92226	-0.176653
Cl540							Cl	0.44749	0.64721	0.95054	0.109076
N541							N	0.36738	0.69703	0.8873	0.418982
C542							C	0.37738	0.66953	0.85053	-0.136189
Cl543							Cl	0.42197	0.68098	0.80991	0.085005
N544							N	0.39837	0.80492	0.86857	0.007523
C545							C	0.41492	0.8462	0.88367	0.101412
Cl546							Cl	0.44009	0.85503	0.93879	-0.118089
Zn547							Zn	0.40437	0.25149	0.0919	0.069253
N548							N	0.38494	0.23955	0.0274	0.343591
C549							C	0.34395	0.22034	0.01395	-0.061113
Cl550							Cl	0.302	0.19909	0.05338	-0.029599
N551							N	0.4689	0.27154	0.09451	0.320456
C552							C	0.48354	0.31326	0.07902	-0.177768
Cl553							Cl	0.44743	0.35437	0.05138	0.099857
N554							N	0.36731	0.30333	0.11288	0.431677
C555							C	0.3771	0.33068	0.14983	-0.14855
Cl556							Cl	0.42161	0.31919	0.19053	0.088918
N557							N	0.39837	0.19564	0.13117	0.021328
C558							C	0.41481	0.1543	0.11612	0.088372
Cl559							Cl	0.43988	0.14535	0.06098	-0.115293
Zn560							Zn	0.59611	0.25179	0.90814	0.148751
N561							N	0.6144	0.23933	0.97309	0.260398
C562							C	0.65463	0.21944	0.98769	-0.084823
Cl563							Cl	0.69596	0.1948	0.94961	0.005649
N564							N	0.53048	0.27253	0.90439	0.177825
C565							C	0.51493	0.31397	0.91981	-0.08666
Cl566							Cl	0.55067	0.3561	0.94622	-0.092829
N567							N	0.63785	0.3014	0.88724	0.445854
C568							C	0.63227	0.32773	0.84869	-0.107709
Cl569							Cl	0.58717	0.31975	0.80784	0.049168
N570							N	0.60139	0.19517	0.86977	-0.033605
C571							C	0.58473	0.15404	0.88524	0.114204
Cl572							Cl	0.55959	0.14569	0.94043	-0.120505
Zn573							Zn	0.7472	0.89552	0.39842	0.125866
N574							N	0.75898	0.95905	0.37993	0.405576
C575							C	0.77862	0.97323	0.33956	-0.176299
Cl576							Cl	0.7982	0.93521	0.29555	0.035343
N577							N	0.72588	0.89594	0.46242	0.244225
C578							C	0.68563	0.91342	0.47927	-0.118003
Cl579							Cl	0.64118	0.93695	0.44445	-0.027798
N580							N	0.70085	0.87041	0.35494	0.269871
C581							C	0.67971	0.82831	0.35423	-0.156124
Cl582							Cl	0.69	0.78404	0.39546	-0.007428
N583							N	0.80574	0.86191	0.39864	0.163158
C584							C	0.84464	0.88175	0.41622	-0.295173
Cl585							Cl	0.84849	0.93947	0.43665	0.065268
Zn586							Zn	0.74674	0.10428	0.60148	0.100033
N587							N	0.75881	0.04095	0.62034	0.416791
C588							C	0.77873	0.0278	0.66088	-0.187582
Cl589							Cl	0.7985	0.06649	0.70417	0.044885
N590							N	0.72562	0.10369	0.53744	0.262812
C591							C	0.68552	0.086	0.52046	-0.127862
Cl592							Cl	0.64114	0.0621	0.55512	-0.015463
N593							N	0.70026	0.12921	0.64484	0.282413
C594							C	0.67889	0.17119	0.64561	-0.163178
Cl595							Cl	0.68895	0.21558	0.60446	-0.00663
N596							N	0.80514	0.13805	0.60134	0.181742
C597							C	0.84413	0.11818	0.584	-0.29298
Cl598							Cl	0.84812	0.06044	0.56365	0.065159
Zn599							Zn	0.24537	0.89605	0.60327	0.185493
N600							N	0.23658	0.96032	0.62011	0.442113
C601							C	0.21884	0.97654	0.66054	-0.282329
Cl602							Cl	0.19692	0.94079	0.70533	0.028108
N603							N	0.27018	0.89571	0.54023	0.155394
C604							C	0.31164	0.9135	0.5267	-0.108348
Cl605							Cl	0.35263	0.93774	0.56499	0.019854
N606							N	0.29232	0.87105	0.64722	0.290204
C607							C	0.31288	0.82864	0.64776	-0.153792
Cl608							Cl	0.29971	0.78374	0.60805	-0.000496
N609							N	0.18426	0.86323	0.60408	0.139425
C610							C	0.14377	0.87867	0.58517	-0.097358
Cl611							Cl	0.13768	0.93299	0.55738	-0.021094
Zn612							Zn	0.24555	0.10477	0.39677	0.184842
N613							N	0.2371	0.04048	0.38021	0.445212
C614							C	0.21969	0.02367	0.3398	-0.286452
Cl615							Cl	0.19779	0.05917	0.29479	0.021012
N616							N	0.27022	0.10515	0.45985	0.149822
C617							C	0.31185	0.08773	0.47336	-0.101119
Cl618							Cl	0.3532	0.06424	0.435	0.013587
N619							N	0.29243	0.12989	0.3528	0.29166
C620							C	0.31279	0.17239	0.35213	-0.156734
Cl621							Cl	0.29943	0.21734	0.39172	0.001635
N622							N	0.18432	0.13722	0.39583	0.139593
C623							C	0.14385	0.1217	0.41473	-0.104613
Cl624							Cl	0.13788	0.0674	0.44261	-0.019533
C625							C	0.40498	0.00516	0.24941	-0.791012
H626							H	0.43922	0.0065	0.26546	0.314507
C627							C	0.59526	-0.00186	0.24851	-0.785362
H628							H	0.56123	-0.00203	0.26508	0.317356
C629							C	0.59658	0.00301		0.75169	-0.81878
H630							H	0.56263	0.00374		0.73498	0.312933
C631							C	0.40397	-0.00375	0.75085	-0.805559
H632							H	0.43801	-0.00443	0.73432	0.314749
C633							C	0.2469	0.40301		0.01529	-0.425405
H634							H	0.26405	0.43653		0.01556	0.221422
C635							C	0.24706	0.59633		-0.0153	-0.412974
H636							H	0.26391	0.56265		-0.01554	0.215786
C637							C	0.75873	0.59593		0.01175		-0.495931
H638							H	0.74855	0.55982		0.01541		0.217431
C639							C	0.75886	0.40434		-0.01194	-0.467439
H640							H	0.74885	0.4405		-0.01561	0.212028
C641							C	-0.00142		0.25794		0.38885	-0.697505
H642							H	-0.00095		0.27792		0.42082	0.312604
C643							C	0.00227			0.24456		0.5786	-0.690941
H644							H	0.00225			0.26278		0.54547	0.298827
C645							C	-0.00136		0.74215		0.61114	-0.687285
H646							H	-0.0009			0.72213		0.5792	0.323412
C647							C	0.00112			0.75596		0.41901	-0.745775
H648							H	0.0006			0.73697		0.45168	0.290635
C649							C	0.00557			0.39014		0.75176	-0.523302
H650							H	0.00592			0.42606		0.74001	0.245503
C651							C	-0.00286		0.57713		0.76008	-0.931374
H652							H	-0.00245		0.54396		0.74196	0.334388
C653							C	0.00553			0.61072		0.24815	-0.539052
H654							H	0.00589			0.57491		0.26021	0.234277
C655							C	-0.00297		0.42366		0.24024	-0.918249
H656							H	-0.00259		0.45694		0.25815	0.34336
C657							C	0.40551			0.25292		-0.01323	-0.466103
H658							H	0.43905			0.27015		-0.01427	0.230804
C659							C	0.59435			0.25521		0.01627		-0.515567
H660							H	0.56103			0.27265		0.01757		0.286139
C661							C	0.59397			0.74462		-0.01369	-0.560149
H662							H	0.56082			0.72671		-0.01393	0.301427
C663							C	0.40509			0.7468		0.01585		-0.457542
H664							H	0.43859			0.72966		0.01787		0.222485
C665							C	0.24959			-0.00069	0.59642		-0.718704
H666							H	0.26552			-0.00133	0.56209		0.297248
C667							C	0.25025			0.00218		0.40469		-0.693655
H668							H	0.26591			0.00345		0.43912		0.308966
C669							C	0.74991			-0.00073	0.40334		-0.728036
H670							H	0.73371			0.00028		0.43753		0.306103
C671							C	0.74986			0.00047		0.59712		-0.738256
H672							H	0.73349			-0.00059	0.56302		0.301411
C673							C	0.49879			0.11647		0.24956		-0.537466
H674							H	0.49919			0.1292		0.21391		0.308622
C675							C	0.50162			0.88541		0.24768		-0.671826
H676							H	0.50095			0.87253		0.21209		0.34204
C677							C	0.50132			0.11316		0.75249		-0.691038
H678							H	0.50069			0.12554		0.78826		0.3494
C679							C	0.49865			0.88466		0.75048		-0.561515
H680							H	0.49907			0.87168		0.78604		0.317803
C681							C	0.24352			0.4927		0.10912		-0.586136
H682							H	0.20959			0.49285		0.12566		0.290684
C683							C	0.24392			0.50726		0.89078		-0.565924
H684							H	0.20998			0.50713		0.87424		0.287129
C685							C	0.75828			0.51144		0.10879		-0.672635
H686							H	0.79276			0.5091		0.12411		0.283307
C687							C	0.75801			0.48816		0.89103		-0.683521
H688							H	0.79252			0.49056		0.87577		0.285332
C689							C	0.11221			0.24918		0.48004		-0.582563
H690							H	0.12919			0.21548		0.47877		0.275499
C691							C	0.88757			0.24883		0.48346		-0.555287
H692							H	0.87075			0.215		0.48247		0.27347
C693							C	0.11159			0.75118		0.5197		-0.576714
H694							H	0.12875			0.7848		0.52091		0.279209
C695							C	0.88839			0.75124		0.5164		-0.550792
H696							H	0.87169			0.78512		0.51735		0.274865
C697							C	0.11115			0.48056		0.75564		-0.847688
H698							H	0.1285			0.48075		0.7892		0.335365
C699							C	0.89149			0.48127		0.75673		-0.788095
H700							H	0.87635			0.48178		0.79125		0.351105
C701							C	0.11113			0.51969		0.24434		-0.829681
H702							H	0.12853			0.51947		0.21081		0.331299
C703							C	0.89148			0.51876		0.24321		-0.802768
H704							H	0.87646			0.51823		0.20864		0.353956
C705							C	0.49111			0.25144		0.88733		-0.453486
H706							H	0.49175			0.21679		0.87223		0.250821
C707							C	0.50802			0.25151		0.11279		-0.624421
H708							H	0.50776			0.21719		0.12861		0.288495
C709							C	0.50797			0.74893		0.88712		-0.60558
H710							H	0.50765			0.78287		0.87047		0.281126
C711							C	0.4911			0.74773		0.11245		-0.454086
H712							H	0.49168			0.78271		0.12673		0.257108
C713							C	0.24828			0.1151		0.50073		-0.558806
H714							H	0.21258			0.12752		0.50252		0.308697
C715							C	0.24858			0.88491		0.49938		-0.550522
H716							H	0.21305			0.87198		0.4976		0.304958
C717							C	0.75096			0.11431		0.49863		-0.571702
H718							H	0.78656			0.12713		0.49984		0.317682
C719							C	0.75118			0.88552		0.50131		-0.566784
H720							H	0.78684			0.87289		0.50021		0.318028
C721							C	0.31596			0.10582		0.319		-0.642229
H722							H	0.30972			0.0692		0.31171		0.29505
C723							C	0.68009			0.89407		0.31925		-0.610615
H724							H	0.68765			0.93031		0.31135		0.263352
C725							C	0.67966			0.10538		0.68051		-0.61234
H726							H	0.68744			0.06918		0.68838		0.262968
C727							C	0.31576			0.89514		0.68109		-0.655399
H728							H	0.30934			0.9317		0.68849		0.300464
C729							C	0.32975			0.3241		0.09231		-1.035303
H730							H	0.31129			0.30912		0.06287		0.406518
C731							C	0.32982			0.67623		0.90785		-1.037982
H732							H	0.31121			0.6913		0.93715		0.407872
C733							C	0.67724			0.68042		0.09234		-0.848971
H734							H	0.69248			0.69517		0.06108		0.366354
C735							C	0.67736			0.31884		0.9077		-0.835315
H736							H	0.69261			0.30409		0.93896		0.367557
C737							C	0.08747			0.33728		0.31157		-0.973342
H738							H	0.05876			0.32068		0.29336		0.3174
C739							C	0.90999			0.31327		0.67111		-0.707442
H740							H	0.94005			0.29515		0.68515		0.283383
C741							C	0.0876			0.66298		0.6883		-0.975938
H742							H	0.0589			0.67959		0.70653		0.31923
C743							C	0.91014			0.68663		0.32885		-0.69945
H744							H	0.94026			0.70462		0.31476		0.278337
C745							C	0.09495			0.31418		0.66638		-0.828381
H746							H	0.06601			0.29556		0.68199		0.281608
C747							C	0.90713			0.66284		0.68558		-0.917706
H748							H	0.93513			0.67958		0.70475		0.283147
C749							C	0.09479			0.68603		0.33346		-0.843247
H750							H	0.06592			0.70467		0.3177		0.28066
C751							C	0.90702			0.33705		0.31431		-0.949124
H752							H	0.93504			0.32033		0.29516		0.290406
C753							C	0.31668			0.33043		0.90884		-0.948997
H754							H	0.3032			0.31151		0.93871		0.389449
C755							C	0.67719			0.33558		0.09319		-1.004624
H756							H	0.69192			0.31675		0.06391		0.343194
C757							C	0.67703			0.6645		0.9065		-1.016747
H758							H	0.69214			0.68352		0.93546		0.339922
C759							C	0.31667			0.66898		0.09099		-0.952877
H760							H	0.30352			0.68774		0.06087		0.395322
C761							C	0.32195			0.10155		0.68178		-0.637331
H762							H	0.31297			0.06568		0.68988		0.269706
C763							C	0.32237			0.89751		0.31833		-0.616837
H764							H	0.31349			0.9334		0.31024		0.262979
C765							C	0.6823			0.10159		0.31695		-0.674961
H766							H	0.68996			0.06537		0.30906		0.292762
C767							C	0.68217			0.8985		0.68291		-0.663466
H768							H	0.6901			0.93466		0.69082		0.291429
C769							C	0.38661			0.18715		0.17678		-0.228876
H770							H	0.37474			0.21419		0.20048		0.118702
C771							C	0.61308			0.81283		0.17547		-0.245888
H772							H	0.62512			0.78606		0.19939		0.132476
C773							C	0.61297			0.18618		0.82422		-0.240033
H774							H	0.625			0.21289		0.80023		0.133383
C775							C	0.38648			0.81355		0.82302		-0.22927
H776							H	0.37446			0.78661		0.79928		0.117846
C777							C	0.1768			0.4021		0.18134		-0.297087
H778							H	0.19971			0.39093		0.20936		0.114686
C779							C	0.17716			0.59803		0.81868		-0.291825
H780							H	0.20008			0.60935		0.79072		0.114448
C781							C	0.83581			0.59207		0.17171		-0.188249
H782							H	0.80978			0.59062		0.1992		0.068079
C783							C	0.83593			0.40785		0.82831		-0.183962
H784							H	0.80991			0.40938		0.80081		0.066312
C785							C	0.17286			0.18064		0.38042		-0.392275
H786							H	0.1979			0.20404		0.36433		0.147302
C787							C	0.81716			0.18379		0.6073		-0.300823
H788							H	0.79284			0.21059		0.61839		0.147893
C789							C	0.17289			0.81974		0.61939		-0.399383
H790							H	0.19796			0.79639		0.6355		0.149103
C791							C	0.81786			0.8162		0.39254		-0.282499
H792							H	0.79364			0.78942		0.3812		0.145205
C793							C	0.17386			0.38433		0.82971		-0.171634
H794							H	0.20114			0.36909		0.80829		0.08618
C795							C	0.81531			0.60267		0.8227		-0.065401
H796							H	0.78975			0.61576		0.798		0.08067
C797							C	0.17376			0.61583		0.17		-0.179004
H798							H	0.2011			0.6311		0.19131		0.087866
C799							C	0.8157			0.39708		0.17696		-0.050046
H800							H	0.79007			0.38408		0.20164		0.077035
C801							C	0.39321			0.18039		0.8175		-0.448883
H802							H	0.3796			0.20365		0.79095		0.171287
C803							C	0.60714			0.18203		0.18293		-0.404202
H804							H	0.62052			0.20548		0.20943		0.161921
C805							C	0.60718			0.81837		0.81683		-0.415297
H806							H	0.62066			0.79502		0.7903		0.167403
C807							C	0.39358			0.81861		0.18239		-0.461221
H808							H	0.38007			0.79525		0.2089		0.171815
C809							C	0.18438			0.18363		0.60646		-0.282907
H810							H	0.20911			0.21034		0.61688		0.143611
C811							C	0.18435			0.81603		0.39352		-0.276672
H812							H	0.20887			0.7892		0.3829		0.142778
C813							C	0.82455			0.18017		0.3816		-0.383268
H814							H	0.79929			0.20373		0.36608		0.147581
C815							C	0.82442			0.81943		0.61812		-0.393216
H816							H	0.79916			0.79573		0.63342		0.149358
