_symmetry_space_group_name_H-M   'P 1'
_cell_length_a 28.553900
_cell_length_b 28.553900
_cell_length_c 28.553900
_cell_angle_alpha 90.000000
_cell_angle_beta 90.000000
_cell_angle_gamma 90.000000
_symmetry_Int_Tables_number 1

loop_
_symmetry_equiv_pos_as_xyz
 'x, y, z'

loop_
_atom_site_label
_atom_site_fract_x
_atom_site_fract_y
_atom_site_fract_z
_atom_site_charge
Zn1 0.395510 0.104330 0.252070 1.353715
N2 0.372100 0.038000 0.244300 2.505410
C3 0.335800 0.024300 0.221500 -1.009490
Cl4 0.295410 0.060620 0.195640 0.045025
N5 0.460300 0.099100 0.276900 0.428035
C6 0.477600 0.082700 0.320800 -0.191490
Cl7 0.439060 0.068620 0.362680 -0.148910
N8 0.353900 0.134900 0.297200 0.687855
C9 0.356600 0.175300 0.324100 -0.486775
Cl10 0.397540 0.215220 0.310900 0.004830
N11 0.400700 0.136100 0.192300 -0.587795
C12 0.417100 0.118600 0.150700 -0.224735
Cl13 0.433100 0.059540 0.144770 -0.166390
Zn14 0.604490 0.895670 0.252070 1.404645
N15 0.627900 0.962000 0.244300 2.462645
C16 0.664200 0.975700 0.221500 -1.012935
Cl17 0.704590 0.939380 0.195640 0.044835
N18 0.539700 0.900900 0.276900 0.401585
C19 0.522400 0.917300 0.320800 -0.180540
Cl20 0.560940 0.931380 0.362680 -0.155080
N21 0.646100 0.865100 0.297200 0.686205
C22 0.643400 0.824700 0.324100 -0.482175
Cl23 0.602460 0.784780 0.310900 0.005520
N24 0.599300 0.863900 0.192300 -0.597400
C25 0.582900 0.881400 0.150700 -0.214750
Cl26 0.566900 0.940460 0.144770 -0.170065
Zn27 0.604490 0.104330 0.747930 1.312370
N28 0.627900 0.038000 0.755700 2.485215
C29 0.664200 0.024300 0.778500 -1.011895
Cl30 0.704590 0.060620 0.804360 0.046420
N31 0.539700 0.099100 0.723100 0.433985
C32 0.522400 0.082700 0.679200 -0.192210
Cl33 0.560940 0.068620 0.637320 -0.147640
N34 0.646100 0.134900 0.702800 0.720765
C35 0.643400 0.175300 0.675900 -0.498395
Cl36 0.602460 0.215220 0.689100 0.009555
N37 0.599300 0.136100 0.807700 -0.535465
C38 0.582900 0.118600 0.849300 -0.237495
Cl39 0.566900 0.059540 0.855230 -0.165845
Zn40 0.395510 0.895670 0.747930 1.374305
N41 0.372100 0.962000 0.755700 2.480465
C42 0.335800 0.975700 0.778500 -1.015245
Cl43 0.295410 0.939380 0.804360 0.048300
N44 0.460300 0.900900 0.723100 0.414705
C45 0.477600 0.917300 0.679200 -0.183280
Cl46 0.439060 0.931380 0.637320 -0.152500
N47 0.353900 0.865100 0.702800 0.703220
C48 0.356600 0.824700 0.675900 -0.497325
Cl49 0.397540 0.784780 0.689100 0.008340
N50 0.400700 0.863900 0.807700 -0.591570
C51 0.417100 0.881400 0.849300 -0.224095
Cl52 0.433100 0.940460 0.855230 -0.165365
Zn53 0.252070 0.395510 0.104330 1.353875
N54 0.244300 0.372100 0.038000 2.505585
C55 0.221500 0.335800 0.024300 -1.009300
Cl56 0.195640 0.295410 0.060620 0.045045
N57 0.276900 0.460300 0.099100 0.428070
C58 0.320800 0.477600 0.082700 -0.191390
Cl59 0.362680 0.439060 0.068620 -0.148900
N60 0.297200 0.353900 0.134900 0.687710
C61 0.324100 0.356600 0.175300 -0.486975
Cl62 0.310900 0.397540 0.215220 0.004910
N63 0.192300 0.400700 0.136100 -0.587790
C64 0.150700 0.417100 0.118600 -0.225080
Cl65 0.144770 0.433100 0.059540 -0.166465
Zn66 0.252070 0.604490 0.895670 1.404470
N67 0.244300 0.627900 0.962000 2.462855
C68 0.221500 0.664200 0.975700 -1.012610
Cl69 0.195640 0.704590 0.939380 0.044980
N70 0.276900 0.539700 0.900900 0.402165
C71 0.320800 0.522400 0.917300 -0.180900
Cl72 0.362680 0.560940 0.931380 -0.154940
N73 0.297200 0.646100 0.865100 0.686020
C74 0.324100 0.643400 0.824700 -0.482165
Cl75 0.310900 0.602460 0.784780 0.005560
N76 0.192300 0.599300 0.863900 -0.597645
C77 0.150700 0.582900 0.881400 -0.214875
Cl78 0.144770 0.566900 0.940460 -0.170125
Zn79 0.747930 0.604490 0.104330 1.312455
N80 0.755700 0.627900 0.038000 2.484620
C81 0.778500 0.664200 0.024300 -1.011720
Cl82 0.804360 0.704590 0.060620 0.046285
N83 0.723100 0.539700 0.099100 0.434115
C84 0.679200 0.522400 0.082700 -0.192385
Cl85 0.637320 0.560940 0.068620 -0.147585
N86 0.702800 0.646100 0.134900 0.720815
C87 0.675900 0.643400 0.175300 -0.498480
Cl88 0.689100 0.602460 0.215220 0.009625
N89 0.807700 0.599300 0.136100 -0.535500
C90 0.849300 0.582900 0.118600 -0.237395
Cl91 0.855230 0.566900 0.059540 -0.166005
Zn92 0.747930 0.395510 0.895670 1.374165
N93 0.755700 0.372100 0.962000 2.480340
C94 0.778500 0.335800 0.975700 -1.014845
Cl95 0.804360 0.295410 0.939380 0.048395
N96 0.723100 0.460300 0.900900 0.414755
C97 0.679200 0.477600 0.917300 -0.183140
Cl98 0.637320 0.439060 0.931380 -0.152475
N99 0.702800 0.353900 0.865100 0.703335
C100 0.675900 0.356600 0.824700 -0.497285
Cl101 0.689100 0.397540 0.784780 0.008220
N102 0.807700 0.400700 0.863900 -0.591855
C103 0.849300 0.417100 0.881400 -0.224235
Cl104 0.855230 0.433100 0.940460 -0.165270
Zn105 0.104330 0.252070 0.395510 1.353705
N106 0.038000 0.244300 0.372100 2.505405
C107 0.024300 0.221500 0.335800 -1.009435
Cl108 0.060620 0.195640 0.295410 0.045200
N109 0.099100 0.276900 0.460300 0.428425
C110 0.082700 0.320800 0.477600 -0.191795
Cl111 0.068620 0.362680 0.439060 -0.148820
N112 0.134900 0.297200 0.353900 0.687530
C113 0.175300 0.324100 0.356600 -0.486655
Cl114 0.215220 0.310900 0.397540 0.004855
N115 0.136100 0.192300 0.400700 -0.587665
C116 0.118600 0.150700 0.417100 -0.225025
Cl117 0.059540 0.144770 0.433100 -0.166300
Zn118 0.895670 0.252070 0.604490 1.404625
N119 0.962000 0.244300 0.627900 2.462795
C120 0.975700 0.221500 0.664200 -1.013180
Cl121 0.939380 0.195640 0.704590 0.045065
N122 0.900900 0.276900 0.539700 0.401955
C123 0.917300 0.320800 0.522400 -0.180785
Cl124 0.931380 0.362680 0.560940 -0.155035
N125 0.865100 0.297200 0.646100 0.686145
C126 0.824700 0.324100 0.643400 -0.482270
Cl127 0.784780 0.310900 0.602460 0.005595
N128 0.863900 0.192300 0.599300 -0.597665
C129 0.881400 0.150700 0.582900 -0.214670
Cl130 0.940460 0.144770 0.566900 -0.170075
Zn131 0.104330 0.747930 0.604490 1.312345
N132 0.038000 0.755700 0.627900 2.485190
C133 0.024300 0.778500 0.664200 -1.011760
Cl134 0.060620 0.804360 0.704590 0.046385
N135 0.099100 0.723100 0.539700 0.434175
C136 0.082700 0.679200 0.522400 -0.192245
Cl137 0.068620 0.637320 0.560940 -0.147525
N138 0.134900 0.702800 0.646100 0.720680
C139 0.175300 0.675900 0.643400 -0.498410
Cl140 0.215220 0.689100 0.602460 0.009455
N141 0.136100 0.807700 0.599300 -0.535575
C142 0.118600 0.849300 0.582900 -0.237450
Cl143 0.059540 0.855230 0.566900 -0.165845
Zn144 0.895670 0.747930 0.395510 1.374305
N145 0.962000 0.755700 0.372100 2.480290
C146 0.975700 0.778500 0.335800 -1.014780
Cl147 0.939380 0.804360 0.295410 0.048205
N148 0.900900 0.723100 0.460300 0.414640
C149 0.917300 0.679200 0.477600 -0.183135
Cl150 0.931380 0.637320 0.439060 -0.152545
N151 0.865100 0.702800 0.353900 0.702885
C152 0.824700 0.675900 0.356600 -0.497150
Cl153 0.784780 0.689100 0.397540 0.008300
N154 0.863900 0.807700 0.400700 -0.591550
C155 0.881400 0.849300 0.417100 -0.224055
Cl156 0.940460 0.855230 0.433100 -0.165345
Zn157 0.104330 0.395510 0.747930 1.323365
N158 0.038000 0.372100 0.755700 2.523905
C159 0.024300 0.335800 0.778500 -1.021835
Cl160 0.060620 0.295410 0.804360 0.047750
N161 0.099100 0.460300 0.723100 0.427660
C162 0.082700 0.477600 0.679200 -0.182370
Cl163 0.068620 0.439060 0.637320 -0.152620
N164 0.134900 0.353900 0.702800 0.708740
C165 0.175300 0.356600 0.675900 -0.484800
Cl166 0.215220 0.397540 0.689100 0.007200
N167 0.136100 0.400700 0.807700 -0.551030
C168 0.118600 0.417100 0.849300 -0.233870
Cl169 0.059540 0.433100 0.855230 -0.165395
Zn170 0.895670 0.604490 0.747930 1.346880
N171 0.962000 0.627900 0.755700 2.471930
C172 0.975700 0.664200 0.778500 -1.003415
Cl173 0.939380 0.704590 0.804360 0.045030
N174 0.900900 0.539700 0.723100 0.421605
C175 0.917300 0.522400 0.679200 -0.182360
Cl176 0.931380 0.560940 0.637320 -0.151085
N177 0.865100 0.646100 0.702800 0.694095
C178 0.824700 0.643400 0.675900 -0.491940
Cl179 0.784780 0.602460 0.689100 0.008680
N180 0.863900 0.599300 0.807700 -0.550430
C181 0.881400 0.582900 0.849300 -0.231040
Cl182 0.940460 0.566900 0.855230 -0.167790
Zn183 0.104330 0.604490 0.252070 1.317565
N184 0.038000 0.627900 0.244300 2.486815
C185 0.024300 0.664200 0.221500 -0.994435
Cl186 0.060620 0.704590 0.195640 0.042915
N187 0.099100 0.539700 0.276900 0.438090
C188 0.082700 0.522400 0.320800 -0.192160
Cl189 0.068620 0.560940 0.362680 -0.147640
N190 0.134900 0.646100 0.297200 0.739140
C191 0.175300 0.643400 0.324100 -0.513375
Cl192 0.215220 0.602460 0.310900 0.011180
N193 0.136100 0.599300 0.192300 -0.571175
C194 0.118600 0.582900 0.150700 -0.231780
Cl195 0.059540 0.566900 0.144770 -0.162300
Zn196 0.895670 0.395510 0.252070 1.375930
N197 0.962000 0.372100 0.244300 2.477495
C198 0.975700 0.335800 0.221500 -1.012320
Cl199 0.939380 0.295410 0.195640 0.046170
N200 0.900900 0.460300 0.276900 0.415790
C201 0.917300 0.477600 0.320800 -0.178255
Cl202 0.931380 0.439060 0.362680 -0.153905
N203 0.865100 0.353900 0.297200 0.682810
C204 0.824700 0.356600 0.324100 -0.485715
Cl205 0.784780 0.397540 0.310900 0.006105
N206 0.863900 0.400700 0.192300 -0.576460
C207 0.881400 0.417100 0.150700 -0.232205
Cl208 0.940460 0.433100 0.144770 -0.163580
Zn209 0.395510 0.252070 0.895670 1.375960
N210 0.372100 0.244300 0.962000 2.477190
C211 0.335800 0.221500 0.975700 -1.012045
Cl212 0.295410 0.195640 0.939380 0.046105
N213 0.460300 0.276900 0.900900 0.415950
C214 0.477600 0.320800 0.917300 -0.178395
Cl215 0.439060 0.362680 0.931380 -0.153955
N216 0.353900 0.297200 0.865100 0.682555
C217 0.356600 0.324100 0.824700 -0.485725
Cl218 0.397540 0.310900 0.784780 0.006220
N219 0.400700 0.192300 0.863900 -0.576625
C220 0.417100 0.150700 0.881400 -0.232130
Cl221 0.433100 0.144770 0.940460 -0.163610
Zn222 0.604490 0.252070 0.104330 1.317505
N223 0.627900 0.244300 0.038000 2.486670
C224 0.664200 0.221500 0.024300 -0.994320
Cl225 0.704590 0.195640 0.060620 0.042885
N226 0.539700 0.276900 0.099100 0.438045
C227 0.522400 0.320800 0.082700 -0.191990
Cl228 0.560940 0.362680 0.068620 -0.147715
N229 0.646100 0.297200 0.134900 0.739110
C230 0.643400 0.324100 0.175300 -0.513130
Cl231 0.602460 0.310900 0.215220 0.011030
N232 0.599300 0.192300 0.136100 -0.571110
C233 0.582900 0.150700 0.118600 -0.231765
Cl234 0.566900 0.144770 0.059540 -0.162350
Zn235 0.604490 0.747930 0.895670 1.346830
N236 0.627900 0.755700 0.962000 2.472010
C237 0.664200 0.778500 0.975700 -1.003630
Cl238 0.704590 0.804360 0.939380 0.045110
N239 0.539700 0.723100 0.900900 0.421820
C240 0.522400 0.679200 0.917300 -0.182380
Cl241 0.560940 0.637320 0.931380 -0.150975
N242 0.646100 0.702800 0.865100 0.694065
C243 0.643400 0.675900 0.824700 -0.491845
Cl244 0.602460 0.689100 0.784780 0.008790
N245 0.599300 0.807700 0.863900 -0.550315
C246 0.582900 0.849300 0.881400 -0.230715
Cl247 0.566900 0.855230 0.940460 -0.167755
Zn248 0.395510 0.747930 0.104330 1.323245
N249 0.372100 0.755700 0.038000 2.523810
C250 0.335800 0.778500 0.024300 -1.021580
Cl251 0.295410 0.804360 0.060620 0.047660
N252 0.460300 0.723100 0.099100 0.427925
C253 0.477600 0.679200 0.082700 -0.182350
Cl254 0.439060 0.637320 0.068620 -0.152700
N255 0.353900 0.702800 0.134900 0.708985
C256 0.356600 0.675900 0.175300 -0.485075
Cl257 0.397540 0.689100 0.215220 0.007200
N258 0.400700 0.807700 0.136100 -0.550880
C259 0.417100 0.849300 0.118600 -0.234065
Cl260 0.433100 0.855230 0.059540 -0.165330
Zn261 0.252070 0.104330 0.604490 1.317735
N262 0.244300 0.038000 0.627900 2.486470
C263 0.221500 0.024300 0.664200 -0.994355
Cl264 0.195640 0.060620 0.704590 0.042595
N265 0.276900 0.099100 0.539700 0.437620
C266 0.320800 0.082700 0.522400 -0.191895
Cl267 0.362680 0.068620 0.560940 -0.147935
N268 0.297200 0.134900 0.646100 0.739350
C269 0.324100 0.175300 0.643400 -0.513305
Cl270 0.310900 0.215220 0.602460 0.011055
N271 0.192300 0.136100 0.599300 -0.570895
C272 0.150700 0.118600 0.582900 -0.231785
Cl273 0.144770 0.059540 0.566900 -0.162425
Zn274 0.252070 0.895670 0.395510 1.375800
N275 0.244300 0.962000 0.372100 2.477215
C276 0.221500 0.975700 0.335800 -1.011920
Cl277 0.195640 0.939380 0.295410 0.046020
N278 0.276900 0.900900 0.460300 0.415895
C279 0.320800 0.917300 0.477600 -0.178440
Cl280 0.362680 0.931380 0.439060 -0.153970
N281 0.297200 0.865100 0.353900 0.682920
C282 0.324100 0.824700 0.356600 -0.485675
Cl283 0.310900 0.784780 0.397540 0.006285
N284 0.192300 0.863900 0.400700 -0.576430
C285 0.150700 0.881400 0.417100 -0.232270
Cl286 0.144770 0.940460 0.433100 -0.163550
Zn287 0.747930 0.104330 0.395510 1.323305
N288 0.755700 0.038000 0.372100 2.523350
C289 0.778500 0.024300 0.335800 -1.021650
Cl290 0.804360 0.060620 0.295410 0.047520
N291 0.723100 0.099100 0.460300 0.427865
C292 0.679200 0.082700 0.477600 -0.182410
Cl293 0.637320 0.068620 0.439060 -0.152550
N294 0.702800 0.134900 0.353900 0.708935
C295 0.675900 0.175300 0.356600 -0.485035
Cl296 0.689100 0.215220 0.397540 0.007195
N297 0.807700 0.136100 0.400700 -0.550575
C298 0.849300 0.118600 0.417100 -0.234120
Cl299 0.855230 0.059540 0.433100 -0.165325
Zn300 0.747930 0.895670 0.604490 1.346760
N301 0.755700 0.962000 0.627900 2.472045
C302 0.778500 0.975700 0.664200 -1.003745
Cl303 0.804360 0.939380 0.704590 0.044940
N304 0.723100 0.900900 0.539700 0.421685
C305 0.679200 0.917300 0.522400 -0.182265
Cl306 0.637320 0.931380 0.560940 -0.151045
N307 0.702800 0.865100 0.646100 0.694560
C308 0.675900 0.824700 0.643400 -0.491855
Cl309 0.689100 0.784780 0.602460 0.008660
N310 0.807700 0.863900 0.599300 -0.550350
C311 0.849300 0.881400 0.582900 -0.230655
Cl312 0.855230 0.940460 0.566900 -0.167810
Zn313 0.604490 0.895670 0.747930 1.346740
N314 0.627900 0.962000 0.755700 2.472245
C315 0.664200 0.975700 0.778500 -1.003800
Cl316 0.704590 0.939380 0.804360 0.045145
N317 0.539700 0.900900 0.723100 0.421800
C318 0.522400 0.917300 0.679200 -0.182375
Cl319 0.560940 0.931380 0.637320 -0.150940
N320 0.646100 0.865100 0.702800 0.694435
C321 0.643400 0.824700 0.675900 -0.491715
Cl322 0.602460 0.784780 0.689100 0.008745
N323 0.599300 0.863900 0.807700 -0.550345
C324 0.582900 0.881400 0.849300 -0.230915
Cl325 0.566900 0.940460 0.855230 -0.167920
Zn326 0.395510 0.104330 0.747930 1.323405
N327 0.372100 0.038000 0.755700 2.523400
C328 0.335800 0.024300 0.778500 -1.021450
Cl329 0.295410 0.060620 0.804360 0.047685
N330 0.460300 0.099100 0.723100 0.427795
C331 0.477600 0.082700 0.679200 -0.182370
Cl332 0.439060 0.068620 0.637320 -0.152605
N333 0.353900 0.134900 0.702800 0.708860
C334 0.356600 0.175300 0.675900 -0.484995
Cl335 0.397540 0.215220 0.689100 0.007315
N336 0.400700 0.136100 0.807700 -0.551140
C337 0.417100 0.118600 0.849300 -0.233935
Cl338 0.433100 0.059540 0.855230 -0.165400
Zn339 0.395510 0.895670 0.252070 1.375920
N340 0.372100 0.962000 0.244300 2.477180
C341 0.335800 0.975700 0.221500 -1.012110
Cl342 0.295410 0.939380 0.195640 0.046140
N343 0.460300 0.900900 0.276900 0.415880
C344 0.477600 0.917300 0.320800 -0.178655
Cl345 0.439060 0.931380 0.362680 -0.153940
N346 0.353900 0.865100 0.297200 0.682750
C347 0.356600 0.824700 0.324100 -0.485745
Cl348 0.397540 0.784780 0.310900 0.006080
N349 0.400700 0.863900 0.192300 -0.576715
C350 0.417100 0.881400 0.150700 -0.232185
Cl351 0.433100 0.940460 0.144770 -0.163560
Zn352 0.604490 0.104330 0.252070 1.317655
N353 0.627900 0.038000 0.244300 2.486220
C354 0.664200 0.024300 0.221500 -0.993885
Cl355 0.704590 0.060620 0.195640 0.042550
N356 0.539700 0.099100 0.276900 0.437970
C357 0.522400 0.082700 0.320800 -0.191770
Cl358 0.560940 0.068620 0.362680 -0.147755
N359 0.646100 0.134900 0.297200 0.739075
C360 0.643400 0.175300 0.324100 -0.513355
Cl361 0.602460 0.215220 0.310900 0.011155
N362 0.599300 0.136100 0.192300 -0.571180
C363 0.582900 0.118600 0.150700 -0.231880
Cl364 0.566900 0.059540 0.144770 -0.162460
Zn365 0.747930 0.604490 0.895670 1.346820
N366 0.755700 0.627900 0.962000 2.471645
C367 0.778500 0.664200 0.975700 -1.003765
Cl368 0.804360 0.704590 0.939380 0.045045
N369 0.723100 0.539700 0.900900 0.421785
C370 0.679200 0.522400 0.917300 -0.182350
Cl371 0.637320 0.560940 0.931380 -0.151005
N372 0.702800 0.646100 0.865100 0.694280
C373 0.675900 0.643400 0.824700 -0.491850
Cl374 0.689100 0.602460 0.784780 0.008720
N375 0.807700 0.599300 0.863900 -0.550200
C376 0.849300 0.582900 0.881400 -0.230585
Cl377 0.855230 0.566900 0.940460 -0.167830
Zn378 0.747930 0.395510 0.104330 1.323485
N379 0.755700 0.372100 0.038000 2.523185
C380 0.778500 0.335800 0.024300 -1.021655
Cl381 0.804360 0.295410 0.060620 0.047555
N382 0.723100 0.460300 0.099100 0.427435
C383 0.679200 0.477600 0.082700 -0.182075
Cl384 0.637320 0.439060 0.068620 -0.152715
N385 0.702800 0.353900 0.134900 0.709240
C386 0.675900 0.356600 0.175300 -0.485165
Cl387 0.689100 0.397540 0.215220 0.007205
N388 0.807700 0.400700 0.136100 -0.550850
C389 0.849300 0.417100 0.118600 -0.233805
Cl390 0.855230 0.433100 0.059540 -0.165435
Zn391 0.252070 0.395510 0.895670 1.375760
N392 0.244300 0.372100 0.962000 2.477190
C393 0.221500 0.335800 0.975700 -1.012315
Cl394 0.195640 0.295410 0.939380 0.046180
N395 0.276900 0.460300 0.900900 0.416175
C396 0.320800 0.477600 0.917300 -0.178285
Cl397 0.362680 0.439060 0.931380 -0.154040
N398 0.297200 0.353900 0.865100 0.682880
C399 0.324100 0.356600 0.824700 -0.486000
Cl400 0.310900 0.397540 0.784780 0.006200
N401 0.192300 0.400700 0.863900 -0.576295
C402 0.150700 0.417100 0.881400 -0.232270
Cl403 0.144770 0.433100 0.940460 -0.163540
Zn404 0.252070 0.604490 0.104330 1.317455
N405 0.244300 0.627900 0.038000 2.486630
C406 0.221500 0.664200 0.024300 -0.994430
Cl407 0.195640 0.704590 0.060620 0.042895
N408 0.276900 0.539700 0.099100 0.438310
C409 0.320800 0.522400 0.082700 -0.192050
Cl410 0.362680 0.560940 0.068620 -0.147740
N411 0.297200 0.646100 0.134900 0.739140
C412 0.324100 0.643400 0.175300 -0.513290
Cl413 0.310900 0.602460 0.215220 0.011075
N414 0.192300 0.599300 0.136100 -0.570960
C415 0.150700 0.582900 0.118600 -0.231905
Cl416 0.144770 0.566900 0.059540 -0.162345
Zn417 0.895670 0.747930 0.604490 1.346710
N418 0.962000 0.755700 0.627900 2.472205
C419 0.975700 0.778500 0.664200 -1.003890
Cl420 0.939380 0.804360 0.704590 0.045130
N421 0.900900 0.723100 0.539700 0.421830
C422 0.917300 0.679200 0.522400 -0.182455
Cl423 0.931380 0.637320 0.560940 -0.150975
N424 0.865100 0.702800 0.646100 0.694195
C425 0.824700 0.675900 0.643400 -0.491760
Cl426 0.784780 0.689100 0.602460 0.008605
N427 0.863900 0.807700 0.599300 -0.550230
C428 0.881400 0.849300 0.582900 -0.230900
Cl429 0.940460 0.855230 0.566900 -0.167825
Zn430 0.104330 0.747930 0.395510 1.323335
N431 0.038000 0.755700 0.372100 2.523575
C432 0.024300 0.778500 0.335800 -1.021690
Cl433 0.060620 0.804360 0.295410 0.047705
N434 0.099100 0.723100 0.460300 0.427680
C435 0.082700 0.679200 0.477600 -0.182325
Cl436 0.068620 0.637320 0.439060 -0.152630
N437 0.134900 0.702800 0.353900 0.708625
C438 0.175300 0.675900 0.356600 -0.485050
Cl439 0.215220 0.689100 0.397540 0.007200
N440 0.136100 0.807700 0.400700 -0.551070
C441 0.118600 0.849300 0.417100 -0.233955
Cl442 0.059540 0.855230 0.433100 -0.165400
Zn443 0.895670 0.252070 0.395510 1.375775
N444 0.962000 0.244300 0.372100 2.477325
C445 0.975700 0.221500 0.335800 -1.012130
Cl446 0.939380 0.195640 0.295410 0.046165
N447 0.900900 0.276900 0.460300 0.415945
C448 0.917300 0.320800 0.477600 -0.178200
Cl449 0.931380 0.362680 0.439060 -0.154010
N450 0.865100 0.297200 0.353900 0.682835
C451 0.824700 0.324100 0.356600 -0.485865
Cl452 0.784780 0.310900 0.397540 0.006230
N453 0.863900 0.192300 0.400700 -0.576350
C454 0.881400 0.150700 0.417100 -0.232120
Cl455 0.940460 0.144770 0.433100 -0.163620
Zn456 0.104330 0.252070 0.604490 1.317555
N457 0.038000 0.244300 0.627900 2.486235
C458 0.024300 0.221500 0.664200 -0.993830
Cl459 0.060620 0.195640 0.704590 0.042635
N460 0.099100 0.276900 0.539700 0.438140
C461 0.082700 0.320800 0.522400 -0.191775
Cl462 0.068620 0.362680 0.560940 -0.147930
N463 0.134900 0.297200 0.646100 0.739285
C464 0.175300 0.324100 0.643400 -0.513520
Cl465 0.215220 0.310900 0.602460 0.011220
N466 0.136100 0.192300 0.599300 -0.570855
C467 0.118600 0.150700 0.582900 -0.231890
Cl468 0.059540 0.144770 0.566900 -0.162380
Zn469 0.895670 0.604490 0.252070 1.404655
N470 0.962000 0.627900 0.244300 2.462780
C471 0.975700 0.664200 0.221500 -1.012840
Cl472 0.939380 0.704590 0.195640 0.044765
N473 0.900900 0.539700 0.276900 0.401860
C474 0.917300 0.522400 0.320800 -0.180820
Cl475 0.931380 0.560940 0.362680 -0.155010
N476 0.865100 0.646100 0.297200 0.686120
C477 0.824700 0.643400 0.324100 -0.482270
Cl478 0.784780 0.602460 0.310900 0.005660
N479 0.863900 0.599300 0.192300 -0.597655
C480 0.881400 0.582900 0.150700 -0.214640
Cl481 0.940460 0.566900 0.144770 -0.170070
Zn482 0.104330 0.395510 0.252070 1.353855
N483 0.038000 0.372100 0.244300 2.505645
C484 0.024300 0.335800 0.221500 -1.009295
Cl485 0.060620 0.295410 0.195640 0.045075
N486 0.099100 0.460300 0.276900 0.428110
C487 0.082700 0.477600 0.320800 -0.191305
Cl488 0.068620 0.439060 0.362680 -0.148970
N489 0.134900 0.353900 0.297200 0.687540
C490 0.175300 0.356600 0.324100 -0.486670
Cl491 0.215220 0.397540 0.310900 0.004815
N492 0.136100 0.400700 0.192300 -0.587935
C493 0.118600 0.417100 0.150700 -0.224780
Cl494 0.059540 0.433100 0.144770 -0.166495
Zn495 0.895670 0.395510 0.747930 1.374125
N496 0.962000 0.372100 0.755700 2.480760
C497 0.975700 0.335800 0.778500 -1.014825
Cl498 0.939380 0.295410 0.804360 0.048315
N499 0.900900 0.460300 0.723100 0.414530
C500 0.917300 0.477600 0.679200 -0.183190
Cl501 0.931380 0.439060 0.637320 -0.152420
N502 0.865100 0.353900 0.702800 0.703125
C503 0.824700 0.356600 0.675900 -0.497195
Cl504 0.784780 0.397540 0.689100 0.008365
N505 0.863900 0.400700 0.807700 -0.591765
C506 0.881400 0.417100 0.849300 -0.224600
Cl507 0.940460 0.433100 0.855230 -0.165265
Zn508 0.104330 0.604490 0.747930 1.312405
N509 0.038000 0.627900 0.755700 2.485365
C510 0.024300 0.664200 0.778500 -1.012170
Cl511 0.060620 0.704590 0.804360 0.046560
N512 0.099100 0.539700 0.723100 0.433975
C513 0.082700 0.522400 0.679200 -0.192170
Cl514 0.068620 0.560940 0.637320 -0.147610
N515 0.134900 0.646100 0.702800 0.720930
C516 0.175300 0.643400 0.675900 -0.498715
Cl517 0.215220 0.602460 0.689100 0.009665
N518 0.136100 0.599300 0.807700 -0.535620
C519 0.118600 0.582900 0.849300 -0.237440
Cl520 0.059540 0.566900 0.855230 -0.165710
Zn521 0.604490 0.747930 0.104330 1.312220
N522 0.627900 0.755700 0.038000 2.485255
C523 0.664200 0.778500 0.024300 -1.011930
Cl524 0.704590 0.804360 0.060620 0.046450
N525 0.539700 0.723100 0.099100 0.434180
C526 0.522400 0.679200 0.082700 -0.192210
Cl527 0.560940 0.637320 0.068620 -0.147615
N528 0.646100 0.702800 0.134900 0.720785
C529 0.643400 0.675900 0.175300 -0.498530
Cl530 0.602460 0.689100 0.215220 0.009500
N531 0.599300 0.807700 0.136100 -0.535065
C532 0.582900 0.849300 0.118600 -0.237580
Cl533 0.566900 0.855230 0.059540 -0.165780
Zn534 0.395510 0.747930 0.895670 1.374195
N535 0.372100 0.755700 0.962000 2.480645
C536 0.335800 0.778500 0.975700 -1.014875
Cl537 0.295410 0.804360 0.939380 0.048270
N538 0.460300 0.723100 0.900900 0.414690
C539 0.477600 0.679200 0.917300 -0.183205
Cl540 0.439060 0.637320 0.931380 -0.152470
N541 0.353900 0.702800 0.865100 0.703195
C542 0.356600 0.675900 0.824700 -0.497240
Cl543 0.397540 0.689100 0.784780 0.008335
N544 0.400700 0.807700 0.863900 -0.591540
C545 0.417100 0.849300 0.881400 -0.224350
Cl546 0.433100 0.855230 0.940460 -0.165300
Zn547 0.395510 0.252070 0.104330 1.353830
N548 0.372100 0.244300 0.038000 2.505515
C549 0.335800 0.221500 0.024300 -1.009310
Cl550 0.295410 0.195640 0.060620 0.045085
N551 0.460300 0.276900 0.099100 0.428300
C552 0.477600 0.320800 0.082700 -0.191430
Cl553 0.439060 0.362680 0.068620 -0.148915
N554 0.353900 0.297200 0.134900 0.687695
C555 0.356600 0.324100 0.175300 -0.486680
Cl556 0.397540 0.310900 0.215220 0.004890
N557 0.400700 0.192300 0.136100 -0.587825
C558 0.417100 0.150700 0.118600 -0.225045
Cl559 0.433100 0.144770 0.059540 -0.166430
Zn560 0.604490 0.252070 0.895670 1.404645
N561 0.627900 0.244300 0.962000 2.462810
C562 0.664200 0.221500 0.975700 -1.012955
Cl563 0.704590 0.195640 0.939380 0.044920
N564 0.539700 0.276900 0.900900 0.401890
C565 0.522400 0.320800 0.917300 -0.180785
Cl566 0.560940 0.362680 0.931380 -0.154990
N567 0.646100 0.297200 0.865100 0.686060
C568 0.643400 0.324100 0.824700 -0.482015
Cl569 0.602460 0.310900 0.784780 0.005580
N570 0.599300 0.192300 0.863900 -0.597765
C571 0.582900 0.150700 0.881400 -0.214565
Cl572 0.566900 0.144770 0.940460 -0.170085
Zn573 0.747930 0.895670 0.395510 1.374290
N574 0.755700 0.962000 0.372100 2.480350
C575 0.778500 0.975700 0.335800 -1.014865
Cl576 0.804360 0.939380 0.295410 0.048335
N577 0.723100 0.900900 0.460300 0.414765
C578 0.679200 0.917300 0.477600 -0.183320
Cl579 0.637320 0.931380 0.439060 -0.152440
N580 0.702800 0.865100 0.353900 0.703205
C581 0.675900 0.824700 0.356600 -0.497210
Cl582 0.689100 0.784780 0.397540 0.008340
N583 0.807700 0.863900 0.400700 -0.591460
C584 0.849300 0.881400 0.417100 -0.224445
Cl585 0.855230 0.940460 0.433100 -0.165285
Zn586 0.747930 0.104330 0.604490 1.312465
N587 0.755700 0.038000 0.627900 2.485185
C588 0.778500 0.024300 0.664200 -1.012075
Cl589 0.804360 0.060620 0.704590 0.046430
N590 0.723100 0.099100 0.539700 0.434055
C591 0.679200 0.082700 0.522400 -0.192200
Cl592 0.637320 0.068620 0.560940 -0.147640
N593 0.702800 0.134900 0.646100 0.720835
C594 0.675900 0.175300 0.643400 -0.498700
Cl595 0.689100 0.215220 0.602460 0.009550
N596 0.807700 0.136100 0.599300 -0.535345
C597 0.849300 0.118600 0.582900 -0.237620
Cl598 0.855230 0.059540 0.566900 -0.165870
Zn599 0.252070 0.895670 0.604490 1.404660
N600 0.244300 0.962000 0.627900 2.462555
C601 0.221500 0.975700 0.664200 -1.012720
Cl602 0.195640 0.939380 0.704590 0.044930
N603 0.276900 0.900900 0.539700 0.401950
C604 0.320800 0.917300 0.522400 -0.180815
Cl605 0.362680 0.931380 0.560940 -0.154925
N606 0.297200 0.865100 0.646100 0.685915
C607 0.324100 0.824700 0.643400 -0.482165
Cl608 0.310900 0.784780 0.602460 0.005525
N609 0.192300 0.863900 0.599300 -0.597690
C610 0.150700 0.881400 0.582900 -0.214620
Cl611 0.144770 0.940460 0.566900 -0.170210
Zn612 0.252070 0.104330 0.395510 1.353650
N613 0.244300 0.038000 0.372100 2.505725
C614 0.221500 0.024300 0.335800 -1.009495
Cl615 0.195640 0.060620 0.295410 0.045100
N616 0.276900 0.099100 0.460300 0.428070
C617 0.320800 0.082700 0.477600 -0.191450
Cl618 0.362680 0.068620 0.439060 -0.148775
N619 0.297200 0.134900 0.353900 0.687815
C620 0.324100 0.175300 0.356600 -0.486935
Cl621 0.310900 0.215220 0.397540 0.004960
N622 0.192300 0.136100 0.400700 -0.587805
C623 0.150700 0.118600 0.417100 -0.224880
Cl624 0.144770 0.059540 0.433100 -0.166395
C625 0.395700 0.000000 0.259000 -4.576595
H626 0.423900 0.000000 0.276600 1.849850
C627 0.604300 0.000000 0.259000 -4.547920
H628 0.576100 0.000000 0.276600 1.842520
C629 0.604300 0.000000 0.741000 -4.538260
H630 0.576100 0.000000 0.723400 1.838455
C631 0.395700 0.000000 0.741000 -4.573610
H632 0.423900 0.000000 0.723400 1.846840
C633 0.259000 0.395700 0.000000 -4.576830
H634 0.276600 0.423900 0.000000 1.849790
C635 0.259000 0.604300 0.000000 -4.548325
H636 0.276600 0.576100 0.000000 1.842525
C637 0.741000 0.604300 0.000000 -4.537170
H638 0.723400 0.576100 0.000000 1.838230
C639 0.741000 0.395700 0.000000 -4.573395
H640 0.723400 0.423900 0.000000 1.846825
C641 0.000000 0.259000 0.395700 -4.576690
H642 0.000000 0.276600 0.423900 1.849785
C643 0.000000 0.259000 0.604300 -4.548015
H644 0.000000 0.276600 0.576100 1.842495
C645 0.000000 0.741000 0.604300 -4.538330
H646 0.000000 0.723400 0.576100 1.838480
C647 0.000000 0.741000 0.395700 -4.573840
H648 0.000000 0.723400 0.423900 1.846870
C649 0.000000 0.395700 0.741000 -4.574510
H650 0.000000 0.423900 0.723400 1.847090
C651 0.000000 0.604300 0.741000 -4.538345
H652 0.000000 0.576100 0.723400 1.838375
C653 0.000000 0.604300 0.259000 -4.548375
H654 0.000000 0.576100 0.276600 1.842655
C655 0.000000 0.395700 0.259000 -4.577300
H656 0.000000 0.423900 0.276600 1.849910
C657 0.395700 0.259000 0.000000 -4.576910
H658 0.423900 0.276600 0.000000 1.849770
C659 0.604300 0.259000 0.000000 -4.548110
H660 0.576100 0.276600 0.000000 1.842505
C661 0.604300 0.741000 0.000000 -4.538465
H662 0.576100 0.723400 0.000000 1.838430
C663 0.395700 0.741000 0.000000 -4.574490
H664 0.423900 0.723400 0.000000 1.847085
C665 0.259000 0.000000 0.604300 -4.547750
H666 0.276600 0.000000 0.576100 1.842420
C667 0.259000 0.000000 0.395700 -4.577195
H668 0.276600 0.000000 0.423900 1.849965
C669 0.741000 0.000000 0.395700 -4.573505
H670 0.723400 0.000000 0.423900 1.846845
C671 0.741000 0.000000 0.604300 -4.537880
H672 0.723400 0.000000 0.576100 1.838360
C673 0.500000 0.106500 0.254800 -2.405110
H674 0.500000 0.117100 0.223200 1.666645
C675 0.500000 0.893500 0.254800 -2.396920
H676 0.500000 0.882900 0.223200 1.666080
C677 0.500000 0.106500 0.745200 -2.402910
H678 0.500000 0.117100 0.776800 1.665140
C679 0.500000 0.893500 0.745200 -2.399675
H680 0.500000 0.882900 0.776800 1.665150
C681 0.254800 0.500000 0.106500 -2.405285
H682 0.223200 0.500000 0.117100 1.666735
C683 0.254800 0.500000 0.893500 -2.397715
H684 0.223200 0.500000 0.882900 1.666310
C685 0.745200 0.500000 0.106500 -2.402795
H686 0.776800 0.500000 0.117100 1.664995
C687 0.745200 0.500000 0.893500 -2.399750
H688 0.776800 0.500000 0.882900 1.665125
C689 0.106500 0.254800 0.500000 -2.405380
H690 0.117100 0.223200 0.500000 1.666720
C691 0.893500 0.254800 0.500000 -2.397590
H692 0.882900 0.223200 0.500000 1.666275
C693 0.106500 0.745200 0.500000 -2.402980
H694 0.117100 0.776800 0.500000 1.665110
C695 0.893500 0.745200 0.500000 -2.399495
H696 0.882900 0.776800 0.500000 1.665055
C697 0.106500 0.500000 0.745200 -2.402870
H698 0.117100 0.500000 0.776800 1.665060
C699 0.893500 0.500000 0.745200 -2.399085
H700 0.882900 0.500000 0.776800 1.665045
C701 0.106500 0.500000 0.254800 -2.405105
H702 0.117100 0.500000 0.223200 1.666595
C703 0.893500 0.500000 0.254800 -2.397335
H704 0.882900 0.500000 0.223200 1.666175
C705 0.500000 0.254800 0.893500 -2.397365
H706 0.500000 0.223200 0.882900 1.666275
C707 0.500000 0.254800 0.106500 -2.405375
H708 0.500000 0.223200 0.117100 1.666730
C709 0.500000 0.745200 0.893500 -2.399635
H710 0.500000 0.776800 0.882900 1.665165
C711 0.500000 0.745200 0.106500 -2.403210
H712 0.500000 0.776800 0.117100 1.665020
C713 0.254800 0.106500 0.500000 -2.404630
H714 0.223200 0.117100 0.500000 1.666570
C715 0.254800 0.893500 0.500000 -2.397305
H716 0.223200 0.882900 0.500000 1.666195
C717 0.745200 0.106500 0.500000 -2.403035
H718 0.776800 0.117100 0.500000 1.665045
C719 0.745200 0.893500 0.500000 -2.399670
H720 0.776800 0.882900 0.500000 1.665115
C721 0.317600 0.114200 0.317600 -2.071050
H722 0.306500 0.084900 0.306500 0.711840
C723 0.682400 0.885800 0.317600 -2.104085
H724 0.693500 0.915100 0.306500 0.729210
C725 0.682400 0.114200 0.682400 -2.112645
H726 0.693500 0.084900 0.693500 0.732730
C727 0.317600 0.885800 0.682400 -2.103715
H728 0.306500 0.915100 0.693500 0.729220
C729 0.317600 0.317600 0.114200 -2.070790
H730 0.306500 0.306500 0.084900 0.711745
C731 0.317600 0.682400 0.885800 -2.103835
H732 0.306500 0.693500 0.915100 0.729135
C733 0.682400 0.682400 0.114200 -2.112640
H734 0.693500 0.693500 0.084900 0.732860
C735 0.682400 0.317600 0.885800 -2.104120
H736 0.693500 0.306500 0.915100 0.729210
C737 0.114200 0.317600 0.317600 -2.070750
H738 0.084900 0.306500 0.306500 0.711765
C739 0.885800 0.317600 0.682400 -2.103925
H740 0.915100 0.306500 0.693500 0.729150
C741 0.114200 0.682400 0.682400 -2.112660
H742 0.084900 0.693500 0.693500 0.732715
C743 0.885800 0.682400 0.317600 -2.103665
H744 0.915100 0.693500 0.306500 0.729145
C745 0.114200 0.317600 0.682400 -2.116980
H746 0.084900 0.306500 0.693500 0.726960
C747 0.885800 0.682400 0.682400 -2.081825
H748 0.915100 0.693500 0.693500 0.721720
C749 0.114200 0.682400 0.317600 -2.116600
H750 0.084900 0.693500 0.306500 0.726995
C751 0.885800 0.317600 0.317600 -2.083050
H752 0.915100 0.306500 0.306500 0.728300
C753 0.317600 0.317600 0.885800 -2.082785
H754 0.306500 0.306500 0.915100 0.728280
C755 0.682400 0.317600 0.114200 -2.117195
H756 0.693500 0.306500 0.084900 0.727050
C757 0.682400 0.682400 0.885800 -2.081930
H758 0.693500 0.693500 0.915100 0.721700
C759 0.317600 0.682400 0.114200 -2.116960
H760 0.306500 0.693500 0.084900 0.727025
C761 0.317600 0.114200 0.682400 -2.117105
H762 0.306500 0.084900 0.693500 0.726955
C763 0.317600 0.885800 0.317600 -2.083195
H764 0.306500 0.915100 0.306500 0.728335
C765 0.682400 0.114200 0.317600 -2.116730
H766 0.693500 0.084900 0.306500 0.726945
C767 0.682400 0.885800 0.682400 -2.082650
H768 0.693500 0.915100 0.693500 0.721670
C769 0.394900 0.178100 0.178100 0.044445
H770 0.385600 0.200700 0.200700 0.372645
C771 0.605100 0.821900 0.178100 0.008685
H772 0.614400 0.799300 0.200700 0.379345
C773 0.605100 0.178100 0.821900 0.009110
H774 0.614400 0.200700 0.799300 0.379265
C775 0.394900 0.821900 0.821900 0.042695
H776 0.385600 0.799300 0.799300 0.372520
C777 0.178100 0.394900 0.178100 0.044695
H778 0.200700 0.385600 0.200700 0.372570
C779 0.178100 0.605100 0.821900 0.009495
H780 0.200700 0.614400 0.799300 0.379200
C781 0.821900 0.605100 0.178100 0.009070
H782 0.799300 0.614400 0.200700 0.379325
C783 0.821900 0.394900 0.821900 0.043555
H784 0.799300 0.385600 0.799300 0.372450
C785 0.178100 0.178100 0.394900 0.044455
H786 0.200700 0.200700 0.385600 0.372590
C787 0.821900 0.178100 0.605100 0.009190
H788 0.799300 0.200700 0.614400 0.379305
C789 0.178100 0.821900 0.605100 0.009150
H790 0.200700 0.799300 0.614400 0.379380
C791 0.821900 0.821900 0.394900 0.042630
H792 0.799300 0.799300 0.385600 0.372525
C793 0.178100 0.394900 0.821900 0.015275
H794 0.200700 0.385600 0.799300 0.377310
C795 0.821900 0.605100 0.821900 -0.009365
H796 0.799300 0.614400 0.799300 0.386045
C797 0.178100 0.605100 0.178100 0.039280
H798 0.200700 0.614400 0.200700 0.369025
C799 0.821900 0.394900 0.178100 0.015305
H800 0.799300 0.385600 0.200700 0.377270
C801 0.394900 0.178100 0.821900 0.015685
H802 0.385600 0.200700 0.799300 0.377165
C803 0.605100 0.178100 0.178100 0.039530
H804 0.614400 0.200700 0.200700 0.369000
C805 0.605100 0.821900 0.821900 -0.009325
H806 0.614400 0.799300 0.799300 0.385995
C807 0.394900 0.821900 0.178100 0.015885
H808 0.385600 0.799300 0.200700 0.377220
C809 0.178100 0.178100 0.605100 0.038965
H810 0.200700 0.200700 0.614400 0.369090
C811 0.178100 0.821900 0.394900 0.015645
H812 0.200700 0.799300 0.385600 0.377220
C813 0.821900 0.178100 0.394900 0.015020
H814 0.799300 0.200700 0.385600 0.377310
C815 0.821900 0.821900 0.605100 -0.009340
H816 0.799300 0.799300 0.614400 0.386130
