
#######################################################################
#
#                 Cambridge Crystallographic Data Centre
#                                CCDC 
#
#######################################################################
#
# If this CIF has been generated from an entry in the Cambridge 
# Structural Database, then it will include bibliographic, chemical, 
# crystal, experimental, refinement or atomic coordinate data resulting 
# from the CCDC's data processing and validation procedures.
#
#######################################################################

data_ABEXUC
_symmetry_cell_setting           orthorhombic
_symmetry_space_group_name_H-M   'P n a 21'
_symmetry_Int_Tables_number      33
_space_group_name_Hall           'P 2c -2n'
loop_
_symmetry_equiv_pos_site_id
_symmetry_equiv_pos_as_xyz
1 x,y,z
2 -x,-y,1/2+z
3 1/2-x,1/2+y,1/2+z
4 1/2+x,1/2-y,z
_cell_length_a                   11.9460(2)
_cell_length_b                   10.9890(2)
_cell_length_c                   19.4020(3)
_cell_angle_alpha                90
_cell_angle_beta                 90
_cell_angle_gamma                90
_cell_volume                     2546.99
loop_
_atom_site_label
_atom_site_type_symbol
_atom_site_fract_x
_atom_site_fract_y
_atom_site_fract_z
Nd1 Nd -0.34181(2) -0.136720(19) -0.014380(13)
Nd2 Nd -0.524000(18) -0.617970(19) -0.228550(13)
N1 N -0.3788(4) -0.2276(4) -0.1400(2)
C1 C -0.4383(4) -0.3279(4) -0.1534(2)
H1 H -0.4933 -0.3493 -0.1218
N2 N -0.4257(3) -0.3999(3) -0.2082(2)
C2 C -0.3518(4) -0.3642(4) -0.2558(3)
C3 C -0.2896(4) -0.2577(4) -0.2481(2)
H2 H -0.2403 -0.2318 -0.2821
C4 C -0.3040(4) -0.1930(4) -0.1887(2)
C5 C -0.2294(4) -0.0862(4) -0.1704(3)
O1 O -0.2387(3) -0.0447(3) -0.11006(18)
O2 O -0.1622(3) -0.0503(3) -0.21588(18)
C6 C -0.3326(4) -0.4473(4) -0.3167(3)
O3 O -0.3919(3) -0.5429(3) -0.31907(18)
O4 O -0.2617(4) -0.4148(4) -0.3581(2)
N3 N -0.4909(3) -0.0005(3) -0.0887(2)
C7 C -0.4717(4) 0.1018(4) -0.1240(3)
H3 H -0.3983 0.1299 -0.1257
N4 N -0.5492(3) 0.1671(4) -0.1571(2)
C8 C -0.6549(4) 0.1264(4) -0.1537(3)
C9 C -0.6827(4) 0.0214(4) -0.1180(3)
H4 H -0.7564 -0.0054 -0.1148
C10 C -0.5961(4) -0.0413(4) -0.0876(3)
C11 C -0.6160(4) -0.1605(4) -0.0501(2)
O5 O -0.5345(2) -0.2084(3) -0.0186(2)
O6 O -0.7114(3) -0.2057(3) -0.05666(17)
C12 C -0.7446(4) 0.2040(4) -0.1879(2)
O7 O -0.7131(3) 0.2995(3) -0.21651(19)
O8 O -0.8427(3) 0.1659(3) -0.1838(2)
O9 O -0.5790(3) -0.8893(3) -0.39760(18)
C13 C -0.5649(4) -0.7992(4) -0.3599(3)
O10 O -0.5109(3) -0.7952(3) -0.3044(2)
O11 O -0.6515(3) -0.6741(3) -0.44458(19)
C14 C -0.6174(4) -0.6774(4) -0.3837(3)
O12 O -0.6204(3) -0.5918(3) -0.34009(18)
O13 O -0.3221(3) 0.0798(3) 0.01348(19)
O14 O -0.1615(3) -0.1155(3) 0.0470(2)
O15 O -0.5431(3) -0.5799(3) -0.10317(18)
H5 H -0.3656 0.1425 0.0136
H6 H -0.3052 0.0674 0.0569
H7 H -0.1407 -0.1149 0.0909
H8 H -0.1316 -0.1858 0.0336
H9 H -0.6127 -0.5548 -0.1014
H10 H -0.5385 -0.6305 -0.0693
Nd1C Nd -0.84181(2) -0.363280(19) -0.014380(13)
Nd1A Nd -0.65819(2) -0.863280(19) -0.514380(13)
Nd2C Nd -0.024000(18) 0.117970(19) -0.228550(13)
Nd2_2 Nd -0.524000(18) 0.382030(19) -0.228550(13)
Nd2C_2 Nd -1.024000(18) 0.117970(19) -0.228550(13)
O2C O -0.6622(3) -0.4497(3) -0.21588(18)
N4_2 N -0.5492(3) -0.8329(4) -0.1571(2)
O6C O -0.2114(3) -0.2943(3) -0.05666(17)
O7_2 O -0.7131(3) -0.7005(3) -0.21651(19)
O8C O -0.3427(3) -0.6659(3) -0.1838(2)
O9A O -0.4210(3) -0.1107(3) 0.10240(18)
O11A O -0.3485(3) -0.3259(3) 0.05542(19)
O16 O -0.4943(4) -0.7464(4) 0.0031(3)
O17 O -0.6592(5) 0.1029(6) 0.0520(4)
O18 O -0.6055(6) -0.3519(5) -0.3866(3)
O19 O -0.0438(4) -0.3453(4) -0.3030(3)
O20 O -0.3630(3) -0.9907(3) -0.3122(3)
loop_
_geom_bond_atom_site_label_1
_geom_bond_atom_site_label_2
_geom_bond_site_symmetry_1
_geom_bond_site_symmetry_2
Nd1 N1 1_555 1_555
Nd2 N2 1_555 1_555
N1 C1 1_555 1_555
C1 H1 1_555 1_555
N2 C1 1_555 1_555
C2 N2 1_555 1_555
C3 C2 1_555 1_555
H2 C3 1_555 1_555
C4 N1 1_555 1_555
C5 C4 1_555 1_555
O1 Nd1 1_555 1_555
O2 C5 1_555 1_555
C6 C2 1_555 1_555
O3 Nd2 1_555 1_555
O4 C6 1_555 1_555
N3 Nd1 1_555 1_555
C7 N3 1_555 1_555
H3 C7 1_555 1_555
N4 C7 1_555 1_555
C8 N4 1_555 1_555
C9 C8 1_555 1_555
H4 C9 1_555 1_555
C10 N3 1_555 1_555
C11 C10 1_555 1_555
O5 Nd1 1_555 1_555
O6 C11 1_555 1_555
C12 C8 1_555 1_555
O7 C12 1_555 1_555
O8 C12 1_555 1_555
O9 C13 1_555 1_555
C13 O10 1_555 1_555
O10 Nd2 1_555 1_555
O11 C14 1_555 1_555
C14 C13 1_555 1_555
O12 Nd2 1_555 1_555
O13 Nd1 1_555 1_555
O14 Nd1 1_555 1_555
O15 Nd2 1_555 1_555
H5 O13 1_555 1_555
H6 O13 1_555 1_555
H7 O14 1_555 1_555
H8 O14 1_555 1_555
H9 O15 1_555 1_555
H10 O15 1_555 1_555
Nd1C O6 1_555 1_555
Nd1A O9 1_555 1_555
Nd2C O2 1_555 1_555
Nd2_2 N4 1_555 1_555
Nd2C_2 O8 1_555 1_555
O2C Nd2 1_555 1_555
N4_2 Nd2 1_555 1_555
O6C Nd1 1_555 1_555
O7_2 Nd2 1_555 1_555
O8C Nd2 1_555 1_555
O9A Nd1 1_555 1_555
O11A Nd1 1_555 1_555
C3 C4 1_555 1_555
C5 O1 1_555 1_555
C6 O3 1_555 1_555
C9 C10 1_555 1_555
C11 O5 1_555 1_555
O7 Nd2_2 1_555 1_555
O11 Nd1A 1_555 1_555
C14 O12 1_555 1_555

#END
