
#######################################################################
#
#                 Cambridge Crystallographic Data Centre
#                                CCDC 
#
#######################################################################
#
# If this CIF has been generated from an entry in the Cambridge 
# Structural Database, then it will include bibliographic, chemical, 
# crystal, experimental, refinement or atomic coordinate data resulting 
# from the CCDC's data processing and validation procedures.
#
#######################################################################

data_ACMPCD
_symmetry_cell_setting           monoclinic
_symmetry_space_group_name_H-M   'C 2'
_symmetry_Int_Tables_number      5
_space_group_name_Hall           'C 2y'
loop_
_symmetry_equiv_pos_site_id
_symmetry_equiv_pos_as_xyz
1 x,y,z
2 1/2+x,1/2+y,z
3 -x,y,-z
4 1/2-x,1/2+y,-z
_cell_length_a                   31.480(12)
_cell_length_b                   5.349(3)
_cell_length_c                   25.200(9)
_cell_angle_alpha                90
_cell_angle_beta                 128.52(2)
_cell_angle_gamma                90
_cell_volume                     3319.95
loop_
_atom_site_label
_atom_site_type_symbol
_atom_site_fract_x
_atom_site_fract_y
_atom_site_fract_z
Cd1 Cd 0.18568 0.50000 -0.04510
Cd2 Cd 0.23368 -0.61173 0.42153
N1 N 0.23800 -0.18300 0.28300
N2 N 0.04200 0.83900 -0.21200
C1 C 0.24600 -0.32500 0.33200
C2 C 0.08900 0.73000 -0.16100
O1 O 0.28700 -0.28300 0.39000
O2 O 0.13300 0.80600 -0.14600
N3 N 0.21200 -0.49900 0.31800
N4 N 0.09100 0.54800 -0.12300
C3 C 0.16900 -0.54000 0.25600
C4 C 0.04500 0.45200 -0.14000
N5 N 0.13300 -0.73100 0.24100
N6 N 0.04900 0.26200 -0.10400
C5 C 0.15800 -0.38700 0.20000
C6 C -0.00500 0.57800 -0.19100
C7 C 0.19500 -0.22600 0.21600
C8 C -0.00800 0.75200 -0.22900
C9 C 0.27900 0.01500 0.30100
C10 C 0.04600 1.05100 -0.25200
O3 O 0.25700 0.19200 0.24900
O4 O -0.00300 1.18200 -0.28500
C11 C 0.33200 -0.08300 0.31900
C12 C 0.03400 0.89700 -0.31900
O5 O 0.37700 0.07600 0.36400
O6 O 0.06900 1.04800 -0.32500
C13 C 0.31900 -0.05800 0.25500
C14 C -0.01200 0.95100 -0.36600
O7 O 0.36300 -0.05600 0.25000
O8 O -0.02000 0.93100 -0.42800
C15 C 0.29000 0.23600 0.22900
C16 C -0.03000 1.18600 -0.35400
C17 C 0.25500 0.28300 0.15400
C18 C -0.09500 1.20100 -0.39300
P1 P 0.20400 0.03860 0.04150
P2 P -0.16960 0.93290 -0.40940
O9 O 0.23000 0.06300 0.11800
O10 O -0.10900 0.97300 -0.38000
O11 O 0.24100 0.16800 0.03100
O12 O -0.20600 1.06000 -0.47800
O13 O 0.15300 0.18500 0.00200
O14 O -0.17800 1.05500 -0.36400
O15 O 0.20000 -0.23600 0.03100
O16 O -0.17500 0.64700 -0.41400
O17 O 0.18100 0.24700 -0.12300
O18 O 0.30500 -0.88900 0.46400
O11C O 0.25900 0.66800 -0.03100
O12A O 0.29400 -0.44000 0.52200
O12B O 0.20600 -0.94000 0.47800
O14B O 0.17800 -0.94500 0.36400
O16B O 0.17500 -0.35300 0.41400
O15_2 O 0.20000 0.76400 0.03100
Cd1C Cd 0.31432 0.00000 0.04510
Cd2A Cd -0.26632 0.88827 -0.57847
Cd2B Cd -0.23368 1.38827 -0.42153
Cd2B_2 Cd -0.23368 0.38827 -0.42153
Cd1_2 Cd 0.18568 -0.50000 -0.04510
O19 O 0.04300 0.13000 -0.90000
O20 O 0.11300 0.63900 -0.96200
O21 O 0.37700 0.42600 -0.54400
loop_
_geom_bond_atom_site_label_1
_geom_bond_atom_site_label_2
_geom_bond_site_symmetry_1
_geom_bond_site_symmetry_2
Cd1 O2 1_555 1_555
Cd2 O1 1_555 1_555
N1 C1 1_555 1_555
N2 C2 1_555 1_555
C1 O1 1_555 1_555
C2 O2 1_555 1_555
N3 Cd2 1_555 1_555
N4 Cd1 1_555 1_555
C3 N3 1_555 1_555
C4 N4 1_555 1_555
N5 C3 1_555 1_555
N6 C4 1_555 1_555
C5 C3 1_555 1_555
C6 C4 1_555 1_555
C7 N1 1_555 1_555
C8 N2 1_555 1_555
C9 N1 1_555 1_555
C10 N2 1_555 1_555
O3 C9 1_555 1_555
O4 C10 1_555 1_555
C11 C9 1_555 1_555
C12 C10 1_555 1_555
O5 C11 1_555 1_555
O6 C12 1_555 1_555
C13 C11 1_555 1_555
C14 C12 1_555 1_555
O7 C13 1_555 1_555
O8 C14 1_555 1_555
C15 O3 1_555 1_555
C16 O4 1_555 1_555
C17 C15 1_555 1_555
C18 C16 1_555 1_555
P1 O9 1_555 1_555
P2 O10 1_555 1_555
O9 C17 1_555 1_555
O10 C18 1_555 1_555
O11 Cd1 1_555 1_555
O12 P2 1_555 1_555
O13 Cd1 1_555 1_555
O14 P2 1_555 1_555
O15 P1 1_555 1_555
O16 P2 1_555 1_555
O17 Cd1 1_555 1_555
O18 Cd2 1_555 1_555
O11C Cd1 1_555 1_555
O12A Cd2 1_555 1_555
O12B Cd2 1_555 1_555
O14B Cd2 1_555 1_555
O16B Cd2 1_555 1_555
O15_2 Cd1 1_555 1_555
Cd1C O11 1_555 1_555
Cd2A O12 1_555 1_555
Cd2B O12 1_555 1_555
Cd2B_2 O16 1_555 1_555
Cd1_2 O15 1_555 1_555
C1 N3 1_555 1_555
C2 N4 1_555 1_555
C5 C7 1_555 1_555
C6 C8 1_555 1_555
C13 C15 1_555 1_555
C14 C16 1_555 1_555
P1 O11 1_555 1_555
P1 O13 1_555 1_555
O14 Cd2B 1_555 1_555

#END
