
#######################################################################
#
#                 Cambridge Crystallographic Data Centre
#                                CCDC 
#
#######################################################################
#
# If this CIF has been generated from an entry in the Cambridge 
# Structural Database, then it will include bibliographic, chemical, 
# crystal, experimental, refinement or atomic coordinate data resulting 
# from the CCDC's data processing and validation procedures.
#
#######################################################################

data_ADODII
_symmetry_cell_setting           monoclinic
_symmetry_space_group_name_H-M   'C 2'
_symmetry_Int_Tables_number      5
_space_group_name_Hall           'C 2y'
loop_
_symmetry_equiv_pos_site_id
_symmetry_equiv_pos_as_xyz
1 x,y,z
2 -x,y,-z
3 1/2+x,1/2+y,z
4 1/2-x,1/2+y,-z
_cell_length_a                   33.136(6)
_cell_length_b                   7.3933(12)
_cell_length_c                   14.349(2)
_cell_angle_alpha                90
_cell_angle_beta                 104.510(3)
_cell_angle_gamma                90
_cell_volume                     3403.16
loop_
_atom_site_label
_atom_site_type_symbol
_atom_site_fract_x
_atom_site_fract_y
_atom_site_fract_z
La1 La 0.749342(10) 1.25673(9) 0.03623(2)
O1 O 0.69611(15) 1.5284(7) -0.0424(4)
O2 O 0.67103(14) 1.2643(15) -0.0222(4)
O3 O 0.2787(2) 2.1617(9) -0.1739(4)
O4 O 0.27995(16) 1.9403(7) -0.0719(4)
O5 O 0.26733(15) 1.0743(7) -0.8839(3)
O6 O 0.30477(18) 0.8454(8) -0.8154(4)
O7 O 0.39790(18) 1.6110(8) -0.3154(4)
O8 O 0.39275(18) 1.4811(8) -0.5423(4)
O9 O 0.50745(16) 1.6234(8) -0.2756(4)
O10 O 0.5000 1.5775(11) -0.5000
C1 C 0.4480(2) 1.5728(11) -0.4105(5)
C2 C 0.4706(2) 1.6843(11) -0.4709(6)
H1 H 0.4506 1.7314 -0.5270
H2 H 0.4844 1.7860 -0.4334
C3 C 0.4256(2) 1.4139(11) -0.4661(5)
H3 H 0.4448 1.3428 -0.4921
H4 H 0.4143 1.3371 -0.4240
C4 C 0.4188(2) 1.7025(10) -0.3776(5)
H5 H 0.4347 1.8035 -0.3437
H6 H 0.3985 1.7497 -0.4331
C5 C 0.4800(2) 1.4882(11) -0.3247(6)
H7 H 0.4656 1.4324 -0.2810
H8 H 0.4958 1.3952 -0.3477
C6 C 0.3722(3) 1.7145(12) -0.2755(7)
C7 C 0.3637(3) 1.8918(15) -0.2981(7)
H9 H 0.3758 1.9499 -0.3419
C8 C 0.3365(3) 1.9854(14) -0.2544(7)
H10 H 0.3309 2.1069 -0.2688
C9 C 0.3180(3) 1.9011(13) -0.1911(6)
C10 C 0.3265(3) 1.7183(14) -0.1700(7)
H11 H 0.3142 1.6584 -0.1273
C11 C 0.3533(3) 1.6280(14) -0.2129(7)
H12 H 0.3588 1.5061 -0.1994
C12 C 0.5456(2) 1.5673(12) -0.2187(5)
C13 C 0.5749(2) 1.7012(11) -0.1922(6)
H13 H 0.5686 1.8206 -0.2106
C14 C 0.6144(2) 1.6538(11) -0.1371(6)
H14 H 0.6347 1.7427 -0.1189
C15 C 0.6238(2) 1.4761(10) -0.1089(5)
C16 C 0.5929(2) 1.3479(12) -0.1366(6)
H15 H 0.5988 1.2279 -0.1188
C17 C 0.5535(2) 1.3928(12) -0.1902(6)
H16 H 0.5327 1.3053 -0.2064
C18 C 0.6656(2) 1.4202(11) -0.0538(5)
C19 C 0.3710(3) 1.3577(16) -0.6051(7)
C20 C 0.3792(4) 1.1752(17) -0.6037(9)
H17 H 0.4008 1.1267 -0.5560
C21 C 0.3555(3) 1.0657(16) -0.6723(8)
H18 H 0.3620 0.9434 -0.6722
C22 C 0.3215(3) 1.1317(12) -0.7428(7)
C23 C 0.3133(3) 1.3146(11) -0.7436(7)
H19 H 0.2912 1.3622 -0.7904
C24 C 0.3379(3) 1.4295(12) -0.6748(7)
H20 H 0.3322 1.5527 -0.6756
C25 C 0.2969(2) 1.0093(11) -0.8175(5)
C29 C 0.2907(2) 2.0070(12) -0.1437(6)
La1A La 0.250658(10) 1.25673(9) -1.03623(2)
La1C La 0.750658(10) 1.75673(9) -0.03623(2)
La1A_2 La 0.250658(10) 2.25673(9) -0.03623(2)
La1B La 0.249342(10) 1.75673(9) 0.03623(2)
La1B_2 La 0.249342(10) 0.75673(9) -0.96377(2)
La1C_2 La 0.750658(10) 0.75673(9) -0.03623(2)
La1_2 La 0.749342(10) 2.25673(9) -0.96377(2)
La1C_3 La 0.750658(10) 1.75673(9) -1.03623(2)
La1B_3 La 0.249342(10) 1.75673(9) -0.96377(2)
O1A O 0.30389(15) 1.5284(7) -0.9576(4)
O1C O 0.80389(15) 1.0284(7) 0.0424(4)
O1B O 0.19611(15) 1.0284(7) -1.0424(4)
O2A O 0.32897(14) 1.2643(15) -0.9778(4)
O3A O 0.7213(2) 2.1617(9) -0.8261(4)
O3A_2 O 0.7213(2) 1.1617(9) 0.1739(4)
O3_2 O 0.2787(2) 1.1617(9) -1.1739(4)
O4A O 0.72005(16) 1.9403(7) -0.9281(4)
O4A_2 O 0.72005(16) 0.9403(7) 0.0719(4)
O4B O 0.77995(16) 1.4403(7) -0.0719(4)
O4_2 O 0.27995(16) 0.9403(7) -1.0719(4)
O4C O 0.22005(16) 1.4403(7) -0.9281(4)
O5A O 0.73267(15) 1.0743(7) -0.1161(3)
O5B O 0.76733(15) 1.5743(7) 0.1161(3)
O5C O 0.23267(15) 1.5743(7) -1.1161(3)
O6A O 0.69523(18) 0.8454(8) -0.1846(4)
O6B O 0.80477(18) 1.3454(8) 0.1846(4)
O6C O 0.19523(18) 1.3454(8) -1.1846(4)
O7A O 0.60210(18) 1.6110(8) -0.6846(4)
O8A O 0.60725(18) 1.4811(8) -0.4577(4)
O9A O 0.49255(16) 1.6234(8) -0.7244(4)
C1A C 0.5520(2) 1.5728(11) -0.5895(5)
C2A C 0.5294(2) 1.6843(11) -0.5291(6)
H1A H 0.5494 1.7314 -0.4730
H2A H 0.5156 1.7860 -0.5666
C3A C 0.5744(2) 1.4139(11) -0.5339(5)
H3A H 0.5552 1.3428 -0.5079
H4A H 0.5857 1.3371 -0.5760
C4A C 0.5812(2) 1.7025(10) -0.6224(5)
H5A H 0.5653 1.8035 -0.6563
H6A H 0.6015 1.7497 -0.5669
C5A C 0.5200(2) 1.4882(11) -0.6753(6)
H7A H 0.5344 1.4324 -0.7190
H8A H 0.5042 1.3952 -0.6523
C6A C 0.6278(3) 1.7145(12) -0.7245(7)
C7A C 0.6363(3) 1.8918(15) -0.7019(7)
H9A H 0.6242 1.9499 -0.6581
C8A C 0.6635(3) 1.9854(14) -0.7456(7)
H10A H 0.6691 2.1069 -0.7312
C9A C 0.6820(3) 1.9011(13) -0.8089(6)
C10A C 0.6735(3) 1.7183(14) -0.8300(7)
H11A H 0.6858 1.6584 -0.8727
C11A C 0.6467(3) 1.6280(14) -0.7871(7)
H12A H 0.6412 1.5061 -0.8006
C12A C 0.4544(2) 1.5673(12) -0.7813(5)
C13A C 0.4251(2) 1.7012(11) -0.8078(6)
H13A H 0.4314 1.8206 -0.7894
C14A C 0.3856(2) 1.6538(11) -0.8629(6)
H14A H 0.3653 1.7427 -0.8811
C15A C 0.3762(2) 1.4761(10) -0.8911(5)
C16A C 0.4071(2) 1.3479(12) -0.8634(6)
H15A H 0.4012 1.2279 -0.8812
C17A C 0.4465(2) 1.3928(12) -0.8098(6)
H16A H 0.4673 1.3053 -0.7936
C18A C 0.3344(2) 1.4202(11) -0.9462(5)
C19A C 0.6290(3) 1.3577(16) -0.3949(7)
C20A C 0.6208(4) 1.1752(17) -0.3963(9)
H17A H 0.5992 1.1267 -0.4440
C21A C 0.6445(3) 1.0657(16) -0.3277(8)
H18A H 0.6380 0.9434 -0.3278
C22A C 0.6785(3) 1.1317(12) -0.2572(7)
C23A C 0.6867(3) 1.3146(11) -0.2564(7)
H19A H 0.7088 1.3622 -0.2096
C24A C 0.6621(3) 1.4295(12) -0.3252(7)
H20A H 0.6678 1.5527 -0.3244
C25A C 0.7031(2) 1.0093(11) -0.1825(5)
C29A C 0.7093(2) 2.0070(12) -0.8563(6)
N1 N 0.4456(5) 0.046(4) 0.9015(12)
O11 O 0.4732(5) 0.0763(19) 0.7822(10)
C26 C 0.4384(11) 0.268(7) 0.8961(19)
H21 H 0.4491 0.3170 0.8451
H22 H 0.4529 0.3217 0.9562
H23 H 0.4092 0.2942 0.8840
C27 C 0.4354(8) -0.069(5) 0.9623(14)
H24 H 0.4434 -0.1893 0.9487
H25 H 0.4059 -0.0652 0.9554
H26 H 0.4497 -0.0369 1.0270
C28 C 0.4642(7) -0.015(3) 0.8385(14)
H27 H 0.4706 -0.1375 0.8389
loop_
_geom_bond_atom_site_label_1
_geom_bond_atom_site_label_2
_geom_bond_site_symmetry_1
_geom_bond_site_symmetry_2
La1 O1 1_555 1_555
N1 C26 1_555 1_555
O1 C18 1_555 1_555
O2 La1 1_555 1_555
O3 C29 1_555 1_555
O4 C29 1_555 1_555
O5 C25 1_555 1_555
O6 C25 1_555 1_555
O7 C4 1_555 1_555
O8 C3 1_555 1_555
O9 C5 1_555 1_555
O10 C2 1_555 1_555
O11 C28 1_555 1_555
C1 C2 1_555 1_555
C2 H1 1_555 1_555
H2 C2 1_555 1_555
C3 C1 1_555 1_555
H3 C3 1_555 1_555
H4 C3 1_555 1_555
C4 C1 1_555 1_555
H5 C4 1_555 1_555
H6 C4 1_555 1_555
C5 C1 1_555 1_555
H7 C5 1_555 1_555
H8 C5 1_555 1_555
C6 O7 1_555 1_555
C7 C6 1_555 1_555
H9 C7 1_555 1_555
C8 C7 1_555 1_555
H10 C8 1_555 1_555
C9 C8 1_555 1_555
C10 C9 1_555 1_555
H11 C10 1_555 1_555
C11 C6 1_555 1_555
H12 C11 1_555 1_555
C12 O9 1_555 1_555
C13 C12 1_555 1_555
H13 C13 1_555 1_555
C14 C13 1_555 1_555
H14 C14 1_555 1_555
C15 C14 1_555 1_555
C16 C15 1_555 1_555
H15 C16 1_555 1_555
C17 C12 1_555 1_555
H16 C17 1_555 1_555
C18 O2 1_555 1_555
C19 O8 1_555 1_555
C20 C19 1_555 1_555
H17 C20 1_555 1_555
C21 C20 1_555 1_555
H18 C21 1_555 1_555
C22 C21 1_555 1_555
C23 C22 1_555 1_555
H19 C23 1_555 1_555
C24 C19 1_555 1_555
H20 C24 1_555 1_555
C25 C22 1_555 1_555
C26 H21 1_555 1_555
H22 C26 1_555 1_555
H23 C26 1_555 1_555
C27 N1 1_555 1_555
H24 C27 1_555 1_555
H25 C27 1_555 1_555
H26 C27 1_555 1_555
C28 N1 1_555 1_555
H27 C28 1_555 1_555
C29 C9 1_555 1_555
La1A O5 1_555 1_555
La1C O1 1_555 1_555
La1A_2 O3 1_555 1_555
La1B O4 1_555 1_555
La1B_2 O5 1_555 1_555
La1C_2 O1C 1_555 1_555
La1_2 O3A 1_555 1_555
La1C_3 O4A 1_555 1_555
La1B_3 O1A 1_555 1_555
O1A La1A 1_555 1_555
O1C La1 1_555 1_555
O1B La1A 1_555 1_555
O2A La1A 1_555 1_555
O3A C29A 1_555 1_555
O3A_2 La1 1_555 1_555
O3_2 La1A 1_555 1_555
O4A La1_2 1_555 1_555
O4A_2 La1 1_555 1_555
O4B La1 1_555 1_555
O4_2 La1A 1_555 1_555
O4C La1A 1_555 1_555
O5A La1 1_555 1_555
O5B La1 1_555 1_555
O5C La1A 1_555 1_555
O6A La1C_2 1_555 1_555
O6B La1 1_555 1_555
O6C La1A 1_555 1_555
O7A C4A 1_555 1_555
O8A C3A 1_555 1_555
O9A C5A 1_555 1_555
C1A C2A 1_555 1_555
C2A O10 1_555 1_555
H1A C2A 1_555 1_555
H2A C2A 1_555 1_555
C3A C1A 1_555 1_555
H3A C3A 1_555 1_555
H4A C3A 1_555 1_555
C4A C1A 1_555 1_555
H5A C4A 1_555 1_555
H6A C4A 1_555 1_555
C5A C1A 1_555 1_555
H7A C5A 1_555 1_555
H8A C5A 1_555 1_555
C6A O7A 1_555 1_555
C7A C6A 1_555 1_555
H9A C7A 1_555 1_555
C8A C7A 1_555 1_555
H10A C8A 1_555 1_555
C9A C8A 1_555 1_555
C10A C9A 1_555 1_555
H11A C10A 1_555 1_555
C11A C6A 1_555 1_555
H12A C11A 1_555 1_555
C12A O9A 1_555 1_555
C13A C12A 1_555 1_555
H13A C13A 1_555 1_555
C14A C13A 1_555 1_555
H14A C14A 1_555 1_555
C15A C14A 1_555 1_555
C16A C15A 1_555 1_555
H15A C16A 1_555 1_555
C17A C12A 1_555 1_555
H16A C17A 1_555 1_555
C18A O1A 1_555 1_555
C19A O8A 1_555 1_555
C20A C19A 1_555 1_555
H17A C20A 1_555 1_555
C21A C20A 1_555 1_555
H18A C21A 1_555 1_555
C22A C21A 1_555 1_555
C23A C22A 1_555 1_555
H19A C23A 1_555 1_555
C24A C19A 1_555 1_555
H20A C24A 1_555 1_555
C25A O5A 1_555 1_555
C29A O4A 1_555 1_555
O4 La1A_2 1_555 1_555
O6 La1B_2 1_555 1_555
C10 C11 1_555 1_555
C15 C18 1_555 1_555
C16 C17 1_555 1_555
C23 C24 1_555 1_555
La1C O4B 1_555 1_555
La1C O5B 1_555 1_555
La1B_2 O1B 1_555 1_555
La1B_2 O4_2 1_555 1_555
La1C_2 O4A_2 1_555 1_555
La1C_2 O5A 1_555 1_555
La1B_3 O4C 1_555 1_555
La1B_3 O5C 1_555 1_555
O2A C18A 1_555 1_555
O6A C25A 1_555 1_555
C9A C29A 1_555 1_555
C10A C11A 1_555 1_555
C15A C18A 1_555 1_555
C16A C17A 1_555 1_555
C22A C25A 1_555 1_555
C23A C24A 1_555 1_555

#END
