
#######################################################################
#
#                 Cambridge Crystallographic Data Centre
#                                CCDC 
#
#######################################################################
#
# If this CIF has been generated from an entry in the Cambridge 
# Structural Database, then it will include bibliographic, chemical, 
# crystal, experimental, refinement or atomic coordinate data resulting 
# from the CCDC's data processing and validation procedures.
#
#######################################################################

data_ADODOO
_symmetry_cell_setting           monoclinic
_symmetry_space_group_name_H-M   'C 2'
_symmetry_Int_Tables_number      5
_space_group_name_Hall           'C 2y'
loop_
_symmetry_equiv_pos_site_id
_symmetry_equiv_pos_as_xyz
1 x,y,z
2 -x,y,-z
3 1/2+x,1/2+y,z
4 1/2-x,1/2+y,-z
_cell_length_a                   32.789(3)
_cell_length_b                   7.1091(7)
_cell_length_c                   14.5399(15)
_cell_angle_alpha                90
_cell_angle_beta                 104.454(2)
_cell_angle_gamma                90
_cell_volume                     3281.98
loop_
_atom_site_label
_atom_site_type_symbol
_atom_site_fract_x
_atom_site_fract_y
_atom_site_fract_z
Eu1 Eu 0.748719(11) 1.25779(13) 0.03118(2)
O1 O 0.6976(2) 1.5287(12) -0.0405(5)
O2 O 0.67258(18) 1.253(2) -0.0333(5)
O3 O 0.2824(3) 2.1829(12) -0.1593(6)
O4 O 0.2798(2) 1.9392(11) -0.0664(5)
O5 O 0.2644(2) 1.0665(11) -0.8889(4)
O6 O 0.3019(3) 0.8258(11) -0.8234(5)
O7 O 0.3963(3) 1.6076(13) -0.3180(6)
O8 O 0.3908(2) 1.4796(12) -0.5445(5)
O9 O 0.5064(2) 1.6210(12) -0.2793(6)
O10 O 0.5000 1.5774(17) -0.5000
C1 C 0.4468(3) 1.5688(16) -0.4131(7)
C2 C 0.4698(3) 1.6878(16) -0.4715(8)
H1 H 0.4498 1.7372 -0.5270
H2 H 0.4835 1.7932 -0.4338
C3 C 0.4238(3) 1.4072(16) -0.4691(7)
H3 H 0.4431 1.3329 -0.4950
H4 H 0.4121 1.3270 -0.4282
C4 C 0.4176(3) 1.7063(16) -0.3797(7)
H5 H 0.4339 1.8099 -0.3456
H6 H 0.3971 1.7571 -0.4340
C5 C 0.4791(3) 1.4793(17) -0.3299(7)
H7 H 0.4647 1.4172 -0.2876
H8 H 0.4954 1.3857 -0.3536
C6 C 0.3709(4) 1.7123(16) -0.2777(9)
C7 C 0.3627(5) 1.899(2) -0.2966(10)
H9 H 0.3743 1.9615 -0.3402
C8 C 0.3366(4) 1.993(2) -0.2493(10)
H10 H 0.3310 2.1200 -0.2623
C9 C 0.3189(4) 1.907(2) -0.1846(9)
C10 C 0.3262(5) 1.715(3) -0.1684(10)
H11 H 0.3136 1.6510 -0.1272
C11 C 0.3528(4) 1.621(2) -0.2150(10)
H12 H 0.3583 1.4937 -0.2030
C12 C 0.5442(3) 1.5662(18) -0.2228(8)
C13 C 0.5739(3) 1.7035(16) -0.1932(8)
H13 H 0.5672 1.8282 -0.2098
C14 C 0.6138(3) 1.6586(17) -0.1386(8)
H14 H 0.6340 1.7523 -0.1195
C15 C 0.6235(3) 1.4727(17) -0.1129(7)
C16 C 0.5939(3) 1.3370(18) -0.1429(8)
H15 H 0.6006 1.2120 -0.1273
C17 C 0.5534(3) 1.3831(19) -0.1971(9)
H16 H 0.5330 1.2901 -0.2154
C18 C 0.6666(3) 1.4143(16) -0.0588(7)
C19 C 0.3692(5) 1.349(3) -0.6084(12)
C20 C 0.3770(6) 1.160(3) -0.6091(12)
H17 H 0.3984 1.1069 -0.5621
C21 C 0.3528(4) 1.048(2) -0.6800(9)
H18 H 0.3597 0.9216 -0.6835
C22 C 0.3188(4) 1.1217(18) -0.7454(9)
C23 C 0.3102(4) 1.3097(17) -0.7442(9)
H19 H 0.2880 1.3612 -0.7900
C24 C 0.3348(4) 1.4237(18) -0.6743(9)
H20 H 0.3283 1.5505 -0.6717
C25 C 0.2940(3) 0.9960(15) -0.8229(7)
C29 C 0.2920(3) 2.0139(17) -0.1352(8)
Eu1A Eu 0.251281(11) 1.25779(13) -1.03118(2)
Eu1C Eu 0.751281(11) 1.75779(13) -0.03118(2)
Eu1A_2 Eu 0.251281(11) 2.25779(13) -0.03118(2)
Eu1B Eu 0.248719(11) 1.75779(13) 0.03118(2)
Eu1B_2 Eu 0.248719(11) 0.75779(13) -0.96882(2)
Eu1C_2 Eu 0.751281(11) 0.75779(13) -0.03118(2)
Eu1_2 Eu 0.748719(11) 2.25779(13) -0.96882(2)
Eu1C_3 Eu 0.751281(11) 1.75779(13) -1.03118(2)
Eu1B_3 Eu 0.248719(11) 1.75779(13) -0.96882(2)
O1A O 0.3024(2) 1.5287(12) -0.9595(5)
O1C O 0.8024(2) 1.0287(12) 0.0405(5)
O1B O 0.1976(2) 1.0287(12) -1.0405(5)
O2A O 0.32742(18) 1.253(2) -0.9667(5)
O3A O 0.7176(3) 2.1829(12) -0.8407(6)
O3A_2 O 0.7176(3) 1.1829(12) 0.1593(6)
O3_2 O 0.2824(3) 1.1829(12) -1.1593(6)
O4A O 0.7202(2) 1.9392(11) -0.9336(5)
O4A_2 O 0.7202(2) 0.9392(11) 0.0664(5)
O4B O 0.7798(2) 1.4392(11) -0.0664(5)
O4_2 O 0.2798(2) 0.9392(11) -1.0664(5)
O4C O 0.2202(2) 1.4392(11) -0.9336(5)
O5A O 0.7356(2) 1.0665(11) -0.1111(4)
O5B O 0.7644(2) 1.5665(11) 0.1111(4)
O5C O 0.2356(2) 1.5665(11) -1.1111(4)
O6A O 0.6981(3) 0.8258(11) -0.1766(5)
O6B O 0.8019(3) 1.3258(11) 0.1766(5)
O6C O 0.1981(3) 1.3258(11) -1.1766(5)
O7A O 0.6037(3) 1.6076(13) -0.6820(6)
O8A O 0.6092(2) 1.4796(12) -0.4555(5)
O9A O 0.4936(2) 1.6210(12) -0.7207(6)
C1A C 0.5532(3) 1.5688(16) -0.5869(7)
C2A C 0.5302(3) 1.6878(16) -0.5285(8)
H1A H 0.5502 1.7372 -0.4730
H2A H 0.5165 1.7932 -0.5662
C3A C 0.5762(3) 1.4072(16) -0.5309(7)
H3A H 0.5569 1.3329 -0.5050
H4A H 0.5879 1.3270 -0.5718
C4A C 0.5824(3) 1.7063(16) -0.6203(7)
H5A H 0.5661 1.8099 -0.6544
H6A H 0.6029 1.7571 -0.5660
C5A C 0.5209(3) 1.4793(17) -0.6701(7)
H7A H 0.5353 1.4172 -0.7124
H8A H 0.5046 1.3857 -0.6464
C6A C 0.6291(4) 1.7123(16) -0.7223(9)
C7A C 0.6373(5) 1.899(2) -0.7034(10)
H9A H 0.6257 1.9615 -0.6598
C8A C 0.6634(4) 1.993(2) -0.7507(10)
H10A H 0.6690 2.1200 -0.7377
C9A C 0.6811(4) 1.907(2) -0.8154(9)
C10A C 0.6738(5) 1.715(3) -0.8316(10)
H11A H 0.6864 1.6510 -0.8728
C11A C 0.6472(4) 1.621(2) -0.7850(10)
H12A H 0.6417 1.4937 -0.7970
C12A C 0.4558(3) 1.5662(18) -0.7772(8)
C13A C 0.4261(3) 1.7035(16) -0.8068(8)
H13A H 0.4328 1.8282 -0.7902
C14A C 0.3862(3) 1.6586(17) -0.8614(8)
H14A H 0.3660 1.7523 -0.8805
C15A C 0.3765(3) 1.4727(17) -0.8871(7)
C16A C 0.4061(3) 1.3370(18) -0.8571(8)
H15A H 0.3994 1.2120 -0.8727
C17A C 0.4466(3) 1.3831(19) -0.8029(9)
H16A H 0.4670 1.2901 -0.7846
C18A C 0.3334(3) 1.4143(16) -0.9412(7)
C19A C 0.6308(5) 1.349(3) -0.3916(12)
C20A C 0.6230(6) 1.160(3) -0.3909(12)
H17A H 0.6016 1.1069 -0.4379
C21A C 0.6472(4) 1.048(2) -0.3200(9)
H18A H 0.6403 0.9216 -0.3165
C22A C 0.6812(4) 1.1217(18) -0.2546(9)
C23A C 0.6898(4) 1.3097(17) -0.2558(9)
H19A H 0.7120 1.3612 -0.2100
C24A C 0.6652(4) 1.4237(18) -0.3257(9)
H20A H 0.6717 1.5505 -0.3283
C25A C 0.7060(3) 0.9960(15) -0.1771(7)
C29A C 0.7080(3) 2.0139(17) -0.8648(8)
N1 N 0.4465(7) 0.031(5) 0.9060(14)
O11 O 0.4735(6) 0.071(3) 0.7840(13)
C26 C 0.4426(16) 0.268(9) 0.907(3)
H21 H 0.4531 0.3192 0.8559
H22 H 0.4588 0.3159 0.9662
H23 H 0.4136 0.3030 0.8978
C27 C 0.4360(11) -0.092(7) 0.9688(18)
H24 H 0.4441 -0.2170 0.9557
H25 H 0.4062 -0.0877 0.9622
H26 H 0.4505 -0.0575 1.0324
C28 C 0.4636(8) -0.030(4) 0.8392(16)
H27 H 0.4681 -0.1584 0.8351
loop_
_geom_bond_atom_site_label_1
_geom_bond_atom_site_label_2
_geom_bond_site_symmetry_1
_geom_bond_site_symmetry_2
Eu1 O1 1_555 1_555
N1 C26 1_555 1_555
O1 C18 1_555 1_555
O2 Eu1 1_555 1_555
O3 C29 1_555 1_555
O4 C29 1_555 1_555
O5 C25 1_555 1_555
O6 C25 1_555 1_555
O7 C4 1_555 1_555
O8 C3 1_555 1_555
O9 C5 1_555 1_555
O10 C2 1_555 1_555
O11 C28 1_555 1_555
C1 C2 1_555 1_555
C2 H1 1_555 1_555
H2 C2 1_555 1_555
C3 C1 1_555 1_555
H3 C3 1_555 1_555
H4 C3 1_555 1_555
C4 C1 1_555 1_555
H5 C4 1_555 1_555
H6 C4 1_555 1_555
C5 C1 1_555 1_555
H7 C5 1_555 1_555
H8 C5 1_555 1_555
C6 O7 1_555 1_555
C7 C6 1_555 1_555
H9 C7 1_555 1_555
C8 C7 1_555 1_555
H10 C8 1_555 1_555
C9 C8 1_555 1_555
C10 C9 1_555 1_555
H11 C10 1_555 1_555
C11 C6 1_555 1_555
H12 C11 1_555 1_555
C12 O9 1_555 1_555
C13 C12 1_555 1_555
H13 C13 1_555 1_555
C14 C13 1_555 1_555
H14 C14 1_555 1_555
C15 C14 1_555 1_555
C16 C15 1_555 1_555
H15 C16 1_555 1_555
C17 C12 1_555 1_555
H16 C17 1_555 1_555
C18 O2 1_555 1_555
C19 O8 1_555 1_555
C20 C19 1_555 1_555
H17 C20 1_555 1_555
C21 C20 1_555 1_555
H18 C21 1_555 1_555
C22 C21 1_555 1_555
C23 C22 1_555 1_555
H19 C23 1_555 1_555
C24 C19 1_555 1_555
H20 C24 1_555 1_555
C25 C22 1_555 1_555
C26 H21 1_555 1_555
H22 C26 1_555 1_555
H23 C26 1_555 1_555
C27 N1 1_555 1_555
H24 C27 1_555 1_555
H25 C27 1_555 1_555
H26 C27 1_555 1_555
C28 N1 1_555 1_555
H27 C28 1_555 1_555
C29 C9 1_555 1_555
Eu1A O5 1_555 1_555
Eu1C O1 1_555 1_555
Eu1A_2 O3 1_555 1_555
Eu1B O4 1_555 1_555
Eu1B_2 O5 1_555 1_555
Eu1C_2 O1C 1_555 1_555
Eu1_2 O3A 1_555 1_555
Eu1C_3 O4A 1_555 1_555
Eu1B_3 O1A 1_555 1_555
O1A Eu1A 1_555 1_555
O1C Eu1 1_555 1_555
O1B Eu1A 1_555 1_555
O2A Eu1A 1_555 1_555
O3A C29A 1_555 1_555
O3A_2 Eu1 1_555 1_555
O3_2 Eu1A 1_555 1_555
O4A Eu1_2 1_555 1_555
O4A_2 Eu1 1_555 1_555
O4B Eu1 1_555 1_555
O4_2 Eu1A 1_555 1_555
O4C Eu1A 1_555 1_555
O5A Eu1 1_555 1_555
O5B Eu1 1_555 1_555
O5C Eu1A 1_555 1_555
O6A Eu1C_2 1_555 1_555
O6B Eu1 1_555 1_555
O6C Eu1A 1_555 1_555
O7A C4A 1_555 1_555
O8A C3A 1_555 1_555
O9A C5A 1_555 1_555
C1A C2A 1_555 1_555
C2A O10 1_555 1_555
H1A C2A 1_555 1_555
H2A C2A 1_555 1_555
C3A C1A 1_555 1_555
H3A C3A 1_555 1_555
H4A C3A 1_555 1_555
C4A C1A 1_555 1_555
H5A C4A 1_555 1_555
H6A C4A 1_555 1_555
C5A C1A 1_555 1_555
H7A C5A 1_555 1_555
H8A C5A 1_555 1_555
C6A O7A 1_555 1_555
C7A C6A 1_555 1_555
H9A C7A 1_555 1_555
C8A C7A 1_555 1_555
H10A C8A 1_555 1_555
C9A C8A 1_555 1_555
C10A C9A 1_555 1_555
H11A C10A 1_555 1_555
C11A C6A 1_555 1_555
H12A C11A 1_555 1_555
C12A O9A 1_555 1_555
C13A C12A 1_555 1_555
H13A C13A 1_555 1_555
C14A C13A 1_555 1_555
H14A C14A 1_555 1_555
C15A C14A 1_555 1_555
C16A C15A 1_555 1_555
H15A C16A 1_555 1_555
C17A C12A 1_555 1_555
H16A C17A 1_555 1_555
C18A O1A 1_555 1_555
C19A O8A 1_555 1_555
C20A C19A 1_555 1_555
H17A C20A 1_555 1_555
C21A C20A 1_555 1_555
H18A C21A 1_555 1_555
C22A C21A 1_555 1_555
C23A C22A 1_555 1_555
H19A C23A 1_555 1_555
C24A C19A 1_555 1_555
H20A C24A 1_555 1_555
C25A O5A 1_555 1_555
C29A O4A 1_555 1_555
O4 Eu1A_2 1_555 1_555
O6 Eu1B_2 1_555 1_555
C10 C11 1_555 1_555
C15 C18 1_555 1_555
C16 C17 1_555 1_555
C23 C24 1_555 1_555
Eu1C O4B 1_555 1_555
Eu1C O5B 1_555 1_555
Eu1B_2 O1B 1_555 1_555
Eu1B_2 O4_2 1_555 1_555
Eu1C_2 O4A_2 1_555 1_555
Eu1C_2 O5A 1_555 1_555
Eu1B_3 O4C 1_555 1_555
Eu1B_3 O5C 1_555 1_555
O2A C18A 1_555 1_555
O6A C25A 1_555 1_555
C9A C29A 1_555 1_555
C10A C11A 1_555 1_555
C15A C18A 1_555 1_555
C16A C17A 1_555 1_555
C22A C25A 1_555 1_555
C23A C24A 1_555 1_555

#END
