
#######################################################################
#
#                 Cambridge Crystallographic Data Centre
#                                CCDC 
#
#######################################################################
#
# If this CIF has been generated from an entry in the Cambridge 
# Structural Database, then it will include bibliographic, chemical, 
# crystal, experimental, refinement or atomic coordinate data resulting 
# from the CCDC's data processing and validation procedures.
#
#######################################################################

data_AGESIP
_symmetry_cell_setting           monoclinic
_symmetry_space_group_name_H-M   'P 21/c'
_symmetry_Int_Tables_number      14
_space_group_name_Hall           '-P 2ybc'
loop_
_symmetry_equiv_pos_site_id
_symmetry_equiv_pos_as_xyz
1 x,y,z
2 -x,1/2+y,1/2-z
3 -x,-y,-z
4 x,1/2-y,1/2+z
_cell_length_a                   5.6437(4)
_cell_length_b                   12.8357(9)
_cell_length_c                   9.1507(6)
_cell_angle_alpha                90
_cell_angle_beta                 95.892(1)
_cell_angle_gamma                90
_cell_volume                     659.382
loop_
_atom_site_label
_atom_site_type_symbol
_atom_site_fract_x
_atom_site_fract_y
_atom_site_fract_z
Cu1 Cu 0.98764(5) 0.88828(2) 0.46064(3)
Cu2 Cu 0.5000 0.5000 0.0000
C1 C 0.6333(4) 0.78857(17) 0.2414(2)
O1 O 0.8365(3) 0.80208(14) 0.3054(2)
C2 C 0.5400(4) 0.70841(17) 0.1395(2)
O2 O 0.6380(3) 0.62803(13) 0.0906(2)
C3 C 0.3061(4) 0.75708(17) 0.1252(2)
O3 O 0.1084(3) 0.74088(13) 0.0521(2)
C4 C 0.3949(4) 0.83752(17) 0.2326(2)
O4 O 0.3048(3) 0.91291(14) 0.2931(2)
O7 O 0.1941(3) 0.51710(13) 0.08418(19)
H5 H 0.223(8) 0.533(4) 0.161(5)
Cu1B Cu 0.01236(5) 0.11172(2) -0.46064(3)
Cu1C Cu 0.98764(5) 0.61172(2) -0.03936(3)
Cu1C_2 Cu -0.01236(5) 0.61172(2) -0.03936(3)
Cu1_2 Cu -0.01236(5) 0.88828(2) 0.46064(3)
Cu1A Cu 0.01236(5) 0.38828(2) 0.03936(3)
Cu1A_2 Cu 1.01236(5) 0.38828(2) 0.03936(3)
Cu1B_2 Cu 1.01236(5) 0.11172(2) -0.46064(3)
Cu2C Cu 0.5000 1.0000 0.5000
Cu2C_2 Cu 0.5000 0.0000 -0.5000
C1B C 0.3667(4) 0.21143(17) -0.2414(2)
O1B O 0.1635(3) 0.19792(14) -0.3054(2)
C2B C 0.4600(4) 0.29159(17) -0.1395(2)
O2B O 0.3620(3) 0.37197(13) -0.0906(2)
O2C O 0.6380(3) 0.87197(13) 0.5906(2)
O2A O 0.3620(3) 0.12803(13) -0.5906(2)
C3B C 0.6939(4) 0.24292(17) -0.1252(2)
O3B O 0.8916(3) 0.25912(13) -0.0521(2)
O3C O 1.1084(3) 0.75912(13) 0.5521(2)
O3A O -0.1084(3) 0.24088(13) -0.5521(2)
C4B C 0.6051(4) 0.16248(17) -0.2326(2)
O4B O 0.6952(3) 0.08709(14) -0.2931(2)
O4_2 O 1.3048(3) 0.91291(14) 0.2931(2)
O4C O 0.3048(3) 0.58709(14) -0.2069(2)
O4A O 0.6952(3) 0.41291(14) 0.2069(2)
O4B_2 O -0.3048(3) 0.08709(14) -0.2931(2)
O7B O 0.8059(3) 0.48290(13) -0.08418(19)
O7C O 1.1941(3) 0.98290(13) 0.58418(19)
O7A O 0.8059(3) 1.01710(13) 0.41582(19)
O7C_2 O 0.1941(3) -0.01710(13) -0.41582(19)
O7A_2 O -0.1941(3) 0.01710(13) -0.58418(19)
H5B H 0.777(8) 0.467(4) -0.161(5)
H5C H 1.223(8) 0.967(4) 0.661(5)
H5A H 0.777(8) 1.033(4) 0.339(5)
H5C_2 H 0.223(8) -0.033(4) -0.339(5)
H5A_2 H -0.223(8) 0.033(4) -0.661(5)
O5 O 0.2865(4) 0.56443(16) 0.3650(2)
H1 H 0.412(9) 0.578(4) 0.390(6)
H2 H 0.260(8) 0.522(4) 0.423(5)
O6 O 0.7825(4) 0.91096(17) 0.9334(3)
H3 H 0.829(10) 0.938(5) 0.857(7)
H4 H 0.864(10) 0.875(4) 0.961(7)
loop_
_geom_bond_atom_site_label_1
_geom_bond_atom_site_label_2
_geom_bond_site_symmetry_1
_geom_bond_site_symmetry_2
Cu1 O1 1_555 1_555
Cu2 O2 1_555 1_555
C1 O1 1_555 1_555
C2 C1 1_555 1_555
O2 C2 1_555 1_555
C3 C2 1_555 1_555
O3 C3 1_555 1_555
C4 C1 1_555 1_555
O4 C4 1_555 1_555
O5 H1 1_555 1_555
H2 O5 1_555 1_555
O6 H3 1_555 1_555
H4 O6 1_555 1_555
O7 Cu2 1_555 1_555
H5 O7 1_555 1_555
Cu1B O1B 1_555 1_555
Cu1C O2 1_555 1_555
Cu1C_2 O3 1_555 1_555
Cu1_2 O4 1_555 1_555
Cu1A O7 1_555 1_555
Cu1A_2 O3B 1_555 1_555
Cu1B_2 O4B 1_555 1_555
Cu2C O4 1_555 1_555
Cu2C_2 O2A 1_555 1_555
C1B O1B 1_555 1_555
C2B C1B 1_555 1_555
O2B Cu2 1_555 1_555
O2C Cu1 1_555 1_555
O2A Cu1B 1_555 1_555
C3B C2B 1_555 1_555
O3B C3B 1_555 1_555
O3C Cu1 1_555 1_555
O3A Cu1B 1_555 1_555
C4B C1B 1_555 1_555
O4B Cu2C_2 1_555 1_555
O4_2 Cu1 1_555 1_555
O4C Cu2 1_555 1_555
O4A Cu2 1_555 1_555
O4B_2 Cu1B 1_555 1_555
O7B Cu2 1_555 1_555
O7C Cu1 1_555 1_555
O7A Cu1 1_555 1_555
O7C_2 Cu1B 1_555 1_555
O7A_2 Cu1B 1_555 1_555
H5B O7B 1_555 1_555
H5C O7C 1_555 1_555
H5A O7A 1_555 1_555
H5C_2 O7C_2 1_555 1_555
H5A_2 O7A_2 1_555 1_555
C3 C4 1_555 1_555
O7 Cu1C_2 1_555 1_555
Cu1C O7B 1_555 1_555
Cu1C_2 O4C 1_555 1_555
Cu1A O2B 1_555 1_555
Cu1A_2 O4A 1_555 1_555
Cu1A_2 O7B 1_555 1_555
Cu2C O2C 1_555 1_555
Cu2C O7A 1_555 1_555
Cu2C_2 O7C_2 1_555 1_555
C2B O2B 1_555 1_555
C3B C4B 1_555 1_555
C4B O4B 1_555 1_555

#END
