
#######################################################################
#
#                 Cambridge Crystallographic Data Centre
#                                CCDC 
#
#######################################################################
#
# If this CIF has been generated from an entry in the Cambridge 
# Structural Database, then it will include bibliographic, chemical, 
# crystal, experimental, refinement or atomic coordinate data resulting 
# from the CCDC's data processing and validation procedures.
#
#######################################################################

data_AGONEQ
_symmetry_cell_setting           orthorhombic
_symmetry_space_group_name_H-M   'P n a 21'
_symmetry_Int_Tables_number      33
_space_group_name_Hall           'P 2c -2n'
loop_
_symmetry_equiv_pos_site_id
_symmetry_equiv_pos_as_xyz
1 x,y,z
2 -x,-y,1/2+z
3 1/2+x,1/2-y,z
4 1/2-x,1/2+y,1/2+z
_cell_length_a                   12.9012(7)
_cell_length_b                   14.5816(10)
_cell_length_c                   11.8243(7)
_cell_angle_alpha                90
_cell_angle_beta                 90
_cell_angle_gamma                90
_cell_volume                     2224.39
loop_
_atom_site_label
_atom_site_type_symbol
_atom_site_fract_x
_atom_site_fract_y
_atom_site_fract_z
Cd1 Cd 0.502111(8) 0.254945(6) 0.02373(8)
O1 O 0.47946(12) 0.11477(14) 0.1473(2)
O2 O 0.34461(11) 0.19532(9) 0.09262(13)
O3 O 0.14152(11) 0.10304(10) 0.02362(15)
O4 O 0.08693(10) 0.18534(9) 0.16975(13)
O5 O 0.08996(10) -0.18300(10) 0.37887(13)
O6 O 0.11338(12) -0.08775(10) 0.52128(16)
O7 O 0.32280(13) -0.18512(13) 0.47549(18)
O8 O 0.46345(13) -0.13755(14) 0.39528(15)
C1 C 0.38419(14) 0.12831(13) 0.14417(16)
C2 C 0.31464(14) 0.06356(12) 0.20828(16)
C3 C 0.20615(14) 0.06609(13) 0.20585(16)
C4 C 0.14228(13) 0.12301(13) 0.12502(16)
C5 C 0.15083(13) 0.00822(14) 0.2781(2)
C6 C 0.19942(14) -0.05536(13) 0.34840(16)
C7 C 0.13049(14) -0.11369(14) 0.42354(17)
C8 C 0.30767(14) -0.06185(13) 0.34497(16)
C9 C 0.36738(15) -0.13238(13) 0.41087(17)
C10 C 0.36262(12) -0.00104(14) 0.2770(2)
H1 H 0.4371(14) -0.0073(13) 0.279(2)
H2 H 0.0723(16) 0.0119(14) 0.281(2)
Cd1B Cd 0.002111(8) 0.245055(6) 0.02373(8)
Cd1C Cd -0.002111(8) -0.245055(6) 0.52373(8)
Cd1A Cd 0.497889(8) -0.254945(6) 0.52373(8)
O4B O 0.58693(10) 0.31466(9) 0.16975(13)
O5C O 0.41004(10) 0.31700(10) -0.12113(13)
O7A O 0.67720(13) 0.18512(13) -0.02451(18)
O8A O 0.53655(13) 0.13755(14) -0.10472(15)
N1 N 0.77290(16) 0.16397(14) -0.77116(19)
N2 N 0.71419(16) 0.10006(12) -0.62121(15)
N3 N 0.70949(13) 0.37324(12) -0.28067(15)
N4 N 0.86929(16) 0.38661(14) -0.23618(18)
C11 C 0.8519(2) 0.11368(17) -0.7273(2)
C12 C 0.8157(2) 0.07287(16) -0.63366(19)
C13 C 0.6900(2) 0.15512(17) -0.7068(2)
C14 C 0.6440(2) 0.07257(16) -0.5285(2)
C15 C 0.58092(17) 0.15264(14) -0.48598(19)
C16 C 0.4831(2) 0.1684(2) -0.5294(2)
C17 C 0.4249(2) 0.24194(19) -0.4917(3)
C18 C 0.4644(2) 0.30051(19) -0.4129(2)
C19 C 0.56251(16) 0.28635(16) -0.36730(19)
C20 C 0.62040(17) 0.21182(16) -0.4044(2)
C21 C 0.59957(19) 0.3487(2) -0.2740(3)
C22 C 0.75280(16) 0.43529(17) -0.3553(2)
C23 C 0.85324(18) 0.44292(16) -0.3268(2)
C24 C 0.7819(2) 0.34578(16) -0.2087(2)
H3 H 0.776(2) 0.3085(18) -0.158(2)
H4 H 0.919(2) 0.3759(18) -0.209(2)
H5 H 0.915(2) 0.1147(18) -0.753(2)
H6 H 0.4265(18) 0.3549(17) -0.384(2)
H7 H 0.774(2) 0.192(2) -0.832(3)
H8 H 0.595(2) 0.019(2) -0.555(3)
H9 H 0.626(2) 0.1843(18) -0.715(2)
H10 H 0.685(2) 0.1981(17) -0.373(2)
H11 H 0.904(2) 0.479(2) -0.351(3)
H12 H 0.457(2) 0.126(2) -0.579(3)
H13 H 0.7108(19) 0.4656(17) -0.411(2)
H14 H 0.687(2) 0.0481(19) -0.465(3)
H15 H 0.591(3) 0.325(2) -0.203(3)
H16 H 0.362(2) 0.2513(18) -0.524(3)
H17 H 0.843(2) 0.0379(19) -0.579(2)
H18 H 0.566(2) 0.406(2) -0.290(3)
loop_
_geom_bond_atom_site_label_1
_geom_bond_atom_site_label_2
_geom_bond_site_symmetry_1
_geom_bond_site_symmetry_2
Cd1 O1 1_555 1_555
O1 C1 1_555 1_555
O2 Cd1 1_555 1_555
O3 C4 1_555 1_555
O4 C4 1_555 1_555
O5 C7 1_555 1_555
O6 C7 1_555 1_555
O7 C9 1_555 1_555
O8 C9 1_555 1_555
C1 O2 1_555 1_555
C2 C1 1_555 1_555
C3 C2 1_555 1_555
C4 C3 1_555 1_555
C5 C3 1_555 1_555
C6 C5 1_555 1_555
C7 C6 1_555 1_555
C8 C6 1_555 1_555
C9 C8 1_555 1_555
C10 C2 1_555 1_555
H1 C10 1_555 1_555
H2 C5 1_555 1_555
N1 C11 1_555 1_555
N2 C12 1_555 1_555
N3 C21 1_555 1_555
N4 C23 1_555 1_555
C11 C12 1_555 1_555
C12 H17 1_555 1_555
C13 N1 1_555 1_555
C14 N2 1_555 1_555
C15 C14 1_555 1_555
C16 C15 1_555 1_555
C17 C16 1_555 1_555
C18 C17 1_555 1_555
C19 C18 1_555 1_555
C20 C15 1_555 1_555
C21 C19 1_555 1_555
C22 N3 1_555 1_555
C23 C22 1_555 1_555
C24 N3 1_555 1_555
H3 C24 1_555 1_555
H4 N4 1_555 1_555
H5 C11 1_555 1_555
H6 C18 1_555 1_555
H7 N1 1_555 1_555
H8 C14 1_555 1_555
H9 C13 1_555 1_555
H10 C20 1_555 1_555
H11 C23 1_555 1_555
H12 C16 1_555 1_555
H13 C22 1_555 1_555
H14 C14 1_555 1_555
H15 C21 1_555 1_555
H16 C17 1_555 1_555
H18 C21 1_555 1_555
Cd1B O4 1_555 1_555
Cd1C O5 1_555 1_555
Cd1A O7 1_555 1_555
O4B Cd1 1_555 1_555
O5C Cd1 1_555 1_555
O7A Cd1 1_555 1_555
O8A Cd1 1_555 1_555
O8 Cd1A 1_555 1_555
C8 C10 1_555 1_555
N2 C13 1_555 1_555
N4 C24 1_555 1_555
C19 C20 1_555 1_555

#END
