
#######################################################################
#
#                 Cambridge Crystallographic Data Centre
#                                CCDC 
#
#######################################################################
#
# If this CIF has been generated from an entry in the Cambridge 
# Structural Database, then it will include bibliographic, chemical, 
# crystal, experimental, refinement or atomic coordinate data resulting 
# from the CCDC's data processing and validation procedures.
#
#######################################################################

data_AGUWUV
_symmetry_cell_setting           triclinic
_symmetry_space_group_name_H-M   'P -1'
_symmetry_Int_Tables_number      2
_space_group_name_Hall           '-P 1'
loop_
_symmetry_equiv_pos_site_id
_symmetry_equiv_pos_as_xyz
1 x,y,z
2 -x,-y,-z
_cell_length_a                   8.1933(3)
_cell_length_b                   8.8646(3)
_cell_length_c                   12.2028(5)
_cell_angle_alpha                110.0570(10)
_cell_angle_beta                 92.8970(10)
_cell_angle_gamma                105.7410(10)
_cell_volume                     791.15
loop_
_atom_site_label
_atom_site_type_symbol
_atom_site_fract_x
_atom_site_fract_y
_atom_site_fract_z
Ni1 Ni 0.5000 0.5000 0.5000
Ni2 Ni 0.97394(4) 0.94345(4) 0.82052(3)
O1 O 0.8433(2) 0.9762(2) 0.68750(15)
O2 O 0.7058(2) 0.7110(2) 0.57211(16)
O3 O 0.4533(2) 0.5552(2) 0.35668(15)
O4 O 0.6420(5) 0.6863(3) 0.2730(3)
O5 O 0.8139(3) 0.7101(3) 0.80153(18)
H1 H 0.7484 0.6473 0.7363
H2 H 0.8092 0.6718 0.8567
O6 O 1.1463(3) 1.1760(3) 0.84900(19)
H3 H 1.2101 1.2178 0.9159
H4 H 1.1947 1.1822 0.7901
N1 N 0.8641(3) 0.0859(3) 0.05596(18)
N2 N 0.8339(3) 0.0566(3) -0.05926(18)
N3 N 0.7083(3) 0.1141(4) -0.0802(2)
N4 N 0.6550(3) 0.1829(3) 0.0223(2)
N5 N 0.8734(3) 0.1847(3) 0.28973(19)
N6 N 0.6668(3) 0.3689(3) 0.40797(19)
C1 C 0.7526(3) 0.1633(3) 0.1032(2)
C2 C 0.7554(3) 0.2213(3) 0.2314(2)
C3 C 0.8875(4) 0.2418(4) 0.4071(2)
H5 H 0.9673 0.2184 0.4505
C4 C 0.7860(3) 0.3353(3) 0.4660(2)
H6 H 0.8015 0.3755 0.5481
C5 C 0.6512(3) 0.3106(3) 0.2899(2)
H7 H 0.5685 0.3307 0.2465
C6 C 0.7263(3) 0.8666(3) 0.6058(2)
C7 C 0.6081(3) 0.9322(3) 0.5483(2)
C8 C 0.5323(3) 0.8525(3) 0.4288(2)
C9 C 0.5484(4) 0.6873(3) 0.3472(2)
C10 C 0.5743(3) 1.0781(3) 0.6172(2)
H8 H 0.6243 1.1308 0.6963
Ni1_2 Ni 0.5000 1.5000 0.5000
Ni2A Ni 0.02606(4) 1.05655(4) 0.17948(3)
Ni2A_2 Ni 1.02606(4) 0.05655(4) 0.17948(3)
Ni2_2 Ni 0.97394(4) -0.05655(4) -0.17948(3)
Ni2_3 Ni -0.02606(4) 0.94345(4) 0.82052(3)
Ni2A_3 Ni 0.02606(4) 1.05655(4) 1.17948(3)
O1A O 0.1567(2) 1.0238(2) 0.31250(15)
O2A O 0.2942(2) 1.2890(2) 0.42789(16)
O2A_2 O 0.2942(2) 0.2890(2) 0.42789(16)
O3A O 0.5467(2) 1.4448(2) 0.64332(15)
O3A_2 O 0.5467(2) 0.4448(2) 0.64332(15)
O4A O 0.3580(5) 1.3137(3) 0.7270(3)
O5A O 0.1861(3) 1.2899(3) 0.19847(18)
H1A H 0.2516 1.3527 0.2637
H2A H 0.1908 1.3282 0.1433
O6A O -0.1463(3) 0.8240(3) 0.15100(19)
H3A H -0.2101 0.7822 0.0841
H4A H -0.1947 0.8178 0.2099
N1A N 0.1359(3) 0.9141(3) 0.94404(18)
N1A_2 N 1.1359(3) 0.9141(3) 0.94404(18)
N1_2 N -0.1359(3) 1.0859(3) 0.05596(18)
N2A N 0.1661(3) 0.9434(3) 1.05926(18)
N2_2 N 0.8339(3) 1.0566(3) 0.94074(18)
N2A_2 N 0.1661(3) 0.9434(3) 0.05926(18)
N3A N 0.2917(3) 0.8859(4) 1.0802(2)
N4A N 0.3450(3) 0.8171(3) 0.9777(2)
N5A N 0.1266(3) 0.8153(3) 0.71027(19)
N5A_2 N 1.1266(3) 0.8153(3) 0.71027(19)
N5_2 N -0.1266(3) 1.1847(3) 0.28973(19)
N6A N 0.3332(3) 0.6311(3) 0.59203(19)
C1A C 0.2474(3) 0.8367(3) 0.8968(2)
C2A C 0.2446(3) 0.7787(3) 0.7686(2)
C3A C 0.1125(4) 0.7582(4) 0.5929(2)
H5A H 0.0327 0.7816 0.5495
C4A C 0.2140(3) 0.6647(3) 0.5340(2)
H6A H 0.1985 0.6245 0.4519
C5A C 0.3488(3) 0.6894(3) 0.7101(2)
H7A H 0.4315 0.6693 0.7535
C6A C 0.2737(3) 1.1334(3) 0.3942(2)
C7A C 0.3919(3) 1.0678(3) 0.4517(2)
C8A C 0.4677(3) 1.1475(3) 0.5712(2)
C9A C 0.4516(4) 1.3127(3) 0.6528(2)
C10A C 0.4257(3) 0.9219(3) 0.3828(2)
H8A H 0.3757 0.8692 0.3037
O7 O 0.5874(4) 0.6422(4) 0.9630(3)
H9 H 0.5136 0.5626 0.9739
H10 H 0.5557 0.7256 0.9625
O8 O 0.904(4) 0.504(2) 0.9134(19)
O9 O 1.0095(6) 0.6717(8) 0.3081(5)
O10? O 1.086(3) 0.512(4) 0.126(3)
loop_
_geom_bond_atom_site_label_1
_geom_bond_atom_site_label_2
_geom_bond_site_symmetry_1
_geom_bond_site_symmetry_2
Ni1 O2 1_555 1_555
Ni2 O1 1_555 1_555
O1 C6 1_555 1_555
O2 C6 1_555 1_555
O3 Ni1 1_555 1_555
O4 C9 1_555 1_555
O5 Ni2 1_555 1_555
H1 O5 1_555 1_555
H2 O5 1_555 1_555
O6 Ni2 1_555 1_555
H3 O6 1_555 1_555
H4 O6 1_555 1_555
N1 N2 1_555 1_555
N2 N3 1_555 1_555
N3 N4 1_555 1_555
N4 C1 1_555 1_555
N5 C2 1_555 1_555
N6 Ni1 1_555 1_555
C1 N1 1_555 1_555
C2 C1 1_555 1_555
C3 N5 1_555 1_555
H5 C3 1_555 1_555
C4 N6 1_555 1_555
H6 C4 1_555 1_555
C5 N6 1_555 1_555
H7 C5 1_555 1_555
C6 C7 1_555 1_555
C7 C8 1_555 1_555
C8 C9 1_555 1_555
C9 O3 1_555 1_555
C10 C7 1_555 1_555
H8 C10 1_555 1_555
O7 H9 1_555 1_555
H10 O7 1_555 1_555
Ni1_2 O2A 1_555 1_555
Ni2A O1A 1_555 1_555
Ni2A_2 N1 1_555 1_555
Ni2_2 N2 1_555 1_555
Ni2_3 N1A 1_555 1_555
Ni2A_3 N2A 1_555 1_555
O1A C6A 1_555 1_555
O2A C6A 1_555 1_555
O2A_2 Ni1 1_555 1_555
O3A Ni1_2 1_555 1_555
O3A_2 Ni1 1_555 1_555
O4A C9A 1_555 1_555
O5A Ni2A 1_555 1_555
H1A O5A 1_555 1_555
H2A O5A 1_555 1_555
O6A Ni2A 1_555 1_555
H3A O6A 1_555 1_555
H4A O6A 1_555 1_555
N1A N2A 1_555 1_555
N1A_2 Ni2 1_555 1_555
N1_2 Ni2A 1_555 1_555
N2A N3A 1_555 1_555
N2_2 Ni2 1_555 1_555
N2A_2 Ni2A 1_555 1_555
N3A N4A 1_555 1_555
N4A C1A 1_555 1_555
N5A Ni2_3 1_555 1_555
N5A_2 Ni2 1_555 1_555
N5_2 Ni2A 1_555 1_555
N6A Ni1 1_555 1_555
C1A N1A 1_555 1_555
C2A N5A 1_555 1_555
C3A N5A 1_555 1_555
H5A C3A 1_555 1_555
C4A N6A 1_555 1_555
H6A C4A 1_555 1_555
C5A N6A 1_555 1_555
H7A C5A 1_555 1_555
C6A C7A 1_555 1_555
C7A C8A 1_555 1_555
C8A C10 1_555 1_555
C9A O3A 1_555 1_555
C10A C8 1_555 1_555
H8A C10A 1_555 1_555
N5 Ni2A_2 1_555 1_555
C2 C5 1_555 1_555
C3 C4 1_555 1_555
C1A C2A 1_555 1_555
C2A C5A 1_555 1_555
C3A C4A 1_555 1_555
C7A C10A 1_555 1_555
C8A C9A 1_555 1_555

#END
