
#######################################################################
#
#                 Cambridge Crystallographic Data Centre
#                                CCDC 
#
#######################################################################
#
# If this CIF has been generated from an entry in the Cambridge 
# Structural Database, then it will include bibliographic, chemical, 
# crystal, experimental, refinement or atomic coordinate data resulting 
# from the CCDC's data processing and validation procedures.
#
#######################################################################

data_AJIMEN
_symmetry_cell_setting           triclinic
_symmetry_space_group_name_H-M   'P -1'
_symmetry_Int_Tables_number      2
_space_group_name_Hall           '-P 1'
loop_
_symmetry_equiv_pos_site_id
_symmetry_equiv_pos_as_xyz
1 x,y,z
2 -x,-y,-z
_cell_length_a                   9.1754(7)
_cell_length_b                   10.0864(7)
_cell_length_c                   11.9515(8)
_cell_angle_alpha                107.567(6)
_cell_angle_beta                 101.469(6)
_cell_angle_gamma                92.975(6)
_cell_volume                     1025.99
loop_
_atom_site_label
_atom_site_type_symbol
_atom_site_fract_x
_atom_site_fract_y
_atom_site_fract_z
Zn1 Zn 0.45131(4) 0.65370(4) 0.60559(3)
Zn2 Zn 0.90388(4) 0.85344(4) 0.36709(3)
C1 C 0.6567(4) 0.7658(3) 0.4793(3)
C2 C 0.7489(4) 0.5878(3) 0.3874(3)
C3 C 0.7451(3) 1.1049(3) 0.3580(3)
C4 C 0.8046(3) 1.2454(3) 0.5382(3)
C5 C 0.8902(4) 0.7054(4) 0.1233(3)
C6 C 0.8348(6) 0.6736(5) -0.0117(3)
H1 H 0.8800 0.6135 -0.0668
C7 C 0.7059(5) 0.7428(4) -0.0509(3)
H2 H 0.6683 0.8122 0.0030
C8 C 0.6396(4) 0.6934(4) -0.1838(3)
N1 N 0.6299(4) 0.9003(3) 0.5233(4)
H3 H 0.5633 0.9201 0.5652
H4 H 0.6796 0.9659 0.5094
N2 N 0.8314(5) 0.5055(4) 0.3226(4)
H5 H 0.8193 0.4165 0.3093
H6 H 0.8968 0.5414 0.2942
N3 N 0.7598(3) 0.7276(3) 0.4117(2)
N4 N 0.5869(3) 0.6586(3) 0.4956(2)
N5 N 0.6458(3) 0.5404(3) 0.4343(2)
N6 N 0.6772(4) 1.0457(3) 0.2425(3)
H7 H 0.7023 0.9681 0.2013
H8 H 0.6083 1.0852 0.2090
N7 N 0.8065(4) 1.3545(3) 0.6360(3)
H9 H 0.8669 1.3621 0.7032
H10 H 0.7474 1.4171 0.6316
N8 N 0.7094(3) 1.2249(3) 0.4290(2)
N9 N 0.8526(3) 1.0507(3) 0.4163(2)
N10 N 0.8917(3) 1.1444(3) 0.5370(2)
O1 O 0.8465(3) 0.8103(3) 0.19251(19)
O2 O 0.9699(3) 0.6265(3) 0.1596(2)
O3 O 0.5250(3) 0.7487(3) -0.2202(2)
O4 O 0.6921(4) 0.6038(3) -0.2537(2)
Zn1_2 Zn 0.45131(4) 0.65370(4) -0.39441(3)
Zn1A Zn 0.54869(4) 0.34630(4) 0.39441(3)
Zn1A_2 Zn 0.54869(4) 1.34630(4) 0.39441(3)
Zn2A Zn 1.09612(4) 1.14656(4) 0.63291(3)
N5A N 0.3542(3) 0.4596(3) 0.5657(2)
N8A N 0.2906(3) 0.7751(3) 0.5710(2)
N10A N 1.1083(3) 0.8556(3) 0.4630(2)
O3_2 O 0.5250(3) 0.7487(3) 0.7798(2)
loop_
_geom_bond_atom_site_label_1
_geom_bond_atom_site_label_2
_geom_bond_site_symmetry_1
_geom_bond_site_symmetry_2
Zn1 N4 1_555 1_555
Zn2 N3 1_555 1_555
C1 N1 1_555 1_555
C2 N2 1_555 1_555
C3 N6 1_555 1_555
C4 N7 1_555 1_555
C5 C6 1_555 1_555
C6 H1 1_555 1_555
C7 C6 1_555 1_555
H2 C7 1_555 1_555
C8 C7 1_555 1_555
N1 H3 1_555 1_555
H4 N1 1_555 1_555
N2 H5 1_555 1_555
H6 N2 1_555 1_555
N3 C1 1_555 1_555
N4 C1 1_555 1_555
N5 C2 1_555 1_555
N6 H7 1_555 1_555
H8 N6 1_555 1_555
N7 H9 1_555 1_555
H10 N7 1_555 1_555
N8 C3 1_555 1_555
N9 Zn2 1_555 1_555
N10 C4 1_555 1_555
O1 Zn2 1_555 1_555
O2 C5 1_555 1_555
O3 C8 1_555 1_555
O4 C8 1_555 1_555
Zn1_2 O3 1_555 1_555
Zn1A N5 1_555 1_555
Zn1A_2 N8 1_555 1_555
Zn2A N10 1_555 1_555
N5A Zn1 1_555 1_555
N8A Zn1 1_555 1_555
N10A Zn2 1_555 1_555
O3_2 Zn1 1_555 1_555
C2 N3 1_555 1_555
C3 N9 1_555 1_555
C4 N8 1_555 1_555
C5 O1 1_555 1_555
N4 N5 1_555 1_555
N9 N10 1_555 1_555

#END
