
#######################################################################
#
#                 Cambridge Crystallographic Data Centre
#                                CCDC 
#
#######################################################################
#
# If this CIF has been generated from an entry in the Cambridge 
# Structural Database, then it will include bibliographic, chemical, 
# crystal, experimental, refinement or atomic coordinate data resulting 
# from the CCDC's data processing and validation procedures.
#
#######################################################################

data_AJINOY
_symmetry_cell_setting           triclinic
_symmetry_space_group_name_H-M   'P -1'
_symmetry_Int_Tables_number      2
_space_group_name_Hall           '-P 1'
loop_
_symmetry_equiv_pos_site_id
_symmetry_equiv_pos_as_xyz
1 x,y,z
2 -x,-y,-z
_cell_length_a                   9.9983(14)
_cell_length_b                   11.0159(16)
_cell_length_c                   12.3746(17)
_cell_angle_alpha                90.955(2)
_cell_angle_beta                 110.694(2)
_cell_angle_gamma                95.116(2)
_cell_volume                     1268.23
loop_
_atom_site_label
_atom_site_type_symbol
_atom_site_fract_x
_atom_site_fract_y
_atom_site_fract_z
Cu1 Cu 0.67535(5) 0.87699(5) 0.50347(4)
O1 O 0.6939(3) 0.7143(2) 0.4381(2)
O2 O 0.9199(3) 0.7939(2) 0.5176(2)
O3 O 1.2455(3) 0.9667(2) 0.4110(2)
O4 O 1.4327(3) 0.8667(3) 0.4171(3)
O5 O 0.6905(3) 1.1303(3) -0.0021(3)
O6 O 0.7894(4) 0.7192(4) 1.0599(3)
N1 N 0.6617(3) 0.8049(3) 0.6476(3)
N2 N 0.6985(3) 0.9478(3) 0.3608(3)
N3 N 0.9041(3) 1.0509(3) 0.0448(3)
N4 N 0.5774(5) 0.6089(5) 0.9910(4)
C1 C 0.8291(4) 0.7136(4) 0.4563(3)
C2 C 0.8702(4) 0.6102(4) 0.3982(3)
C3 C 0.9821(4) 0.6270(4) 0.3535(3)
C4 C 1.0081(4) 0.5271(4) 0.2957(4)
H1 H 1.0791 0.5372 0.2611
C5 C 0.9332(5) 0.4143(4) 0.2876(4)
H2 H 0.9525 0.3480 0.2471
C6 C 0.8306(5) 0.3968(4) 0.3375(4)
H3 H 0.7829 0.3177 0.3356
C7 C 0.7973(4) 0.4949(4) 0.3907(4)
H4 H 0.7237 0.4836 0.4225
C8 C 1.0724(4) 0.7435(4) 0.3678(3)
H5 H 1.0285 0.8167 0.3666
C9 C 1.3050(4) 0.8699(4) 0.4054(3)
C10 C 0.8143(4) 1.0246(4) 0.3716(3)
H6 H 0.8758 1.0542 0.4470
C11 C 0.8483(4) 1.0628(4) 0.2779(4)
H7 H 0.9326 1.1163 0.2893
C12 C 0.7588(4) 1.0225(4) 0.1673(3)
C13 C 0.6375(4) 0.9434(4) 0.1551(4)
H8 H 0.5727 0.9144 0.0807
C14 C 0.6131(4) 0.9080(4) 0.2535(4)
H9 H 0.5313 0.8523 0.2448
C15 C 0.7832(4) 1.0713(4) 0.0627(3)
C16 C 1.0180(5) 0.9829(4) 0.1197(4)
H10 H 0.9837 0.9398 0.1760
H11 H 1.1026 1.0405 0.1635
C17 C 0.9388(5) 1.1085(4) -0.0489(4)
H12 H 1.0184 1.1741 -0.0159
H13 H 0.8541 1.1462 -0.0998
C18 C 0.4397(6) 0.5684(7) 0.8983(5)
H14 H 0.4431 0.5938 0.8229
H15 H 0.3611 0.6070 0.9122
C19 C 0.5888(7) 0.5661(7) 1.1047(5)
H16 H 0.5190 0.6041 1.1313
H17 H 0.6864 0.5916 1.1608
C20 C 0.6810(5) 0.6834(4) 0.9787(4)
C21 C 0.6651(4) 0.7227(4) 0.8599(4)
C22 C 0.5907(5) 0.8195(4) 0.8111(4)
H18 H 0.5381 0.8591 0.8495
C23 C 0.5930(5) 0.8584(4) 0.7070(4)
H19 H 0.5433 0.9266 0.6758
C24 C 0.7339(6) 0.7117(5) 0.6951(4)
H20 H 0.7840 0.6725 0.6542
C25 C 0.7395(6) 0.6694(5) 0.8000(5)
H21 H 0.7943 0.6038 0.8313
C26 C 1.2110(4) 0.7532(4) 0.3823(4)
H22 H 1.2530 0.6802 0.3775
O5A O 1.3095(3) 0.8697(3) 0.0021(3)
N2A N 1.3015(3) 1.0522(3) -0.3608(3)
N3A N 1.0959(3) 0.9491(3) -0.0448(3)
C10A C 1.1857(4) 0.9754(4) -0.3716(3)
H6A H 1.1242 0.9458 -0.4470
C11A C 1.1517(4) 0.9372(4) -0.2779(4)
H7A H 1.0674 0.8837 -0.2893
C12A C 1.2412(4) 0.9775(4) -0.1673(3)
C13A C 1.3625(4) 1.0566(4) -0.1551(4)
H8A H 1.4273 1.0856 -0.0807
C14A C 1.3869(4) 1.0920(4) -0.2535(4)
H9A H 1.4687 1.1477 -0.2448
C15A C 1.2168(4) 0.9287(4) -0.0627(3)
C16A C 0.9820(5) 1.0171(4) -0.1197(4)
H10A H 1.0163 1.0602 -0.1760
H11A H 0.8974 0.9595 -0.1635
C17A C 1.0612(5) 0.8915(4) 0.0489(4)
H12A H 0.9816 0.8259 0.0159
H13A H 1.1459 0.8538 0.0998
O6A O 0.2106(4) 0.2808(4) 0.9401(3)
N1A N 0.3383(3) 0.1951(3) 1.3524(3)
N4A N 0.4226(5) 0.3911(5) 1.0090(4)
C18A C 0.5603(6) 0.4316(7) 1.1017(5)
H14A H 0.5569 0.4062 1.1771
H15A H 0.6389 0.3930 1.0878
C19A C 0.4112(7) 0.4339(7) 0.8953(5)
H16A H 0.4810 0.3959 0.8687
H17A H 0.3136 0.4084 0.8392
C20A C 0.3190(5) 0.3166(4) 1.0213(4)
C21A C 0.3349(4) 0.2773(4) 1.1401(4)
C22A C 0.4093(5) 0.1805(4) 1.1889(4)
H18A H 0.4619 0.1409 1.1505
C23A C 0.4070(5) 0.1416(4) 1.2930(4)
H19A H 0.4567 0.0734 1.3242
C24A C 0.2661(6) 0.2883(5) 1.3049(4)
H20A H 0.2160 0.3275 1.3458
C25A C 0.2605(6) 0.3306(5) 1.2000(5)
H21A H 0.2057 0.3962 1.1687
Cu1A Cu 0.32465(5) 0.12301(5) 1.49653(4)
O1A O 0.3061(3) 0.2857(2) 1.5619(2)
O2A O 0.0801(3) 0.2061(2) 1.4824(2)
O3A O -0.2455(3) 0.0333(2) 1.5890(2)
O4A O -0.4327(3) 0.1333(3) 1.5829(3)
C1A C 0.1709(4) 0.2864(4) 1.5437(3)
C2A C 0.1298(4) 0.3898(4) 1.6018(3)
C3A C 0.0179(4) 0.3730(4) 1.6465(3)
C4A C -0.0081(4) 0.4729(4) 1.7043(4)
H1A H -0.0791 0.4628 1.7389
C5A C 0.0668(5) 0.5857(4) 1.7124(4)
H2A H 0.0475 0.6520 1.7529
C6A C 0.1694(5) 0.6032(4) 1.6625(4)
H3A H 0.2171 0.6823 1.6644
C7A C 0.2027(4) 0.5051(4) 1.6093(4)
H4A H 0.2763 0.5164 1.5775
C8A C -0.0724(4) 0.2565(4) 1.6322(3)
H5A H -0.0285 0.1833 1.6334
C9A C -0.3050(4) 0.1301(4) 1.5946(3)
C26A C -0.2110(4) 0.2468(4) 1.6177(4)
H22A H -0.2530 0.3198 1.6225
Cu1_2 Cu -0.32465(5) -0.12301(5) 1.50347(4)
Cu1_3 Cu 1.67535(5) 0.87699(5) 0.50347(4)
Cu1A_2 Cu -0.67535(5) 0.12301(5) 1.49653(4)
Cu1A_3 Cu 1.32465(5) 1.12301(5) -0.50347(4)
Cu1A_4 Cu 1.32465(5) 1.12301(5) 0.49653(4)
O3_2 O 0.2455(3) -0.0333(2) 1.4110(2)
O3A_2 O 0.7545(3) 1.0333(2) 0.5890(2)
O4_2 O 0.4327(3) 0.8667(3) 0.4171(3)
O4A_2 O 0.5673(3) 0.1333(3) 1.5829(3)
N2A_2 N 0.3015(3) 0.0522(3) 1.6392(3)
O7 O 0.5581(7) 0.4219(8) 0.6927(6)
O8 O 0.7428(6) 0.3644(5) 0.9068(5)
O9 O 1.0125(18) 0.4730(15) 0.9752(12)
O10? O 0.5289(12) 0.4536(10) 0.549(2)
loop_
_geom_bond_atom_site_label_1
_geom_bond_atom_site_label_2
_geom_bond_site_symmetry_1
_geom_bond_site_symmetry_2
Cu1 O1 1_555 1_555
O1 C1 1_555 1_555
O2 Cu1 1_555 1_555
O3 C9 1_555 1_555
O4 C9 1_555 1_555
O5 C15 1_555 1_555
O6 C20 1_555 1_555
N1 Cu1 1_555 1_555
N2 Cu1 1_555 1_555
N3 C15 1_555 1_555
N4 C18 1_555 1_555
C1 O2 1_555 1_555
C2 C1 1_555 1_555
C3 C2 1_555 1_555
C4 C3 1_555 1_555
H1 C4 1_555 1_555
C5 C4 1_555 1_555
H2 C5 1_555 1_555
C6 C5 1_555 1_555
H3 C6 1_555 1_555
C7 C2 1_555 1_555
H4 C7 1_555 1_555
C8 C3 1_555 1_555
H5 C8 1_555 1_555
C9 C26 1_555 1_555
C10 N2 1_555 1_555
H6 C10 1_555 1_555
C11 C10 1_555 1_555
H7 C11 1_555 1_555
C12 C11 1_555 1_555
C13 C12 1_555 1_555
H8 C13 1_555 1_555
C14 N2 1_555 1_555
H9 C14 1_555 1_555
C15 C12 1_555 1_555
C16 N3 1_555 1_555
H10 C16 1_555 1_555
H11 C16 1_555 1_555
C17 N3 1_555 1_555
H12 C17 1_555 1_555
H13 C17 1_555 1_555
C18 H14 1_555 1_555
H15 C18 1_555 1_555
C19 N4 1_555 1_555
H16 C19 1_555 1_555
H17 C19 1_555 1_555
C20 N4 1_555 1_555
C21 C20 1_555 1_555
C22 C21 1_555 1_555
H18 C22 1_555 1_555
C23 N1 1_555 1_555
H19 C23 1_555 1_555
C24 N1 1_555 1_555
H20 C24 1_555 1_555
C25 C21 1_555 1_555
H21 C25 1_555 1_555
C26 C8 1_555 1_555
H22 C26 1_555 1_555
O5A C15A 1_555 1_555
N2A C10A 1_555 1_555
N3A C15A 1_555 1_555
C10A H6A 1_555 1_555
C11A C10A 1_555 1_555
H7A C11A 1_555 1_555
C12A C11A 1_555 1_555
C13A C12A 1_555 1_555
H8A C13A 1_555 1_555
C14A N2A 1_555 1_555
H9A C14A 1_555 1_555
C15A C12A 1_555 1_555
C16A C17 1_555 1_555
H10A C16A 1_555 1_555
H11A C16A 1_555 1_555
C17A C16 1_555 1_555
H12A C17A 1_555 1_555
H13A C17A 1_555 1_555
O6A C20A 1_555 1_555
N1A C23A 1_555 1_555
N4A C18A 1_555 1_555
C18A C19 1_555 1_555
H14A C18A 1_555 1_555
H15A C18A 1_555 1_555
C19A C18 1_555 1_555
H16A C19A 1_555 1_555
H17A C19A 1_555 1_555
C20A N4A 1_555 1_555
C21A C20A 1_555 1_555
C22A C21A 1_555 1_555
H18A C22A 1_555 1_555
C23A C22A 1_555 1_555
H19A C23A 1_555 1_555
C24A N1A 1_555 1_555
H20A C24A 1_555 1_555
C25A C21A 1_555 1_555
H21A C25A 1_555 1_555
Cu1A N1A 1_555 1_555
O1A Cu1A 1_555 1_555
O2A Cu1A 1_555 1_555
O3A C9A 1_555 1_555
O4A C9A 1_555 1_555
C1A O1A 1_555 1_555
C2A C1A 1_555 1_555
C3A C2A 1_555 1_555
C4A C3A 1_555 1_555
H1A C4A 1_555 1_555
C5A C4A 1_555 1_555
H2A C5A 1_555 1_555
C6A C5A 1_555 1_555
H3A C6A 1_555 1_555
C7A C2A 1_555 1_555
H4A C7A 1_555 1_555
C8A C3A 1_555 1_555
H5A C8A 1_555 1_555
C9A C26A 1_555 1_555
C26A C8A 1_555 1_555
H22A C26A 1_555 1_555
Cu1_2 O3A 1_555 1_555
Cu1_3 O4 1_555 1_555
Cu1A_2 O4A 1_555 1_555
Cu1A_3 N2A 1_555 1_555
Cu1A_4 O3 1_555 1_555
O3_2 Cu1A 1_555 1_555
O3A_2 Cu1 1_555 1_555
O4_2 Cu1 1_555 1_555
O4A_2 Cu1A 1_555 1_555
N2A_2 Cu1A 1_555 1_555
C6 C7 1_555 1_555
C13 C14 1_555 1_555
C22 C23 1_555 1_555
C24 C25 1_555 1_555
N3A C16A 1_555 1_555
N3A C17A 1_555 1_555
C13A C14A 1_555 1_555
N4A C19A 1_555 1_555
C24A C25A 1_555 1_555
O2A C1A 1_555 1_555
C6A C7A 1_555 1_555

#END
