
#######################################################################
#
#                 Cambridge Crystallographic Data Centre
#                                CCDC 
#
#######################################################################
#
# If this CIF has been generated from an entry in the Cambridge 
# Structural Database, then it will include bibliographic, chemical, 
# crystal, experimental, refinement or atomic coordinate data resulting 
# from the CCDC's data processing and validation procedures.
#
#######################################################################

data_ALEDAW
_symmetry_cell_setting           triclinic
_symmetry_space_group_name_H-M   'P -1'
_symmetry_Int_Tables_number      2
_space_group_name_Hall           '-P 1'
loop_
_symmetry_equiv_pos_site_id
_symmetry_equiv_pos_as_xyz
1 x,y,z
2 -x,-y,-z
_cell_length_a                   8.7776(9)
_cell_length_b                   8.9257(9)
_cell_length_c                   15.8844(16)
_cell_angle_alpha                78.630(2)
_cell_angle_beta                 84.018(2)
_cell_angle_gamma                67.372(2)
_cell_volume                     1125.59
loop_
_atom_site_label
_atom_site_type_symbol
_atom_site_fract_x
_atom_site_fract_y
_atom_site_fract_z
Fe1 Fe 0.22717(5) 0.27304(5) 0.42887(3)
Fe2 Fe 0.27424(6) 0.24732(6) 0.07734(3)
P1 P -0.15149(10) 0.35584(10) 0.52114(5)
O1 O -0.0250(3) 0.3129(3) 0.44728(14)
O2 O -0.2963(3) 0.3025(3) 0.50240(17)
H1 H -0.3712 0.3828 0.4639
O3 O -0.0906(3) 0.2601(3) 0.60836(15)
O4 O 0.2256(3) 0.4589(3) 0.48297(16)
O5 O 0.4968(3) 0.1562(3) 0.41457(15)
O6 O 0.2361(3) 0.1120(3) 0.33875(14)
O7 O 0.2919(3) 0.0667(3) 0.53164(15)
O8 O 0.2417(3) 0.4170(3) 0.30127(15)
O9 O 0.5274(3) 0.1536(3) 0.04233(17)
O10 O 0.2884(3) 0.0505(3) 0.01863(15)
O11 O 0.2837(3) 0.0893(3) 0.20033(15)
O12 O 0.2080(3) 0.4363(3) -0.03203(16)
O13 O 0.3008(3) 0.3880(3) 0.16406(15)
O14 O 0.0102(3) 0.3575(3) 0.09355(17)
C1 C 0.2630(4) 0.1648(4) 0.2623(2)
C2 C 0.2695(4) 0.3383(4) 0.2407(2)
C3 C 0.5582(4) 0.0265(4) 0.46602(19)
C4 C 0.5690(4) 0.0307(4) 0.00669(19)
C5 C 0.0567(4) 0.5237(4) -0.0367(2)
O4A O -0.2256(3) 0.5411(3) 0.51703(16)
Fe1A Fe -0.22717(5) 0.72696(5) 0.57113(3)
O1A O 0.0250(3) 0.6871(3) 0.55272(14)
P1A P 0.15149(10) 0.64416(10) 0.47886(5)
O2A O 0.2963(3) 0.6975(3) 0.49760(17)
H1A H 0.3712 0.6172 0.5361
O3A O 0.0906(3) 0.7399(3) 0.39164(15)
O7A O 0.7081(3) -0.0667(3) 0.46836(15)
Fe1A_2 Fe 0.77283(5) -0.27304(5) 0.57113(3)
O5A O 0.5032(3) -0.1562(3) 0.58543(15)
C3A C 0.4418(4) -0.0265(4) 0.53398(19)
O10A O 0.7116(3) -0.0505(3) -0.01863(15)
Fe2A Fe 0.72576(6) -0.24732(6) -0.07734(3)
O9A O 0.4726(3) -0.1536(3) -0.04233(17)
C4A C 0.4310(4) -0.0307(4) -0.00669(19)
O14A O -0.0102(3) 0.6425(3) -0.09355(17)
Fe2A_2 Fe -0.27424(6) 0.75268(6) -0.07734(3)
O12A O -0.2080(3) 0.5637(3) 0.03203(16)
C5A C -0.0567(4) 0.4763(4) 0.0367(2)
O11A O 0.7163(3) -0.0893(3) -0.20033(15)
O12A_2 O 0.7920(3) -0.4363(3) 0.03203(16)
O13A O 0.6992(3) -0.3880(3) -0.16406(15)
O14A_2 O 0.9898(3) -0.3575(3) -0.09355(17)
O5A_2 O -0.4968(3) 0.8438(3) 0.58543(15)
O6A O -0.2361(3) 0.8880(3) 0.66125(14)
O7A_2 O -0.2919(3) 0.9333(3) 0.46836(15)
O8A O -0.2417(3) 0.5830(3) 0.69873(15)
C3A_2 C -0.5582(4) 0.9735(4) 0.53398(19)
C3_2 C -0.4418(4) 1.0265(4) 0.46602(19)
O7_2 O -0.7081(3) 1.0667(3) 0.53164(15)
O5_2 O -0.5032(3) 1.1562(3) 0.41457(15)
Fe1_2 Fe -0.77283(5) 1.27304(5) 0.42887(3)
O15 O -0.5404(4) 0.4615(4) 0.8431(2)
O16 O -0.4673(4) 0.4882(5) 0.3610(2)
O17 O 0.4840(5) 0.7965(6) 0.3665(3)
N1 N 0.1280(3) 0.0690(3) 0.78600(17)
N2 N 0.0954(3) -0.0843(4) 0.63901(18)
H2 H 0.0539 -0.1391 0.6152
H3 H 0.0203 0.0075 0.6451
H4 H 0.1764 -0.0797 0.6066
N3 N -0.2412(4) 0.2225(4) 0.7838(2)
H5 H -0.2602 0.1249 0.7793
H6 H -0.3391 0.2945 0.7857
H7 H -0.1874 0.2379 0.7307
N4 N 0.1525(4) 0.3465(4) 0.65826(18)
C6 C 0.2374(4) -0.0945(5) 0.7683(2)
H8 H 0.2813 -0.1648 0.8220
H9 H 0.3298 -0.0838 0.7319
C7 C 0.1528(5) -0.1762(5) 0.7252(2)
H10 H 0.2289 -0.2868 0.7200
H11 H 0.0590 -0.1851 0.7608
C8 C 0.0165(4) 0.0538(4) 0.8607(2)
H12 H 0.0730 0.0379 0.9130
H13 H -0.0097 -0.0427 0.8619
C9 C -0.1414(5) 0.2028(5) 0.8586(2)
H14 H -0.2054 0.1917 0.9114
H15 H -0.1158 0.3004 0.8549
C10 C 0.2236(5) 0.1670(5) 0.8003(2)
C11 C 0.1575(7) 0.3440(7) 0.7525(3)
C12? C 0.2864(16) 0.2372(16) 0.7126(8)
loop_
_geom_bond_atom_site_label_1
_geom_bond_atom_site_label_2
_geom_bond_site_symmetry_1
_geom_bond_site_symmetry_2
Fe1 O1 1_555 1_555
Fe2 O9 1_555 1_555
P1 O1 1_555 1_555
O2 P1 1_555 1_555
H1 O2 1_555 1_555
O3 P1 1_555 1_555
O4 Fe1 1_555 1_555
O5 Fe1 1_555 1_555
O6 Fe1 1_555 1_555
O7 Fe1 1_555 1_555
O8 Fe1 1_555 1_555
O9 C4 1_555 1_555
O10 Fe2 1_555 1_555
O11 Fe2 1_555 1_555
O12 Fe2 1_555 1_555
O13 Fe2 1_555 1_555
O14 Fe2 1_555 1_555
N1 C6 1_555 1_555
N2 H2 1_555 1_555
H3 N2 1_555 1_555
H4 N2 1_555 1_555
N3 H5 1_555 1_555
H6 N3 1_555 1_555
H7 N3 1_555 1_555
N4 C11 1_555 1_555
C1 O6 1_555 1_555
C2 O8 1_555 1_555
C3 O5 1_555 1_555
C4 O10A 1_555 1_555
C5 O12 1_555 1_555
C6 H8 1_555 1_555
H9 C6 1_555 1_555
C7 N2 1_555 1_555
H10 C7 1_555 1_555
H11 C7 1_555 1_555
C8 N1 1_555 1_555
H12 C8 1_555 1_555
H13 C8 1_555 1_555
C9 N3 1_555 1_555
H14 C9 1_555 1_555
H15 C9 1_555 1_555
C10 N1 1_555 1_555
C11 C10 1_555 1_555
O4A P1 1_555 1_555
Fe1A O4A 1_555 1_555
O1A Fe1A 1_555 1_555
P1A O4 1_555 1_555
O2A P1A 1_555 1_555
H1A O2A 1_555 1_555
O3A P1A 1_555 1_555
O7A C3 1_555 1_555
Fe1A_2 O7A 1_555 1_555
O5A Fe1A_2 1_555 1_555
C3A O7 1_555 1_555
O10A Fe2A 1_555 1_555
Fe2A O9A 1_555 1_555
O9A C4A 1_555 1_555
C4A O10 1_555 1_555
O14A C5 1_555 1_555
Fe2A_2 O14A 1_555 1_555
O12A Fe2A_2 1_555 1_555
C5A O14 1_555 1_555
O11A Fe2A 1_555 1_555
O12A_2 Fe2A 1_555 1_555
O13A Fe2A 1_555 1_555
O14A_2 Fe2A 1_555 1_555
O5A_2 Fe1A 1_555 1_555
O6A Fe1A 1_555 1_555
O7A_2 Fe1A 1_555 1_555
O8A Fe1A 1_555 1_555
C3A_2 O5A_2 1_555 1_555
C3_2 O7A_2 1_555 1_555
O7_2 C3A_2 1_555 1_555
O5_2 C3_2 1_555 1_555
Fe1_2 O7_2 1_555 1_555
O11 C1 1_555 1_555
O13 C2 1_555 1_555
C1 C2 1_555 1_555
C3 C3A 1_555 1_555
C4 C4A 1_555 1_555
C5 C5A 1_555 1_555
C6 C7 1_555 1_555
C8 C9 1_555 1_555
O1A P1A 1_555 1_555
O5A C3A 1_555 1_555
O12A C5A 1_555 1_555
C3A_2 C3_2 1_555 1_555
O5_2 Fe1_2 1_555 1_555

#END
