
#######################################################################
#
#                 Cambridge Crystallographic Data Centre
#                                CCDC 
#
#######################################################################
#
# If this CIF has been generated from an entry in the Cambridge 
# Structural Database, then it will include bibliographic, chemical, 
# crystal, experimental, refinement or atomic coordinate data resulting 
# from the CCDC's data processing and validation procedures.
#
#######################################################################

data_ALIBUT
_symmetry_cell_setting           cubic
_symmetry_space_group_name_H-M   'I m -3 m'
_symmetry_Int_Tables_number      229
_space_group_name_Hall           '-I 4 2 3'
loop_
_symmetry_equiv_pos_site_id
_symmetry_equiv_pos_as_xyz
1 x,y,z
2 -x,-y,z
3 -x,y,-z
4 x,-y,-z
5 z,x,y
6 z,-x,-y
7 -z,-x,y
8 -z,x,-y
9 y,z,x
10 -y,z,-x
11 y,-z,-x
12 -y,-z,x
13 y,x,-z
14 -y,-x,-z
15 y,-x,z
16 -y,x,z
17 x,z,-y
18 -x,z,y
19 -x,-z,-y
20 x,-z,y
21 z,y,-x
22 z,-y,x
23 -z,y,x
24 -z,-y,-x
25 1/2+x,1/2+y,1/2+z
26 1/2-x,1/2-y,1/2+z
27 1/2-x,1/2+y,1/2-z
28 1/2+x,1/2-y,1/2-z
29 1/2+z,1/2+x,1/2+y
30 1/2+z,1/2-x,1/2-y
31 1/2-z,1/2-x,1/2+y
32 1/2-z,1/2+x,1/2-y
33 1/2+y,1/2+z,1/2+x
34 1/2-y,1/2+z,1/2-x
35 1/2+y,1/2-z,1/2-x
36 1/2-y,1/2-z,1/2+x
37 1/2+y,1/2+x,1/2-z
38 1/2-y,1/2-x,1/2-z
39 1/2+y,1/2-x,1/2+z
40 1/2-y,1/2+x,1/2+z
41 1/2+x,1/2+z,1/2-y
42 1/2-x,1/2+z,1/2+y
43 1/2-x,1/2-z,1/2-y
44 1/2+x,1/2-z,1/2+y
45 1/2+z,1/2+y,1/2-x
46 1/2+z,1/2-y,1/2+x
47 1/2-z,1/2+y,1/2+x
48 1/2-z,1/2-y,1/2-x
49 -x,-y,-z
50 x,y,-z
51 x,-y,z
52 -x,y,z
53 -z,-x,-y
54 -z,x,y
55 z,x,-y
56 z,-x,y
57 -y,-z,-x
58 y,-z,x
59 -y,z,x
60 y,z,-x
61 -y,-x,z
62 y,x,z
63 -y,x,-z
64 y,-x,-z
65 -x,-z,y
66 x,-z,-y
67 x,z,y
68 -x,z,-y
69 -z,-y,x
70 -z,y,-x
71 z,-y,-x
72 z,y,x
73 1/2-x,1/2-y,1/2-z
74 1/2+x,1/2+y,1/2-z
75 1/2+x,1/2-y,1/2+z
76 1/2-x,1/2+y,1/2+z
77 1/2-z,1/2-x,1/2-y
78 1/2-z,1/2+x,1/2+y
79 1/2+z,1/2+x,1/2-y
80 1/2+z,1/2-x,1/2+y
81 1/2-y,1/2-z,1/2-x
82 1/2+y,1/2-z,1/2+x
83 1/2-y,1/2+z,1/2+x
84 1/2+y,1/2+z,1/2-x
85 1/2-y,1/2-x,1/2+z
86 1/2+y,1/2+x,1/2+z
87 1/2-y,1/2+x,1/2-z
88 1/2+y,1/2-x,1/2-z
89 1/2-x,1/2-z,1/2+y
90 1/2+x,1/2-z,1/2-y
91 1/2+x,1/2+z,1/2+y
92 1/2-x,1/2+z,1/2-y
93 1/2-z,1/2-y,1/2+x
94 1/2-z,1/2+y,1/2-x
95 1/2+z,1/2-y,1/2-x
96 1/2+z,1/2+y,1/2+x
_cell_length_a                   23.4345(2)
_cell_length_b                   23.4345(2)
_cell_length_c                   23.4345(2)
_cell_angle_alpha                90
_cell_angle_beta                 90
_cell_angle_gamma                90
_cell_volume                     12869.7
loop_
_atom_site_label
_atom_site_type_symbol
_atom_site_fract_x
_atom_site_fract_y
_atom_site_fract_z
Mo1 Mo 0.2500 0.5000 0.0000
Zn1 Zn 0.31945(5) 0.5000 0.13771(5)
N1 N 0.2499(6) 0.5000 0.1847(6)
O1 O 0.2923(6) 0.5000 0.0591(5)
N2 N 0.3639(4) 0.4318(5) 0.1472(6)
C1 C 0.2256(7) 0.5000 0.2256(7)
C2 C 0.4057(5) 0.4057(5) 0.1344(7)
C3 C 0.4350(10) 0.4350(10) 0.0700(15)
C4 C 0.2106(12) 0.5553(13) 0.1666(13)
C5 C 0.3492(19) 0.4019(15) 0.1967(19)
C6 C 0.2561(13) 0.4337(19) 0.2561(13)
Zn1C Zn 0.31945(5) 0.5000 -0.13771(5)
Zn1OA Zn 0.18055(5) 0.63771(5) 0.0000
Zn1PA Zn 0.18055(5) 0.36229(5) 0.0000
Zn1U Zn 0.13771(5) 0.5000 0.31945(5)
Zn1O Zn 0.5000 0.31945(5) 0.13771(5)
Zn1N Zn 0.5000 0.68055(5) 0.13771(5)
Zn1T Zn 0.13771(5) 0.5000 -0.31945(5)
Zn1M Zn 0.5000 0.68055(5) -0.13771(5)
Zn1L Zn 0.5000 0.31945(5) -0.13771(5)
N1U N 0.1847(6) 0.5000 0.2499(6)
N1C N 0.2499(6) 0.5000 -0.1847(6)
N1T N 0.1847(6) 0.5000 -0.2499(6)
N1OA N 0.2501(6) 0.6847(6) 0.0000
N1PA N 0.2501(6) 0.3153(6) 0.0000
O1C O 0.2923(6) 0.5000 -0.0591(5)
O1OA O 0.2077(6) 0.5591(5) 0.0000
O1PA O 0.2077(6) 0.4409(5) 0.0000
N2IB N 0.4318(5) 0.3639(4) 0.1472(6)
N2XA N 0.3639(4) 0.5682(5) 0.1472(6)
N2N N 0.4318(5) 0.6361(4) 0.1472(6)
N2C N 0.3639(4) 0.5682(5) -0.1472(6)
N2KB N 0.4318(5) 0.6361(4) -0.1472(6)
N2WA N 0.3639(4) 0.4318(5) -0.1472(6)
N2L N 0.4318(5) 0.3639(4) -0.1472(6)
N2OA N 0.1361(4) 0.6472(6) -0.0682(5)
N2MC N 0.1361(4) 0.6472(6) 0.0682(5)
N2PA N 0.1361(4) 0.3528(6) 0.0682(5)
N2JC N 0.1361(4) 0.3528(6) -0.0682(5)
C1C C 0.2256(7) 0.5000 -0.2256(7)
C2N C 0.4057(5) 0.5943(5) 0.1344(7)
C2C C 0.4057(5) 0.5943(5) -0.1344(7)
C2L C 0.4057(5) 0.4057(5) -0.1344(7)
C3N C 0.4350(10) 0.5650(10) 0.0700(15)
C3C C 0.4350(10) 0.5650(10) -0.0700(15)
C3L C 0.4350(10) 0.4350(10) -0.0700(15)
C4U C 0.1666(13) 0.4447(13) 0.2106(12)
C4XA C 0.2106(12) 0.4447(13) 0.1666(13)
C4SB C 0.1666(13) 0.5553(13) 0.2106(12)
C4C C 0.2106(12) 0.4447(13) -0.1666(13)
C4T C 0.1666(13) 0.5553(13) -0.2106(12)
C4WA C 0.2106(12) 0.5553(13) -0.1666(13)
C4RB C 0.1666(13) 0.4447(13) -0.2106(12)
C5IB C 0.4019(15) 0.3492(19) 0.1967(19)
C5XA C 0.3492(19) 0.5981(15) 0.1967(19)
C5N C 0.4019(15) 0.6508(19) 0.1967(19)
C5C C 0.3492(19) 0.5981(15) -0.1967(19)
C5KB C 0.4019(15) 0.6508(19) -0.1967(19)
C5WA C 0.3492(19) 0.4019(15) -0.1967(19)
C5L C 0.4019(15) 0.3492(19) -0.1967(19)
C6U C 0.2561(13) 0.5663(19) 0.2561(13)
C6C C 0.2561(13) 0.5663(19) -0.2561(13)
C6T C 0.2561(13) 0.4337(19) -0.2561(13)
loop_
_geom_bond_atom_site_label_1
_geom_bond_atom_site_label_2
_geom_bond_site_symmetry_1
_geom_bond_site_symmetry_2
Mo1 O1 1_555 1_555
Zn1 N1 1_555 1_555
N1 C1 1_555 1_555
O1 Zn1 1_555 1_555
N2 Zn1 1_555 1_555
C1 C6 1_555 1_555
C2 N2 1_555 1_555
C3 C2 1_555 1_555
C4 N1 1_555 1_555
C5 N2 1_555 1_555
Zn1C N1C 1_555 1_555
Zn1OA N1OA 1_555 1_555
Zn1PA N1PA 1_555 1_555
Zn1U N1U 1_555 1_555
Zn1O N2IB 1_555 1_555
Zn1N N2N 1_555 1_555
Zn1T N1T 1_555 1_555
Zn1M N2KB 1_555 1_555
Zn1L N2L 1_555 1_555
N1U C1 1_555 1_555
N1C C1C 1_555 1_555
N1T C1C 1_555 1_555
O1C Mo1 1_555 1_555
O1OA Mo1 1_555 1_555
O1PA Mo1 1_555 1_555
N2IB C2 1_555 1_555
N2XA Zn1 1_555 1_555
N2N C2N 1_555 1_555
N2C Zn1C 1_555 1_555
N2KB C2C 1_555 1_555
N2WA Zn1C 1_555 1_555
N2L C2L 1_555 1_555
N2OA Zn1OA 1_555 1_555
N2MC Zn1OA 1_555 1_555
N2PA Zn1PA 1_555 1_555
N2JC Zn1PA 1_555 1_555
C1C C6C 1_555 1_555
C2N N2XA 1_555 1_555
C2C N2C 1_555 1_555
C2L N2WA 1_555 1_555
C3N C2N 1_555 1_555
C3C C2C 1_555 1_555
C3L C2L 1_555 1_555
C4U N1U 1_555 1_555
C4XA N1 1_555 1_555
C4SB C4 1_555 1_555
C4C N1C 1_555 1_555
C4T N1T 1_555 1_555
C4WA N1C 1_555 1_555
C4RB N1T 1_555 1_555
C5IB C5 1_555 1_555
C5XA N2XA 1_555 1_555
C5N N2N 1_555 1_555
C5C N2C 1_555 1_555
C5KB N2KB 1_555 1_555
C5WA N2WA 1_555 1_555
C5L N2L 1_555 1_555
C6U C1 1_555 1_555
C6T C1C 1_555 1_555
Zn1C O1C 1_555 1_555
Zn1OA O1OA 1_555 1_555
Zn1PA O1PA 1_555 1_555
N1U C4SB 1_555 1_555
N2IB C5IB 1_555 1_555
C4U C4XA 1_555 1_555
C4C C4RB 1_555 1_555
C4T C4WA 1_555 1_555
C5XA C5N 1_555 1_555
C5C C5KB 1_555 1_555
C5WA C5L 1_555 1_555

#END
