
#######################################################################
#
#                 Cambridge Crystallographic Data Centre
#                                CCDC 
#
#######################################################################
#
# If this CIF has been generated from an entry in the Cambridge 
# Structural Database, then it will include bibliographic, chemical, 
# crystal, experimental, refinement or atomic coordinate data resulting 
# from the CCDC's data processing and validation procedures.
#
#######################################################################

data_ALULID
_symmetry_cell_setting           triclinic
_symmetry_space_group_name_H-M   'P -1'
_symmetry_Int_Tables_number      2
_space_group_name_Hall           '-P 1'
loop_
_symmetry_equiv_pos_site_id
_symmetry_equiv_pos_as_xyz
1 x,y,z
2 -x,-y,-z
_cell_length_a                   15.7428(17)
_cell_length_b                   16.5562(19)
_cell_length_c                   16.976(2)
_cell_angle_alpha                99.866(1)
_cell_angle_beta                 95.617(1)
_cell_angle_gamma                115.060(2)
_cell_volume                     3876.16
loop_
_atom_site_label
_atom_site_type_symbol
_atom_site_fract_x
_atom_site_fract_y
_atom_site_fract_z
Ce1 Ce 0.52894(4) 0.53929(4) 0.63452(3)
Ce2 Ce 0.55302(5) 0.48262(4) 0.86026(4)
O1 O 0.4306(6) 0.4942(5) 0.7464(4)
O2 O 0.3749(5) 0.4490(5) 0.8480(4)
O3 O -0.3939(6) 0.4241(6) 0.4085(5)
O4 O -0.4009(5) 0.4826(5) 0.5315(5)
O5 O 0.5445(8) 0.6206(6) 0.9221(6)
O6 O 0.6478(5) 0.6016(5) 0.7959(5)
O7 O 0.7133(6) 0.6381(6) 0.6928(5)
O8 O 0.6003(5) 0.6617(5) 0.5599(4)
O9 O 0.6018(6) 0.6147(5) 0.4302(5)
O10 O 0.5550(6) 0.4160(5) 0.6978(5)
O11 O 0.4676(7) 0.3218(5) 0.7691(5)
O12 O 0.6836(8) 0.5661(8) 0.9930(6)
H1 H 0.7230 0.5434 0.9936
H2 H 0.6583 0.5593 1.0349
O13 O 0.5486(8) 0.6966(5) 0.7241(5)
H3 H 0.5614 0.6959 0.7737
H4 H 0.4949 0.6975 0.7167
C1 C 0.2694(9) 0.4567(11) 0.7517(8)
C2 C 0.2171(11) 0.4760(13) 0.8044(10)
H5 H 0.2369 0.4853 0.8601
C3 C 0.1326(12) 0.4822(14) 0.7759(11)
H6 H 0.1033 0.5073 0.8107
C4 C 0.0965(11) 0.4482(13) 0.6926(10)
C5 C 0.1494(10) 0.4310(12) 0.6416(9)
H7 H 0.1273 0.4152 0.5856
C6 C 0.2372(10) 0.4368(11) 0.6721(9)
H8 H 0.2744 0.4266 0.6361
C7 C -0.1066(11) 0.4382(13) 0.5727(10)
C8 C -0.1444(12) 0.4808(13) 0.6263(11)
H9 H -0.1162 0.5056 0.6811
C9 C -0.2265(11) 0.4842(12) 0.5935(10)
H10 H -0.2512 0.5146 0.6284
C10 C -0.2754(9) 0.4466(10) 0.5136(8)
C11 C -0.2350(10) 0.4009(11) 0.4656(9)
H11 H -0.2656 0.3727 0.4117
C12 C -0.1521(10) 0.3945(11) 0.4927(9)
H12 H -0.1284 0.3623 0.4585
C13 C -0.3607(8) 0.4524(9) 0.4822(7)
C14 C 0.5139(15) 0.7359(10) 0.9975(10)
C15 C 0.5377(15) 0.7839(10) 0.9407(10)
H13 H 0.5582 0.7620 0.8959
C16 C 0.5322(16) 0.8658(11) 0.9481(11)
H14 H 0.5500 0.9001 0.9092
C17 C 0.5000(17) 0.8957(11) 1.0136(11)
C18 C 0.4900(16) 0.8544(10) 1.0751(11)
H15 H 0.4827 0.8824 1.1246
C19 C 0.4904(15) 0.7704(10) 1.0659(10)
H16 H 0.4747 0.7376 1.1060
C20 C 0.7140(9) 0.6537(8) 0.7658(8)
C21 C 0.7905(9) 0.7393(9) 0.8226(7)
C22 C 0.8690(10) 0.7915(10) 0.7920(9)
H17 H 0.8762 0.7712 0.7396
C23 C 0.9366(11) 0.8751(10) 0.8417(9)
H18 H 0.9875 0.9129 0.8209
C24 C 0.9300(12) 0.9025(10) 0.9191(9)
C25 C 0.8499(11) 0.8499(10) 0.9491(9)
H19 H 0.8429 0.8689 1.0019
C26 C 0.7816(11) 0.7689(9) 0.8982(8)
H20 H 0.7276 0.7336 0.9171
C27 C 0.6352(8) 0.6694(7) 0.4987(7)
C28 C 0.7243(9) 0.7542(8) 0.5031(7)
C29 C 0.7567(10) 0.7806(9) 0.4343(8)
H21 H 0.7208 0.7460 0.3829
C30 C 0.8424(10) 0.8584(9) 0.4413(9)
H22 H 0.8636 0.8756 0.3948
C31 C 0.8960(10) 0.9101(9) 0.5177(8)
C32 C 0.8652(10) 0.8853(9) 0.5875(8)
H23 H 0.9014 0.9194 0.6389
C33 C 0.7786(10) 0.8077(9) 0.5787(8)
H24 H 0.7565 0.7914 0.6252
C34 C 0.5080(11) 0.3361(8) 0.7101(8)
C35 C 0.5088(11) 0.2576(8) 0.6516(8)
C36 C 0.4720(14) 0.1715(10) 0.6713(10)
H25 H 0.4464 0.1632 0.7181
C37 C 0.4754(14) 0.0989(10) 0.6179(10)
H26 H 0.4534 0.0420 0.6309
C38 C 0.5099(13) 0.1085(9) 0.5475(9)
C39 C 0.5381(13) 0.1916(9) 0.5281(9)
H27 H 0.5574 0.1989 0.4787
C40 C 0.5381(12) 0.2642(9) 0.5807(9)
H28 H 0.5593 0.3204 0.5664
N1 N 0.0080(10) 0.4540(12) 0.6685(9)
N2 N -0.0223(9) 0.4279(11) 0.5962(9)
N3 N 0.4951(15) 0.9839(10) 1.0292(9)
N4 N 1.0053(11) 0.9875(10) 0.9660(8)
N5 N 0.9872(9) 0.9922(8) 0.5314(7)
N6 N 0.5111(12) 0.0355(8) 0.4894(8)
C41 C 0.5209(12) 0.6482(9) 0.9863(8)
O14 O 0.6807(9) 0.4244(9) 0.8500(7)
H29 H 0.6438 0.3680 0.8455
H30 H 0.7065 0.4438 0.9002
O15 O 0.4951(9) 0.6017(6) 1.0375(6)
C42 C 0.3637(8) 0.4680(9) 0.7845(7)
Ce1A Ce -0.52894(4) 0.46071(4) 0.36548(3)
Ce1_2 Ce -0.47106(4) 0.53929(4) 0.63452(3)
Ce1A_2 Ce 0.47106(4) 0.46071(4) 0.36548(3)
Ce1A_3 Ce 1.47106(4) 1.46071(4) 1.36548(3)
Ce1A_4 Ce 1.47106(4) 1.46071(4) 0.36548(3)
Ce1_3 Ce 1.52894(4) 1.53929(4) 0.63452(3)
Ce1A_5 Ce 0.47106(4) -0.53929(4) 0.36548(3)
Ce2A Ce -0.55302(5) 0.51738(4) 0.13974(4)
Ce2A_2 Ce 0.44698(5) 0.51738(4) 1.13974(4)
Ce2A_3 Ce 0.44698(5) 1.51738(4) 1.13974(4)
Ce2_2 Ce 0.55302(5) 1.48262(4) 0.86026(4)
Ce2A_4 Ce 1.44698(5) 1.51738(4) 1.13974(4)
Ce2A_5 Ce 0.44698(5) -0.48262(4) 0.13974(4)
O1A O -0.4306(6) 0.5058(5) 0.2536(4)
O2A O -0.3749(5) 0.5510(5) 0.1520(4)
O3A O 0.3939(6) 0.5759(6) 0.5915(5)
O4A O 0.4009(5) 0.5174(5) 0.4685(5)
O4_2 O 0.5991(5) 0.4826(5) 0.5315(5)
O4A_2 O -0.5991(5) 0.5174(5) 0.4685(5)
O5A O 0.4555(8) 1.3794(6) 1.0779(6)
O5A_2 O -0.5445(8) 0.3794(6) 0.0779(6)
O6A O 1.3522(5) 1.3984(5) 1.2041(5)
O6A_2 O -0.6478(5) 0.3984(5) 0.2041(5)
O7A O 1.2867(6) 1.3619(6) 1.3072(5)
O7A_2 O -0.7133(6) 0.3619(6) 0.3072(5)
O8A O 1.3997(5) 1.3383(5) 0.4401(4)
O8A_2 O -0.6003(5) 0.3383(5) 0.4401(4)
O9A O 1.3982(6) 1.3853(5) 0.5698(5)
O9A_2 O 0.3982(6) 0.3853(5) 0.5698(5)
O9_2 O -0.3982(6) 0.6147(5) 0.4302(5)
O10A O 0.4450(6) -0.4160(5) 0.3022(5)
O10A_2 O -0.5550(6) 0.5840(5) 0.3022(5)
O11A O 0.5324(7) -0.3218(5) 0.2309(5)
O11A_2 O -0.4676(7) 0.6782(5) 0.2309(5)
O12A O -0.6836(8) 0.4339(8) 0.0070(6)
H1A H -0.7230 0.4566 0.0064
H2A H -0.6583 0.4407 -0.0349
O13A O -0.5486(8) 0.3034(5) 0.2759(5)
H3A H -0.5614 0.3041 0.2263
H4A H -0.4949 0.3025 0.2833
C1A C -0.2694(9) 0.5433(11) 0.2483(8)
C2A C -0.2171(11) 0.5240(13) 0.1956(10)
H5A H -0.2369 0.5147 0.1399
C3A C -0.1326(12) 0.5178(14) 0.2241(11)
H6A H -0.1033 0.4927 0.1893
C4A C -0.0965(11) 0.5518(13) 0.3074(10)
C5A C -0.1494(10) 0.5690(12) 0.3584(9)
H7A H -0.1273 0.5848 0.4144
C6A C -0.2372(10) 0.5632(11) 0.3279(9)
H8A H -0.2744 0.5734 0.3639
C7A C 0.1066(11) 0.5618(13) 0.4273(10)
C8A C 0.1444(12) 0.5192(13) 0.3737(11)
H9A H 0.1162 0.4944 0.3189
C9A C 0.2265(11) 0.5158(12) 0.4065(10)
H10A H 0.2512 0.4854 0.3716
C10A C 0.2754(9) 0.5534(10) 0.4864(8)
C11A C 0.2350(10) 0.5991(11) 0.5344(9)
H11A H 0.2656 0.6273 0.5883
C12A C 0.1521(10) 0.6055(11) 0.5073(9)
H12A H 0.1284 0.6377 0.5415
C13A C 0.3607(8) 0.5476(9) 0.5178(7)
C14A C 0.4861(15) 1.2641(10) 1.0025(10)
C15A C 0.4623(15) 1.2161(10) 1.0593(10)
H13A H 0.4418 1.2380 1.1041
C16A C 0.4678(16) 1.1342(11) 1.0519(11)
H14A H 0.4500 1.0999 1.0908
C17A C 0.5000(17) 1.1043(11) 0.9864(11)
C18A C 0.5100(16) 1.1456(10) 0.9249(11)
H15A H 0.5173 1.1176 0.8754
C19A C 0.5096(15) 1.2296(10) 0.9341(10)
H16A H 0.5253 1.2624 0.8940
C20A C 1.2860(9) 1.3463(8) 1.2342(8)
C21A C 1.2095(9) 1.2607(9) 1.1774(7)
C22A C 1.1310(10) 1.2085(10) 1.2080(9)
H17A H 1.1238 1.2288 1.2604
C23A C 1.0634(11) 1.1249(10) 1.1583(9)
H18A H 1.0125 1.0871 1.1791
C24A C 1.0700(12) 1.0975(10) 1.0809(9)
C25A C 1.1501(11) 1.1501(10) 1.0509(9)
H19A H 1.1571 1.1311 0.9981
C26A C 1.2184(11) 1.2311(9) 1.1018(8)
H20A H 1.2724 1.2664 1.0829
C27A C 1.3648(8) 1.3306(7) 0.5013(7)
C28A C 1.2757(9) 1.2458(8) 0.4969(7)
C29A C 1.2433(10) 1.2194(9) 0.5657(8)
H21A H 1.2792 1.2540 0.6171
C30A C 1.1576(10) 1.1416(9) 0.5587(9)
H22A H 1.1364 1.1244 0.6052
C31A C 1.1040(10) 1.0899(9) 0.4823(8)
C32A C 1.1348(10) 1.1147(9) 0.4125(8)
H23A H 1.0986 1.0806 0.3611
C33A C 1.2214(10) 1.1923(9) 0.4213(8)
H24A H 1.2435 1.2086 0.3748
C34A C 0.4920(11) -0.3361(8) 0.2899(8)
C35A C 0.4912(11) -0.2576(8) 0.3484(8)
C36A C 0.5280(14) -0.1715(10) 0.3287(10)
H25A H 0.5536 -0.1632 0.2819
C37A C 0.5246(14) -0.0989(10) 0.3821(10)
H26A H 0.5466 -0.0420 0.3691
C38A C 0.4901(13) -0.1085(9) 0.4525(9)
C39A C 0.4619(13) -0.1916(9) 0.4719(9)
H27A H 0.4426 -0.1989 0.5213
C40A C 0.4619(12) -0.2642(9) 0.4193(9)
H28A H 0.4407 -0.3204 0.4336
N1A N -0.0080(10) 0.5460(12) 0.3315(9)
N2A N 0.0223(9) 0.5721(11) 0.4038(9)
N3A N 0.5049(15) 1.0161(10) 0.9708(9)
N4A N 0.9947(11) 1.0125(10) 1.0340(8)
N5A N 1.0128(9) 1.0078(8) 0.4686(7)
N6A N 0.4889(12) -0.0355(8) 0.5106(8)
C41A C 0.4791(12) 1.3518(9) 1.0137(8)
O14A O -0.6807(9) 0.5756(9) 0.1500(7)
H29A H -0.6438 0.6320 0.1545
H30A H -0.7065 0.5562 0.0998
O15A O 0.5049(9) 1.3983(6) 0.9625(6)
O15A_2 O 0.5049(9) 0.3983(6) 0.9625(6)
O15_2 O -0.5049(9) 0.6017(6) 0.0375(6)
C42A C -0.3637(8) 0.5320(9) 0.2155(7)
loop_
_geom_bond_atom_site_label_1
_geom_bond_atom_site_label_2
_geom_bond_site_symmetry_1
_geom_bond_site_symmetry_2
Ce1 O1 1_555 1_555
Ce2 O1 1_555 1_555
O1 C42 1_555 1_555
O2 Ce2 1_555 1_555
O3 C13 1_555 1_555
O4 C13 1_555 1_555
O5 Ce2 1_555 1_555
O6 Ce1 1_555 1_555
O7 Ce1 1_555 1_555
O8 Ce1 1_555 1_555
O9 C27 1_555 1_555
O10 Ce1 1_555 1_555
O11 Ce2 1_555 1_555
O12 Ce2 1_555 1_555
H1 O12 1_555 1_555
H2 O12 1_555 1_555
O13 Ce1 1_555 1_555
H3 O13 1_555 1_555
H4 O13 1_555 1_555
C1 C2 1_555 1_555
C2 H5 1_555 1_555
C3 C2 1_555 1_555
H6 C3 1_555 1_555
C4 C3 1_555 1_555
C5 C4 1_555 1_555
H7 C5 1_555 1_555
C6 C1 1_555 1_555
H8 C6 1_555 1_555
C7 C8 1_555 1_555
C8 H9 1_555 1_555
C9 C8 1_555 1_555
H10 C9 1_555 1_555
C10 C9 1_555 1_555
C11 C10 1_555 1_555
H11 C11 1_555 1_555
C12 C7 1_555 1_555
H12 C12 1_555 1_555
C13 C10 1_555 1_555
C14 C15 1_555 1_555
C15 H13 1_555 1_555
C16 C15 1_555 1_555
H14 C16 1_555 1_555
C17 C16 1_555 1_555
C18 C17 1_555 1_555
H15 C18 1_555 1_555
C19 C14 1_555 1_555
H16 C19 1_555 1_555
C20 O6 1_555 1_555
C21 C20 1_555 1_555
C22 C21 1_555 1_555
H17 C22 1_555 1_555
C23 C22 1_555 1_555
H18 C23 1_555 1_555
C24 C23 1_555 1_555
C25 C24 1_555 1_555
H19 C25 1_555 1_555
C26 C21 1_555 1_555
H20 C26 1_555 1_555
C27 O8 1_555 1_555
C28 C27 1_555 1_555
C29 C28 1_555 1_555
H21 C29 1_555 1_555
C30 C29 1_555 1_555
H22 C30 1_555 1_555
C31 C30 1_555 1_555
C32 C31 1_555 1_555
H23 C32 1_555 1_555
C33 C28 1_555 1_555
H24 C33 1_555 1_555
C34 O10 1_555 1_555
C35 C34 1_555 1_555
C36 C35 1_555 1_555
H25 C36 1_555 1_555
C37 C36 1_555 1_555
H26 C37 1_555 1_555
C38 C37 1_555 1_555
C39 C38 1_555 1_555
H27 C39 1_555 1_555
C40 C35 1_555 1_555
H28 C40 1_555 1_555
N1 C4 1_555 1_555
N2 C7 1_555 1_555
N3 C17 1_555 1_555
N4 C24 1_555 1_555
N5 C31 1_555 1_555
N6 C38 1_555 1_555
C41 O5 1_555 1_555
O14 Ce2 1_555 1_555
H29 O14 1_555 1_555
H30 O14 1_555 1_555
O15 C41 1_555 1_555
C42 O2 1_555 1_555
Ce1A O3 1_555 1_555
Ce1_2 O4 1_555 1_555
Ce1A_2 O9 1_555 1_555
Ce1A_3 O6A 1_555 1_555
Ce1A_4 O8A 1_555 1_555
Ce1_3 O9A 1_555 1_555
Ce1A_5 O10A 1_555 1_555
Ce2A O1A 1_555 1_555
Ce2A_2 O15 1_555 1_555
Ce2A_3 O5A 1_555 1_555
Ce2_2 O15A 1_555 1_555
Ce2A_4 O6A 1_555 1_555
Ce2A_5 O10A 1_555 1_555
O1A Ce1A 1_555 1_555
O2A Ce2A 1_555 1_555
O3A Ce1 1_555 1_555
O4A Ce1A_2 1_555 1_555
O4_2 Ce1 1_555 1_555
O4A_2 Ce1A 1_555 1_555
O5A C41A 1_555 1_555
O5A_2 Ce2A 1_555 1_555
O6A C20A 1_555 1_555
O6A_2 Ce1A 1_555 1_555
O7A Ce1A_3 1_555 1_555
O7A_2 Ce1A 1_555 1_555
O8A C27A 1_555 1_555
O8A_2 Ce1A 1_555 1_555
O9A C27A 1_555 1_555
O9A_2 Ce1 1_555 1_555
O9_2 Ce1A 1_555 1_555
O10A C34A 1_555 1_555
O10A_2 Ce1A 1_555 1_555
O11A Ce2A_5 1_555 1_555
O11A_2 Ce2A 1_555 1_555
O12A Ce2A 1_555 1_555
H1A O12A 1_555 1_555
H2A O12A 1_555 1_555
O13A Ce1A 1_555 1_555
H3A O13A 1_555 1_555
H4A O13A 1_555 1_555
C1A C2A 1_555 1_555
C2A H5A 1_555 1_555
C3A C2A 1_555 1_555
H6A C3A 1_555 1_555
C4A C3A 1_555 1_555
C5A C4A 1_555 1_555
H7A C5A 1_555 1_555
C6A C1A 1_555 1_555
H8A C6A 1_555 1_555
C7A C8A 1_555 1_555
C8A H9A 1_555 1_555
C9A C8A 1_555 1_555
H10A C9A 1_555 1_555
C10A C9A 1_555 1_555
C11A C10A 1_555 1_555
H11A C11A 1_555 1_555
C12A C7A 1_555 1_555
H12A C12A 1_555 1_555
C13A O3A 1_555 1_555
C14A C15A 1_555 1_555
C15A H13A 1_555 1_555
C16A C15A 1_555 1_555
H14A C16A 1_555 1_555
C17A C16A 1_555 1_555
C18A C17A 1_555 1_555
H15A C18A 1_555 1_555
C19A C14A 1_555 1_555
H16A C19A 1_555 1_555
C20A O7A 1_555 1_555
C21A C20A 1_555 1_555
C22A C21A 1_555 1_555
H17A C22A 1_555 1_555
C23A C22A 1_555 1_555
H18A C23A 1_555 1_555
C24A C23A 1_555 1_555
C25A C24A 1_555 1_555
H19A C25A 1_555 1_555
C26A C21A 1_555 1_555
H20A C26A 1_555 1_555
C27A C28A 1_555 1_555
C28A C29A 1_555 1_555
C29A H21A 1_555 1_555
C30A C29A 1_555 1_555
H22A C30A 1_555 1_555
C31A C30A 1_555 1_555
C32A C31A 1_555 1_555
H23A C32A 1_555 1_555
C33A C28A 1_555 1_555
H24A C33A 1_555 1_555
C34A O11A 1_555 1_555
C35A C34A 1_555 1_555
C36A C35A 1_555 1_555
H25A C36A 1_555 1_555
C37A C36A 1_555 1_555
H26A C37A 1_555 1_555
C38A C37A 1_555 1_555
C39A C38A 1_555 1_555
H27A C39A 1_555 1_555
C40A C35A 1_555 1_555
H28A C40A 1_555 1_555
N1A C4A 1_555 1_555
N2A C7A 1_555 1_555
N3A N3 1_555 1_555
N4A N4 1_555 1_555
N5A N5 1_555 1_555
N6A N6 1_555 1_555
C41A C14A 1_555 1_555
O14A Ce2A 1_555 1_555
H29A O14A 1_555 1_555
H30A O14A 1_555 1_555
O15A C41A 1_555 1_555
O15A_2 Ce2 1_555 1_555
O15_2 Ce2A 1_555 1_555
C42A O1A 1_555 1_555
Ce2 O6 1_555 1_555
Ce2 O10 1_555 1_555
O7 C20 1_555 1_555
O11 C34 1_555 1_555
C1 C42 1_555 1_555
C5 C6 1_555 1_555
C11 C12 1_555 1_555
C14 C41 1_555 1_555
C18 C19 1_555 1_555
C25 C26 1_555 1_555
C32 C33 1_555 1_555
C39 C40 1_555 1_555
N1 N2 1_555 1_555
Ce2A O6A_2 1_555 1_555
Ce2A O10A_2 1_555 1_555
O2A C42A 1_555 1_555
O4A C13A 1_555 1_555
C1A C42A 1_555 1_555
C5A C6A 1_555 1_555
C10A C13A 1_555 1_555
C11A C12A 1_555 1_555
C17A N3A 1_555 1_555
C18A C19A 1_555 1_555
C24A N4A 1_555 1_555
C25A C26A 1_555 1_555
C31A N5A 1_555 1_555
C32A C33A 1_555 1_555
C38A N6A 1_555 1_555
C39A C40A 1_555 1_555
N1A N2A 1_555 1_555

#END
