
#######################################################################
#
#                 Cambridge Crystallographic Data Centre
#                                CCDC 
#
#######################################################################
#
# If this CIF has been generated from an entry in the Cambridge 
# Structural Database, then it will include bibliographic, chemical, 
# crystal, experimental, refinement or atomic coordinate data resulting 
# from the CCDC's data processing and validation procedures.
#
#######################################################################

data_AMUWUB
_symmetry_cell_setting           triclinic
_symmetry_space_group_name_H-M   'P -1'
_symmetry_Int_Tables_number      2
_space_group_name_Hall           '-P 1'
loop_
_symmetry_equiv_pos_site_id
_symmetry_equiv_pos_as_xyz
1 x,y,z
2 -x,-y,-z
_cell_length_a                   10.0358(6)
_cell_length_b                   15.9728(9)
_cell_length_c                   21.5590(12)
_cell_angle_alpha                98.333(5)
_cell_angle_beta                 93.782(5)
_cell_angle_gamma                107.759(5)
_cell_volume                     3234.14
loop_
_atom_site_label
_atom_site_type_symbol
_atom_site_fract_x
_atom_site_fract_y
_atom_site_fract_z
Cu1 Cu 0.62647(6) 0.70005(4) 0.45814(3)
Cu2 Cu -0.04994(5) 0.59228(4) 0.36693(3)
Cu3 Cu 0.06656(8) 0.41343(6) 0.20136(4)
O1 O 0.3838(3) 0.6285(2) 0.29195(16)
O2 O 0.5654(3) 0.6960(2) 0.36685(15)
O3 O 0.0546(3) 0.5071(2) 0.31373(14)
O4 O 0.1884(3) 0.4278(3) 0.28094(17)
O5 O 0.2452(3) 0.3936(2) 0.55853(14)
O6 O 0.1483(3) 0.49787(18) 0.58304(14)
O7 O 0.4868(3) 0.5974(2) 0.60918(15)
O8 O 0.6115(3) 0.68848(19) 0.54975(15)
O9 O 1.9167(3) 1.2921(2) 0.65140(16)
O10 O 1.8924(3) 1.33978(19) 0.56330(14)
O11 O -1.0475(10) 0.4245(10) -0.1210(6)
O12 O -0.9371(4) 0.5847(3) -0.13185(19)
O13 O 0.1818(7) 0.3211(5) 0.1472(3)
O14 O -0.0808(6) 0.3097(4) 0.2223(2)
O15 O 0.2018(4) 0.5265(3) 0.18943(18)
N1 N 0.4474(3) 0.6098(2) 0.44987(17)
N2 N 0.8063(3) 0.7953(2) 0.4685(2)
N3 N -0.1909(3) 0.5688(3) 0.29442(17)
C1 C 0.4449(4) 0.6383(3) 0.3452(2)
C2 C 0.3755(4) 0.5831(3) 0.3923(2)
C3 C 0.2482(4) 0.5126(3) 0.3847(2)
C4 C 0.1563(4) 0.4796(3) 0.3213(2)
C5 C 0.2038(4) 0.4752(3) 0.4364(2)
H1 H 0.1204 0.4277 0.4315
C6 C 0.2799(4) 0.5065(3) 0.49554(19)
C7 C 0.2236(4) 0.4634(3) 0.5506(2)
C8 C 0.4069(4) 0.5762(3) 0.5009(2)
C9 C 0.5080(4) 0.6228(3) 0.5592(2)
C10 C 0.8857(5) 0.8191(3) 0.5227(3)
H2 H 0.8498 0.7943 0.5570
C11 C 1.0207(5) 0.8795(4) 0.5315(3)
H3 H 1.0731 0.8940 0.5710
C12 C 1.0775(4) 0.9181(3) 0.4827(3)
C13 C 0.9947(5) 0.8925(3) 0.4261(3)
H4 H 1.0279 0.9161 0.3910
C14 C 0.8616(5) 0.8313(3) 0.4211(3)
H5 H 0.8077 0.8146 0.3819
C15 C 1.2199(5) 0.9849(3) 0.4892(3)
H6 H 1.2496 1.0086 0.4537
C16 C 1.3040(5) 1.0118(3) 0.5397(3)
H7 H 1.2723 0.9854 0.5739
C17 C 1.4461(5) 1.0795(3) 0.5519(3)
C18 C 1.5212(5) 1.0943(3) 0.6090(3)
H8 H 1.4836 1.0603 0.6390
C19 C 1.6534(5) 1.1590(3) 0.6243(3)
H9 H 1.7041 1.1670 0.6636
C20 C 1.7079(4) 1.2109(3) 0.5806(2)
C21 C 1.6328(4) 1.1984(3) 0.5226(2)
H10 H 1.6698 1.2333 0.4930
C22 C 1.4997(4) 1.1326(3) 0.5081(3)
H11 H 1.4477 1.1247 0.4691
C23 C 1.8465(4) 1.2840(3) 0.5985(3)
C24 C -0.1550(6) 0.6053(5) 0.2449(3)
H12 H -0.0615 0.6395 0.2451
C25 C -0.2488(6) 0.5958(6) 0.1920(3)
H13 H -0.2188 0.6247 0.1586
C26 C -0.3857(5) 0.5434(5) 0.1897(3)
C27 C -0.4215(5) 0.5052(5) 0.2398(3)
H14 H -0.5136 0.4689 0.2399
C28 C -0.3239(5) 0.5187(4) 0.2912(2)
H15 H -0.3530 0.4913 0.3254
C29 C -0.4929(6) 0.5320(6) 0.1348(3)
H16 H -0.5777 0.4864 0.1329
C30 C -0.4814(8) 0.5772(7) 0.0911(4)
H17 H -0.3953 0.6203 0.0902
C31 C -0.5979(10) 0.5654(9) 0.0406(4)
C32 C -0.5698(18) 0.6251(10) -0.0019(5)
H18 H -0.4836 0.6690 -0.0012
C33 C -0.7051(9) 0.6086(7) -0.0525(5)
H19 H -0.7039 0.6487 -0.0798
C34 C -0.8235(11) 0.5344(8) -0.0551(4)
C35 C -0.8334(11) 0.4709(15) -0.0174(5)
H20 H -0.9062 0.4169 -0.0236
C36 C -0.7199(11) 0.4967(11) 0.0322(4)
H21 H -0.7314 0.4610 0.0632
C37 C -0.9546(14) 0.5047(7) -0.1081(6)
Cu1A Cu 0.37353(6) 0.29995(4) 0.54186(3)
Cu2A Cu 0.04994(5) 0.40772(4) 0.63307(3)
Cu2A_2 Cu 2.04994(5) 1.40772(4) 0.63307(3)
Cu3A Cu -1.06656(8) 0.58657(6) -0.20136(4)
O5A O 0.7548(3) 0.6064(2) 0.44147(14)
O6A O -0.1483(3) 0.50213(18) 0.41696(14)
O9A O 0.0833(3) 0.7079(2) 0.34860(16)
O10A O 0.1076(3) 0.66022(19) 0.43670(14)
O12A O -0.0629(4) 0.4153(3) 0.13185(19)
loop_
_geom_bond_atom_site_label_1
_geom_bond_atom_site_label_2
_geom_bond_site_symmetry_1
_geom_bond_site_symmetry_2
Cu1 O2 1_555 1_555
Cu2 O3 1_555 1_555
Cu3 O4 1_555 1_555
O1 C1 1_555 1_555
O2 C1 1_555 1_555
O3 C4 1_555 1_555
O4 C4 1_555 1_555
O5 C7 1_555 1_555
O6 C7 1_555 1_555
O7 C9 1_555 1_555
O8 Cu1 1_555 1_555
O9 C23 1_555 1_555
O10 C23 1_555 1_555
O11 C37 1_555 1_555
O12 C37 1_555 1_555
O13 Cu3 1_555 1_555
O14 Cu3 1_555 1_555
O15 Cu3 1_555 1_555
N1 Cu1 1_555 1_555
N2 Cu1 1_555 1_555
N3 Cu2 1_555 1_555
C1 C2 1_555 1_555
C2 N1 1_555 1_555
C3 C2 1_555 1_555
C4 C3 1_555 1_555
C5 C3 1_555 1_555
H1 C5 1_555 1_555
C6 C5 1_555 1_555
C7 C6 1_555 1_555
C8 N1 1_555 1_555
C9 O8 1_555 1_555
C10 N2 1_555 1_555
H2 C10 1_555 1_555
C11 C10 1_555 1_555
H3 C11 1_555 1_555
C12 C11 1_555 1_555
C13 C12 1_555 1_555
H4 C13 1_555 1_555
C14 N2 1_555 1_555
H5 C14 1_555 1_555
C15 C12 1_555 1_555
H6 C15 1_555 1_555
C16 C15 1_555 1_555
H7 C16 1_555 1_555
C17 C16 1_555 1_555
C18 C17 1_555 1_555
H8 C18 1_555 1_555
C19 C18 1_555 1_555
H9 C19 1_555 1_555
C20 C19 1_555 1_555
C21 C20 1_555 1_555
H10 C21 1_555 1_555
C22 C17 1_555 1_555
H11 C22 1_555 1_555
C23 C20 1_555 1_555
C24 N3 1_555 1_555
H12 C24 1_555 1_555
C25 C24 1_555 1_555
H13 C25 1_555 1_555
C26 C25 1_555 1_555
C27 C26 1_555 1_555
H14 C27 1_555 1_555
C28 N3 1_555 1_555
H15 C28 1_555 1_555
C29 C26 1_555 1_555
H16 C29 1_555 1_555
C30 C29 1_555 1_555
H17 C30 1_555 1_555
C31 C30 1_555 1_555
C32 C31 1_555 1_555
H18 C32 1_555 1_555
C33 C32 1_555 1_555
H19 C33 1_555 1_555
C34 C33 1_555 1_555
C35 C34 1_555 1_555
H20 C35 1_555 1_555
C36 C31 1_555 1_555
H21 C36 1_555 1_555
C37 C34 1_555 1_555
Cu1A O5 1_555 1_555
Cu2A O6 1_555 1_555
Cu2A_2 O9 1_555 1_555
Cu3A O12 1_555 1_555
O5A Cu1 1_555 1_555
O6A Cu2 1_555 1_555
O9A Cu2 1_555 1_555
O10A Cu2 1_555 1_555
O12A Cu3 1_555 1_555
O10 Cu2A_2 1_555 1_555
C6 C8 1_555 1_555
C8 C9 1_555 1_555
C13 C14 1_555 1_555
C21 C22 1_555 1_555
C27 C28 1_555 1_555
C35 C36 1_555 1_555

#END
