
#######################################################################
#
#                 Cambridge Crystallographic Data Centre
#                                CCDC 
#
#######################################################################
#
# If this CIF has been generated from an entry in the Cambridge 
# Structural Database, then it will include bibliographic, chemical, 
# crystal, experimental, refinement or atomic coordinate data resulting 
# from the CCDC's data processing and validation procedures.
#
#######################################################################

data_AMUXAI
_symmetry_cell_setting           triclinic
_symmetry_space_group_name_H-M   'P -1'
_symmetry_Int_Tables_number      2
_space_group_name_Hall           '-P 1'
loop_
_symmetry_equiv_pos_site_id
_symmetry_equiv_pos_as_xyz
1 x,y,z
2 -x,-y,-z
_cell_length_a                   9.9506(7)
_cell_length_b                   15.6823(18)
_cell_length_c                   21.500(2)
_cell_angle_alpha                100.072(9)
_cell_angle_beta                 93.060(7)
_cell_angle_gamma                106.834(8)
_cell_volume                     3142.46
loop_
_atom_site_label
_atom_site_type_symbol
_atom_site_fract_x
_atom_site_fract_y
_atom_site_fract_z
Cu1 Cu -0.37635(12) -0.79975(9) 0.45602(8)
Cu2 Cu 1.05062(12) -0.08688(10) 0.63410(7)
Cu3 Cu -0.93454(18) -1.09959(15) 0.19724(9)
O1 O 0.8925(6) -0.1576(4) 0.5632(3)
O2 O 0.9163(6) -0.2052(5) 0.6517(4)
O3 O 2.0323(13) 0.0536(13) 1.1189(6)
O4 O 1.9362(18) -0.0970(13) 1.1303(8)
O5 O -0.6185(7) -0.8802(5) 0.2877(4)
O6 O -0.4360(6) -0.8084(4) 0.3654(3)
O7 O -0.8129(8) -1.0869(6) 0.2782(4)
O8 O -0.9453(7) -0.9999(5) 0.3125(3)
O9 O -0.8487(6) -0.9952(4) 0.5833(3)
O10 O -0.7564(6) -1.1055(4) 0.5573(3)
O11 O -0.5150(6) -0.8964(5) 0.6086(4)
O12 O -0.3884(5) -0.8065(4) 0.5468(3)
O13 O -0.7910(8) -0.9888(8) 0.1858(4)
O14 O -0.826(2) -1.1874(13) 0.1382(9)
N1 N -0.1937(8) -0.7013(6) 0.4659(5)
N2 N 1.1948(8) -0.0600(6) 0.7077(4)
N3 N -0.5553(7) -0.8935(5) 0.4480(4)
C1 C 0.8464(10) -0.2140(7) 0.5982(6)
C2 C 0.7083(10) -0.2863(7) 0.5795(6)
C3 C 0.6539(10) -0.3379(8) 0.6257(6)
H1 H 0.7025 -0.3275 0.6658
C4 C 0.5231(10) -0.4053(7) 0.6077(6)
H2 H 0.4866 -0.4425 0.6360
C5 C 0.4479(10) -0.4181(7) 0.5505(6)
C6 C 0.5021(10) -0.3666(7) 0.5074(6)
H3 H 0.4525 -0.3760 0.4677
C7 C 0.6343(9) -0.2989(7) 0.5238(6)
H4 H 0.6700 -0.2624 0.4951
C8 C 0.2187(10) -0.5167(7) 0.4846(7)
H5 H 0.2489 -0.4924 0.4495
C9 C 0.3073(11) -0.4889(7) 0.5383(7)
H6 H 0.2776 -0.5171 0.5719
C10 C -0.1419(10) -0.6667(7) 0.4183(6)
H7 H -0.1979 -0.6840 0.3794
C11 C -0.0094(10) -0.6063(7) 0.4222(6)
H8 H 0.0210 -0.5816 0.3872
C12 C 0.0769(9) -0.5829(7) 0.4772(6)
C13 C 0.0260(11) -0.6193(8) 0.5307(7)
H9 H 0.0817 -0.6036 0.5695
C14 C -0.1189(12) -0.6831(8) 0.5221(6)
H10 H -0.1565 -0.7098 0.5553
C15 C 1.9423(18) -0.038(3) 1.1068(12)
C16 C 1.8253(17) -0.0311(18) 1.0540(9)
C17 C 1.711(2) -0.1068(19) 1.0449(8)
H11 H 1.7056 -0.1516 1.0688
C18 C 1.590(3) -0.115(2) 0.9930(12)
H12 H 1.5066 -0.1635 0.9867
C19 C 1.610(2) -0.051(2) 0.9575(11)
C20 C 1.7285(18) 0.0204(16) 0.9670(8)
H13 H 1.7395 0.0638 0.9417
C21 C 1.8330(19) 0.0292(17) 1.0143(10)
H14 H 1.9137 0.0790 1.0196
C22 C 1.4885(16) -0.0643(15) 0.9076(9)
H15 H 1.4039 -0.1082 0.9098
C23 C 1.4928(13) -0.0218(14) 0.8647(7)
H16 H 1.5767 0.0246 0.8662
C24 C 1.1622(12) -0.0926(10) 0.7586(7)
H17 H 1.0675 -0.1244 0.7588
C25 C 1.2475(13) -0.0862(11) 0.8106(7)
H18 H 1.2164 -0.1153 0.8436
C26 C 1.3874(11) -0.0321(10) 0.8114(7)
C27 C 1.4243(12) 0.0064(10) 0.7610(6)
H19 H 1.5164 0.0428 0.7606
C28 C 1.3261(9) -0.0082(8) 0.7105(5)
H20 H 1.3531 0.0197 0.6765
C29 C -0.5603(10) -0.8691(7) 0.3427(7)
C30 C -0.6238(9) -0.9220(7) 0.3910(5)
C31 C -0.7522(8) -0.9946(6) 0.3827(5)
C32 C -0.8386(10) -1.0291(8) 0.3186(6)
C33 C -0.7960(9) -1.0290(7) 0.4332(5)
H21 H -0.8798 -1.0766 0.4277
C34 C -0.7783(8) -1.0348(6) 0.5506(5)
C35 C -0.7215(9) -0.9969(6) 0.4945(5)
C36 C -0.5935(8) -0.9224(6) 0.4988(5)
C37 C -0.4939(10) -0.8736(7) 0.5565(5)
N4 N -1.0864(15) -1.1998(10) 0.2163(6)
C38 C -1.197(2) -1.1705(16) 0.2395(11)
H22 H -1.1980 -1.1117 0.2388
C39 C -1.305(3) -1.229(3) 0.2638(18)
H23 H -1.3785 -1.2097 0.2793
C40 C -1.303(5) -1.317(3) 0.265(3)
H24 H -1.3749 -1.3566 0.2810
C41 C -1.192(5) -1.3465(17) 0.242(3)
H25 H -1.1909 -1.4054 0.2423
C42 C -1.084(3) -1.2877(14) 0.2173(17)
H26 H -1.0105 -1.3073 0.2018
C43 C -0.742(6) -1.236(4) 0.153(2)
H27 H -0.6850 -1.2035 0.1923
H28 H -0.8020 -1.2931 0.1601
C44 C -0.654(5) -1.255(3) 0.110(2)
H29 H -0.5976 -1.2876 0.1271
H30 H -0.5929 -1.1991 0.1017
H31 H -0.7081 -1.2911 0.0712
Cu1A Cu -0.62365(12) -1.20025(9) 0.54398(8)
Cu2A Cu -1.05062(12) -0.91312(10) 0.36590(7)
Cu2_2 Cu -0.94938(12) -1.08688(10) 0.63410(7)
Cu3_2 Cu 2.06546(18) -0.09959(15) 1.19724(9)
O4_2 O -1.0638(18) -1.0970(13) 0.1303(8)
O8A O 0.9453(7) -0.0001(5) 0.6875(3)
O9_2 O 1.1513(6) 0.0048(4) 0.5833(3)
O10A O -0.2436(6) -0.8945(4) 0.4427(3)
loop_
_geom_bond_atom_site_label_1
_geom_bond_atom_site_label_2
_geom_bond_site_symmetry_1
_geom_bond_site_symmetry_2
Cu1 O6 1_555 1_555
Cu2 O1 1_555 1_555
Cu3 O7 1_555 1_555
O1 C1 1_555 1_555
O2 Cu2 1_555 1_555
O3 C15 1_555 1_555
O4 C15 1_555 1_555
O5 C29 1_555 1_555
O6 C29 1_555 1_555
O7 C32 1_555 1_555
O8 C32 1_555 1_555
O9 C34 1_555 1_555
O10 C34 1_555 1_555
O11 C37 1_555 1_555
O12 Cu1 1_555 1_555
O13 Cu3 1_555 1_555
O14 Cu3 1_555 1_555
N1 Cu1 1_555 1_555
N2 Cu2 1_555 1_555
N3 Cu1 1_555 1_555
C1 O2 1_555 1_555
C2 C1 1_555 1_555
C3 C2 1_555 1_555
H1 C3 1_555 1_555
C4 C3 1_555 1_555
H2 C4 1_555 1_555
C5 C4 1_555 1_555
C6 C5 1_555 1_555
H3 C6 1_555 1_555
C7 C2 1_555 1_555
H4 C7 1_555 1_555
C8 H5 1_555 1_555
C9 C5 1_555 1_555
H6 C9 1_555 1_555
C10 N1 1_555 1_555
H7 C10 1_555 1_555
C11 C10 1_555 1_555
H8 C11 1_555 1_555
C12 C8 1_555 1_555
C13 C12 1_555 1_555
H9 C13 1_555 1_555
C14 N1 1_555 1_555
H10 C14 1_555 1_555
C15 C16 1_555 1_555
C16 C17 1_555 1_555
C17 H11 1_555 1_555
C18 C17 1_555 1_555
H12 C18 1_555 1_555
C19 C18 1_555 1_555
C20 C19 1_555 1_555
H13 C20 1_555 1_555
C21 C16 1_555 1_555
H14 C21 1_555 1_555
C22 C19 1_555 1_555
H15 C22 1_555 1_555
C23 C22 1_555 1_555
H16 C23 1_555 1_555
C24 N2 1_555 1_555
H17 C24 1_555 1_555
C25 C24 1_555 1_555
H18 C25 1_555 1_555
C26 C23 1_555 1_555
C27 C26 1_555 1_555
H19 C27 1_555 1_555
C28 N2 1_555 1_555
H20 C28 1_555 1_555
C29 C30 1_555 1_555
C30 N3 1_555 1_555
C31 C30 1_555 1_555
C32 C31 1_555 1_555
C33 C31 1_555 1_555
H21 C33 1_555 1_555
C34 C35 1_555 1_555
C35 C33 1_555 1_555
C36 N3 1_555 1_555
C37 O12 1_555 1_555
N4 Cu3 1_555 1_555
C38 N4 1_555 1_555
H22 C38 1_555 1_555
C39 C38 1_555 1_555
H23 C39 1_555 1_555
C40 C39 1_555 1_555
H24 C40 1_555 1_555
C41 C40 1_555 1_555
H25 C41 1_555 1_555
C42 N4 1_555 1_555
H26 C42 1_555 1_555
C43 O14 1_555 1_555
H27 C43 1_555 1_555
H28 C43 1_555 1_555
C44 C43 1_555 1_555
H29 C44 1_555 1_555
H30 C44 1_555 1_555
H31 C44 1_555 1_555
Cu1A O10 1_555 1_555
Cu2A O8 1_555 1_555
Cu2_2 O9 1_555 1_555
Cu3_2 O4 1_555 1_555
O4_2 Cu3 1_555 1_555
O8A Cu2 1_555 1_555
O9_2 Cu2 1_555 1_555
O10A Cu1 1_555 1_555
C6 C7 1_555 1_555
C8 C9 1_555 1_555
C11 C12 1_555 1_555
C13 C14 1_555 1_555
C20 C21 1_555 1_555
C25 C26 1_555 1_555
C27 C28 1_555 1_555
C35 C36 1_555 1_555
C36 C37 1_555 1_555
C41 C42 1_555 1_555

#END
