
#######################################################################
#
#                 Cambridge Crystallographic Data Centre
#                                CCDC 
#
#######################################################################
#
# If this CIF has been generated from an entry in the Cambridge 
# Structural Database, then it will include bibliographic, chemical, 
# crystal, experimental, refinement or atomic coordinate data resulting 
# from the CCDC's data processing and validation procedures.
#
#######################################################################

data_AQEFOS
_symmetry_cell_setting           triclinic
_symmetry_space_group_name_H-M   'P -1'
_symmetry_Int_Tables_number      2
_space_group_name_Hall           '-P 1'
loop_
_symmetry_equiv_pos_site_id
_symmetry_equiv_pos_as_xyz
1 x,y,z
2 -x,-y,-z
_cell_length_a                   11.6910(6)
_cell_length_b                   13.4920(8)
_cell_length_c                   20.6150(12)
_cell_angle_alpha                89.274(5)
_cell_angle_beta                 76.749(5)
_cell_angle_gamma                66.93
_cell_volume                     2901.18
loop_
_atom_site_label
_atom_site_type_symbol
_atom_site_fract_x
_atom_site_fract_y
_atom_site_fract_z
Cu1 Cu -0.4697(3) 0.1911(2) 0.37319(13)
Cl1 Cl -0.3820(5) 0.1402(4) 0.2690(2)
Cu2 Cu -0.4877(2) 0.3125(2) 0.21833(12)
Cu3 Cu 0.2905(2) -0.1464(2) 0.10913(12)
Cu4 Cu -0.3173(3) -0.0612(2) 0.26475(15)
Cu5 Cu -0.1283(2) 0.5212(2) 0.34411(14)
N1 N -0.5794(15) 0.2700(15) 0.4556(8)
N2 N -0.2283(14) 0.4538(12) 0.3046(8)
N3 N -0.6744(14) 0.3771(13) 0.2677(7)
N4 N -0.1352(17) -0.1090(17) 0.2155(9)
N5 N -0.3702(14) 0.1899(12) -0.0148(7)
N6 N -0.2509(15) 0.6167(14) 0.4242(8)
N7 N 0.1158(14) -0.1422(13) 0.1503(7)
N8 N -0.4503(14) 0.2604(12) 0.1215(7)
N9 N -0.6189(14) -0.1171(12) 0.1735(7)
N10 N -0.3755(14) 0.3762(12) 0.2498(7)
N11 N 0.0561(14) 0.4651(13) 0.3221(8)
N12 N -0.4613(15) -0.0823(14) 0.2437(7)
C1 C -0.2483(17) 0.3206(14) 0.2394(10)
H1 H -0.2078 0.2558 0.2125
C2 C -0.1758(17) 0.3604(14) 0.2693(8)
H2 H -0.0887 0.3192 0.2638
C3 C -0.266(3) 0.572(2) 0.4832(12)
H3 H -0.2158 0.4991 0.4830
C4 C -0.591(2) 0.2220(17) 0.5152(11)
H4 H -0.5425 0.1486 0.5159
C5 C -0.329(2) 0.7201(18) 0.4278(11)
H5 H -0.3274 0.7549 0.3886
C6 C -0.0362(16) -0.1709(14) 0.2369(10)
H6 H -0.0491 -0.2056 0.2754
C7 C -0.4295(18) 0.2981(17) 0.0088(10)
H7 H -0.4413 0.3506 -0.0215
C8 C -0.106(3) -0.065(2) 0.1589(11)
H8 H -0.1730 -0.0171 0.1426
C9 C -0.7374(17) 0.3190(16) 0.3027(9)
H9 H -0.6900 0.2479 0.3098
C10 C -0.404(2) 0.1559(15) 0.1014(9)
H10 H -0.4005 0.1055 0.1329
C11 C 0.0902(16) -0.1868(13) 0.2030(9)
H11 H 0.1576 -0.2320 0.2202
C12 C -0.4228(17) 0.4719(14) 0.2834(10)
H12 H -0.5085 0.5164 0.2873
C13 C 0.0175(19) -0.0857(19) 0.1232(10)
H13 H 0.0325 -0.0611 0.0810
C14 C -0.5482(18) -0.002(2) 0.2203(9)
H14 H -0.5563 0.0686 0.2288
C15 C -0.3526(18) 0.5080(14) 0.3123(10)
H15 H -0.3932 0.5735 0.3386
C16 C 0.1240(18) 0.5217(17) 0.2877(12)
H16 H 0.0788 0.5931 0.2802
C17 C -0.4584(18) -0.1796(18) 0.2332(10)
H17 H -0.4004 -0.2386 0.2486
C18 C -0.7497(15) 0.4789(16) 0.2649(10)
H18 H -0.7112 0.5242 0.2453
C19 C -0.4718(18) 0.3298(15) 0.0770(9)
H19 H -0.5167 0.4029 0.0911
C20 C -0.6258(19) -0.0180(16) 0.1844(10)
H20 H -0.6829 0.0402 0.1678
C21 C -0.362(2) 0.1225(18) 0.0348(9)
H21 H -0.3249 0.0485 0.0227
C22 C 0.1338(19) 0.3608(17) 0.3275(9)
H22 H 0.0965 0.3162 0.3494
C23 C -0.5412(18) -0.1951(17) 0.1993(9)
H23 H -0.5407 -0.2638 0.1951
C24 C -0.655(3) 0.377(2) 0.4574(12)
H24 H -0.6515 0.4140 0.4191
Cu1A Cu -0.5303(3) 0.8089(2) 0.62681(13)
Cl1A Cl -0.6180(5) 0.8598(4) 0.7310(2)
Cu2_2 Cu 0.5123(2) 0.3125(2) 0.21833(12)
Cu2A Cu -0.5123(2) 0.6875(2) 0.78167(12)
Cu2A_2 Cu -0.5123(2) -0.3125(2) -0.21833(12)
Cu3A Cu -0.2905(2) 0.1464(2) -0.10913(12)
Cu3_2 Cu -0.7095(2) -0.1464(2) 0.10913(12)
Cu3A_2 Cu -0.2905(2) 1.1464(2) 0.89087(12)
Cu3_3 Cu -0.7095(2) 0.8536(2) 1.10913(12)
Cu4A Cu -0.6827(3) 1.0612(2) 0.73525(15)
Cu4_2 Cu -1.3173(3) -0.0612(2) 0.26475(15)
Cu5A Cu -0.8717(2) 0.4788(2) 0.65589(14)
Cu5_2 Cu -1.1283(2) 0.5212(2) 0.34411(14)
N1A N -0.4206(15) 0.7300(15) 0.5444(8)
N2A N -0.7717(14) 0.5462(12) 0.6954(8)
N3_2 N 0.3256(14) 0.3771(13) 0.2677(7)
N3A N -0.3256(14) 0.6229(13) 0.7323(7)
N4A N -0.8648(17) 1.1090(17) 0.7845(9)
N4_2 N -1.1352(17) -0.1090(17) 0.2155(9)
N5A N 0.3702(14) -0.1899(12) 0.0148(7)
N5A_2 N -0.6298(14) -0.1899(12) 0.0148(7)
N5A_3 N -0.6298(14) 0.8101(12) 1.0148(7)
N6A N -0.7491(15) 0.3833(14) 0.5758(8)
N7_2 N -0.8842(14) -0.1422(13) 0.1503(7)
N8A N -0.5497(14) 0.7396(12) 0.8785(7)
N8A_2 N -0.5497(14) -0.2604(12) -0.1215(7)
N9_2 N 0.3811(14) -0.1171(12) 0.1735(7)
N9A N -0.3811(14) 1.1171(12) 0.8265(7)
N10A N -0.6245(14) 0.6238(12) 0.7502(7)
N11_2 N -0.9439(14) 0.4651(13) 0.3221(8)
N11A N -1.0561(14) 0.5349(13) 0.6779(8)
N12A N -0.5387(15) 1.0823(14) 0.7563(7)
C3A C -0.734(3) 0.428(2) 0.5168(12)
H3A H -0.7842 0.5009 0.5170
C4A C -0.409(2) 0.7780(17) 0.4848(11)
H4A H -0.4575 0.8514 0.4841
C5A C -0.671(2) 0.2799(18) 0.5722(11)
H5A H -0.6726 0.2451 0.6114
C6_2 C -1.0362(16) -0.1709(14) 0.2369(10)
H6_2 H -1.0491 -0.2056 0.2754
C7A C -0.5705(18) -0.2981(17) -0.0088(10)
C7A_2 C -0.5705(18) 0.7019(17) 0.9912(10)
H7A H -0.5587 -0.3506 0.0215
H7A_2 H -0.5587 0.6494 1.0215
C8_2 C -1.106(3) -0.065(2) 0.1589(11)
H8_2 H -1.1730 -0.0171 0.1426
C9_2 C 0.2626(17) 0.3190(16) 0.3027(9)
H9_2 H 0.3100 0.2479 0.3098
C10A C -0.596(2) -0.1559(15) -0.1014(9)
C10A_2 C -0.596(2) 0.8441(15) 0.8986(9)
H10A H -0.5995 -0.1055 -0.1329
H10A_2 H -0.5995 0.8945 0.8671
C11_2 C -0.9098(16) -0.1868(13) 0.2030(9)
H11_2 H -0.8424 -0.2320 0.2202
C13_2 C -0.9825(19) -0.0857(19) 0.1232(10)
H13_2 H -0.9675 -0.0611 0.0810
C14A C -0.4518(18) 1.002(2) 0.7797(9)
H14A H -0.4437 0.9314 0.7712
C16_2 C -0.8760(18) 0.5217(17) 0.2877(12)
H16_2 H -0.9212 0.5931 0.2802
C17A C -0.5416(18) 1.1796(18) 0.7668(10)
H17A H -0.5996 1.2386 0.7514
C18_2 C 0.2503(15) 0.4789(16) 0.2649(10)
H18_2 H 0.2888 0.5242 0.2453
C19A C -0.5282(18) -0.3298(15) -0.0770(9)
C19A_2 C -0.5282(18) 0.6702(15) 0.9230(9)
H19A H -0.4833 -0.4029 -0.0911
H19A_2 H -0.4833 0.5971 0.9089
C20A C -0.3742(19) 1.0180(16) 0.8156(10)
H20A H -0.3171 0.9598 0.8322
C21A C -0.638(2) -0.1225(18) -0.0348(9)
C21A_2 C -0.638(2) 0.8775(18) 0.9652(9)
H21A H -0.6751 -0.0485 -0.0227
H21A_2 H -0.6751 0.9515 0.9773
C22_2 C -0.8662(19) 0.3608(17) 0.3275(9)
H22_2 H -0.9035 0.3162 0.3494
C23A C -0.4588(18) 1.1951(17) 0.8007(9)
H23A H -0.4593 1.2638 0.8049
C24A C -0.345(3) 0.623(2) 0.5426(12)
H24A H -0.3485 0.5860 0.5809
Mo7 Mo -1.06540(12) 0.26606(10) 1.04261(6)
Mo8 Mo -0.86039(13) 0.33433(11) 1.12122(7)
Mo9 Mo -0.75419(13) 0.23516(10) 0.94893(7)
Mo10 Mo -0.79836(12) 0.56863(12) 1.07856(7)
Mo11 Mo -0.69111(12) 0.46978(12) 0.90724(6)
Mo12 Mo -0.89315(13) 0.40154(11) 0.82845(6)
P2 P -1.0000 0.5000 1.0000
O23 O -0.949(2) 0.3844(18) 1.0215(11)
O24 O -0.8818(18) 0.4316(17) 0.9474(10)
O25 O -0.951(2) 0.4945(17) 1.0667(11)
O26 O -1.0995(19) 0.4518(17) 1.0102(10)
O27 O -1.0017(15) 0.4513(13) 1.1758(9)
O28 O -0.8093(17) 0.2729(14) 0.8695(9)
O29 O -0.7619(16) 0.4425(14) 0.8371(8)
O30 O -0.6800(15) 0.5005(14) 0.9952(8)
O31 O -0.5505(11) 0.4556(10) 0.8611(6)
O32 O -0.8431(13) 0.3568(11) 0.7475(6)
O33 O -1.0951(17) 0.1583(14) 1.0641(8)
O34 O -0.7978(15) 0.2578(14) 1.1778(8)
O35 O -0.7727(17) 0.4285(14) 1.1071(10)
O36 O -1.1342(15) 0.3051(14) 0.9677(8)
O37 O -1.2151(15) 0.3758(13) 1.0936(7)
O38 O -0.9555(16) 0.6228(12) 1.1451(9)
O39 O -0.6585(18) 0.3246(15) 0.9280(9)
O40 O -0.9005(13) 0.2023(14) 0.9821(7)
O41 O -0.7480(14) 0.2524(13) 1.0397(7)
O42 O -0.9806(14) 0.2780(13) 1.1091(7)
O43 O -0.6409(15) 0.1128(13) 0.9236(8)
O44 O -0.7053(12) 0.6021(11) 1.1168(7)
Mo7A Mo -0.93460(12) 0.73394(10) 0.95739(6)
Mo8A Mo -1.13961(13) 0.66567(11) 0.87878(7)
Mo9A Mo -1.24581(13) 0.76484(10) 1.05107(7)
Mo10A Mo -1.20164(12) 0.43137(12) 0.92144(7)
Mo11A Mo -1.30889(12) 0.53022(12) 1.09276(6)
Mo12A Mo -1.10685(13) 0.59846(11) 1.17155(6)
O23A O -1.051(2) 0.6156(18) 0.9785(11)
O24A O -1.1182(18) 0.5684(17) 1.0526(10)
O25A O -1.049(2) 0.5055(17) 0.9333(11)
O26A O -0.9005(19) 0.5482(17) 0.9898(10)
O27A O -0.9983(15) 0.5487(13) 0.8242(9)
O28A O -1.1907(17) 0.7271(14) 1.1305(9)
O29A O -1.2381(16) 0.5575(14) 1.1629(8)
O30A O -1.3200(15) 0.4995(14) 1.0048(8)
O31A O -1.4495(11) 0.5444(10) 1.1389(6)
O32A O -1.1569(13) 0.6432(11) 1.2525(6)
O33A O -0.9049(17) 0.8417(14) 0.9359(8)
O34A O -1.2022(15) 0.7422(14) 0.8222(8)
O35A O -1.2273(17) 0.5715(14) 0.8929(10)
O36A O -0.8658(15) 0.6949(14) 1.0323(8)
O37A O -0.7849(15) 0.6242(13) 0.9064(7)
O38A O -1.0445(16) 0.3772(12) 0.8549(9)
O39A O -1.3415(18) 0.6754(15) 1.0720(9)
O40A O -1.0995(13) 0.7977(14) 1.0179(7)
O41A O -1.2520(14) 0.7476(13) 0.9603(7)
O42A O -1.0194(14) 0.7220(13) 0.8909(7)
O43A O -1.3591(15) 0.8872(13) 1.0764(8)
O44A O -1.2947(12) 0.3979(11) 0.8832(7)
Mo1 Mo 0.00318(14) -0.26313(10) 0.47230(7)
Mo2 Mo -0.26416(12) -0.05947(11) 0.58372(7)
Mo3 Mo -0.20638(12) -0.03412(11) 0.40969(6)
Mo4 Mo -0.22635(12) 0.23151(9) 0.44623(6)
Mo5 Mo -0.04307(12) -0.04607(10) 0.67253(6)
Mo6 Mo -0.25640(12) 0.19599(10) 0.61967(6)
P1 P 0.0000 0.0000 0.5000
O1 O -0.087(2) -0.0654(17) 0.4928(10)
O2 O -0.0971(19) 0.0171(16) 0.5673(10)
O3 O -0.1439(17) -0.2027(14) 0.5432(8)
O4 O -0.3804(15) 0.2867(14) 0.6744(8)
O5 O -0.0809(15) -0.0167(14) 0.3413(9)
O6 O -0.0566(15) -0.0673(12) 0.7533(7)
O7 O -0.3839(12) -0.0917(10) 0.6229(6)
O8 O -0.281(2) -0.018(2) 0.5038(13)
O9 O -0.1644(14) -0.0873(11) 0.6495(8)
O10 O 0.1422(16) -0.2616(15) 0.3975(8)
O11 O -0.1030(16) -0.1810(15) 0.4134(8)
O12 O -0.0928(13) 0.1790(12) 0.3651(8)
O13 O -0.1627(16) 0.1006(14) 0.6751(9)
O14 O -0.3307(17) 0.0895(14) 0.6100(10)
O15 O -0.0648(19) 0.0461(17) 0.4447(10)
O16 O 0.1176(14) -0.2911(13) 0.5278(7)
O17 O -0.3046(17) 0.2378(16) 0.5375(8)
O18 O -0.2814(14) 0.1232(12) 0.4265(8)
O19 O -0.3046(12) -0.0512(11) 0.3660(7)
O20 O 0.0093(15) -0.3863(12) 0.4575(8)
O21 O -0.3302(15) 0.3378(13) 0.4203(9)
O22 O 0.092(2) -0.118(2) 0.4822(12)
Mo1A Mo -0.00318(14) 0.26313(10) 0.52770(7)
Mo2A Mo 0.26416(12) 0.05947(11) 0.41628(7)
Mo3A Mo 0.20638(12) 0.03412(11) 0.59031(6)
Mo4A Mo 0.22635(12) -0.23151(9) 0.55377(6)
Mo5A Mo 0.04307(12) 0.04607(10) 0.32747(6)
Mo6A Mo 0.25640(12) -0.19599(10) 0.38033(6)
O1A O 0.087(2) 0.0654(17) 0.5072(10)
O2A O 0.0971(19) -0.0171(16) 0.4327(10)
O3A O 0.1439(17) 0.2027(14) 0.4568(8)
O4A O 0.3804(15) -0.2867(14) 0.3256(8)
O5A O 0.0809(15) 0.0167(14) 0.6587(9)
O6A O 0.0566(15) 0.0673(12) 0.2467(7)
O7A O 0.3839(12) 0.0917(10) 0.3771(6)
O8A O 0.281(2) 0.018(2) 0.4962(13)
O9A O 0.1644(14) 0.0873(11) 0.3505(8)
O10A O -0.1422(16) 0.2616(15) 0.6025(8)
O11A O 0.1030(16) 0.1810(15) 0.5866(8)
O12A O 0.0928(13) -0.1790(12) 0.6349(8)
O13A O 0.1627(16) -0.1006(14) 0.3249(9)
O14A O 0.3307(17) -0.0895(14) 0.3900(10)
O15A O 0.0648(19) -0.0461(17) 0.5553(10)
O16A O -0.1176(14) 0.2911(13) 0.4722(7)
O17A O 0.3046(17) -0.2378(16) 0.4625(8)
O18A O 0.2814(14) -0.1232(12) 0.5735(8)
O19A O 0.3046(12) 0.0512(11) 0.6340(7)
O20A O -0.0093(15) 0.3863(12) 0.5425(8)
O21A O 0.3302(15) -0.3378(13) 0.5797(9)
O22A O -0.092(2) 0.118(2) 0.5178(12)
O45? O -0.316(2) -0.049(2) 0.4967(12)
loop_
_geom_bond_atom_site_label_1
_geom_bond_atom_site_label_2
_geom_bond_site_symmetry_1
_geom_bond_site_symmetry_2
Mo1 O1 1_555 1_555
Mo2 O1 1_555 1_555
Mo3 O1 1_555 1_555
Mo4 O12 1_555 1_555
Mo5 O2 1_555 1_555
Mo6 O2 1_555 1_555
P1 O1 1_555 1_555
O2 Mo2 1_555 1_555
O3 Mo1 1_555 1_555
O4 Mo6 1_555 1_555
O5 Mo3 1_555 1_555
O6 Mo5 1_555 1_555
O7 Mo2 1_555 1_555
O8 Mo2 1_555 1_555
O9 Mo2 1_555 1_555
O10 Mo1 1_555 1_555
O11 Mo1 1_555 1_555
O12 Mo5A 1_555 1_555
O13 Mo5 1_555 1_555
O14 Mo2 1_555 1_555
O15 Mo3 1_555 1_555
O16 Mo1 1_555 1_555
O17 Mo4 1_555 1_555
O18 Mo3 1_555 1_555
O19 Mo3 1_555 1_555
O20 Mo1 1_555 1_555
O21 Mo4 1_555 1_555
O22 Mo1 1_555 1_555
Cu1 Cl1 1_555 1_555
Cl1 Cu2 1_555 1_555
Cu2 N3 1_555 1_555
Cu3 N7 1_555 1_555
Cu4 Cl1 1_555 1_555
Cu5 N2 1_555 1_555
N1 Cu1 1_555 1_555
N2 C2 1_555 1_555
N3 C9 1_555 1_555
N4 Cu4 1_555 1_555
N5 C7 1_555 1_555
N6 Cu5 1_555 1_555
N7 C11 1_555 1_555
N8 Cu2 1_555 1_555
N9 C20 1_555 1_555
N10 Cu2 1_555 1_555
N11 Cu5 1_555 1_555
N12 Cu4 1_555 1_555
C1 N10 1_555 1_555
H1 C1 1_555 1_555
C2 C1 1_555 1_555
H2 C2 1_555 1_555
C3 N6 1_555 1_555
H3 C3 1_555 1_555
C4 N1 1_555 1_555
H4 C4 1_555 1_555
C5 N6 1_555 1_555
H5 C5 1_555 1_555
C6 N4 1_555 1_555
H6 C6 1_555 1_555
C7 H7 1_555 1_555
C8 N4 1_555 1_555
H8 C8 1_555 1_555
C9 H9 1_555 1_555
C10 N8 1_555 1_555
H10 C10 1_555 1_555
C11 C6 1_555 1_555
H11 C11 1_555 1_555
C12 N10 1_555 1_555
H12 C12 1_555 1_555
C13 N7 1_555 1_555
H13 C13 1_555 1_555
C14 N12 1_555 1_555
H14 C14 1_555 1_555
C15 N2 1_555 1_555
H15 C15 1_555 1_555
C16 N11 1_555 1_555
H16 C16 1_555 1_555
C17 N12 1_555 1_555
H17 C17 1_555 1_555
C18 N3 1_555 1_555
H18 C18 1_555 1_555
C19 N8 1_555 1_555
H19 C19 1_555 1_555
C20 C14 1_555 1_555
H20 C20 1_555 1_555
C21 N5 1_555 1_555
H21 C21 1_555 1_555
C22 N11 1_555 1_555
H22 C22 1_555 1_555
C23 N9 1_555 1_555
H23 C23 1_555 1_555
C24 N1 1_555 1_555
H24 C24 1_555 1_555
Mo7 O23 1_555 1_555
Mo8 O23 1_555 1_555
Mo9 O23 1_555 1_555
Mo10 O25 1_555 1_555
Mo11 O24 1_555 1_555
Mo12 O24 1_555 1_555
P2 O23 1_555 1_555
O23 O24 1_555 1_555
O24 Mo9 1_555 1_555
O25 Mo8 1_555 1_555
O26 Mo7 1_555 1_555
O27 Mo8 1_555 1_555
O28 Mo9 1_555 1_555
O29 Mo11 1_555 1_555
O30 Mo10 1_555 1_555
O31 Mo11 1_555 1_555
O32 Mo12 1_555 1_555
O33 Mo7 1_555 1_555
O34 Mo8 1_555 1_555
O35 Mo8 1_555 1_555
O36 Mo7 1_555 1_555
O37 Mo7 1_555 1_555
O38 Mo10 1_555 1_555
O39 Mo9 1_555 1_555
O40 Mo7 1_555 1_555
O41 Mo8 1_555 1_555
O42 Mo7 1_555 1_555
O43 Mo9 1_555 1_555
O44 Mo10 1_555 1_555
Mo1A O1A 1_555 1_555
Mo2A O1A 1_555 1_555
Mo3A O1A 1_555 1_555
Mo4A O16 1_555 1_555
Mo5A O5 1_555 1_555
Mo6A O10 1_555 1_555
O1A P1 1_555 1_555
O2A P1 1_555 1_555
O3A Mo1A 1_555 1_555
O4A Mo6A 1_555 1_555
O5A Mo5 1_555 1_555
O6A Mo5A 1_555 1_555
O7A Mo2A 1_555 1_555
O8A Mo2A 1_555 1_555
O9A Mo2A 1_555 1_555
O10A Mo6 1_555 1_555
O11A Mo1A 1_555 1_555
O12A Mo5 1_555 1_555
O13A Mo5A 1_555 1_555
O14A Mo2A 1_555 1_555
O15A Mo5 1_555 1_555
O16A Mo4 1_555 1_555
O17A Mo4A 1_555 1_555
O18A Mo3A 1_555 1_555
O19A Mo3A 1_555 1_555
O20A Mo1A 1_555 1_555
O21A Mo4A 1_555 1_555
O22A Mo4 1_555 1_555
Cu1A Cl1A 1_555 1_555
Cl1A Cu2A 1_555 1_555
Cu2_2 N3_2 1_555 1_555
Cu2A N3A 1_555 1_555
Cu2A_2 N8A_2 1_555 1_555
Cu3A N5 1_555 1_555
Cu3_2 N9 1_555 1_555
Cu3A_2 N9A 1_555 1_555
Cu3_3 N5A_3 1_555 1_555
Cu4A Cl1A 1_555 1_555
Cu4_2 N4_2 1_555 1_555
Cu5A N2A 1_555 1_555
Cu5_2 N11_2 1_555 1_555
N1A Cu1A 1_555 1_555
N3_2 C9_2 1_555 1_555
N4A Cu4A 1_555 1_555
N4_2 C6_2 1_555 1_555
N5A Cu3 1_555 1_555
N5A_2 Cu3_2 1_555 1_555
N5A_3 C7A_2 1_555 1_555
N6A Cu5A 1_555 1_555
N7_2 Cu3_2 1_555 1_555
N8A Cu2A 1_555 1_555
N8A_2 C10A 1_555 1_555
N9_2 Cu3 1_555 1_555
N9A C20A 1_555 1_555
N10A Cu2A 1_555 1_555
N11_2 C16_2 1_555 1_555
N11A Cu5A 1_555 1_555
N12A Cu4A 1_555 1_555
C3A C24 1_555 1_555
H3A C3A 1_555 1_555
C4A C5 1_555 1_555
H4A C4A 1_555 1_555
C5A C4 1_555 1_555
H5A C5A 1_555 1_555
C6_2 H6_2 1_555 1_555
C7A N5A_2 1_555 1_555
C7A_2 H7A_2 1_555 1_555
H7A C7A 1_555 1_555
C8_2 N4_2 1_555 1_555
H8_2 C8_2 1_555 1_555
C9_2 C22 1_555 1_555
H9_2 C9_2 1_555 1_555
C10A H10A 1_555 1_555
C10A_2 N8A 1_555 1_555
H10A_2 C10A_2 1_555 1_555
C11_2 N7_2 1_555 1_555
H11_2 C11_2 1_555 1_555
C13_2 N7_2 1_555 1_555
H13_2 C13_2 1_555 1_555
C14A N12A 1_555 1_555
H14A C14A 1_555 1_555
C16_2 C18 1_555 1_555
H16_2 C16_2 1_555 1_555
C17A N12A 1_555 1_555
H17A C17A 1_555 1_555
C18_2 C16 1_555 1_555
H18_2 C18_2 1_555 1_555
C19A N8A_2 1_555 1_555
C19A_2 N8A 1_555 1_555
H19A C19A 1_555 1_555
H19A_2 C19A_2 1_555 1_555
C20A C14A 1_555 1_555
H20A C20A 1_555 1_555
C21A N5A_2 1_555 1_555
C21A_2 N5A_3 1_555 1_555
H21A C21A 1_555 1_555
H21A_2 C21A_2 1_555 1_555
C22_2 C9 1_555 1_555
H22_2 C22_2 1_555 1_555
C23A N9A 1_555 1_555
H23A C23A 1_555 1_555
C24A C3 1_555 1_555
H24A C24A 1_555 1_555
Mo7A O23A 1_555 1_555
Mo8A O23A 1_555 1_555
Mo9A O23A 1_555 1_555
Mo10A O26 1_555 1_555
Mo11A O26 1_555 1_555
Mo12A O25 1_555 1_555
O23A P2 1_555 1_555
O24A P2 1_555 1_555
O25A Mo12 1_555 1_555
O26A Mo10 1_555 1_555
O27A Mo12 1_555 1_555
O28A Mo9A 1_555 1_555
O29A Mo11A 1_555 1_555
O30A Mo10A 1_555 1_555
O31A Mo11A 1_555 1_555
O32A Mo12A 1_555 1_555
O33A Mo7A 1_555 1_555
O34A Mo8A 1_555 1_555
O35A Mo8A 1_555 1_555
O36A Mo10 1_555 1_555
O37A Mo11 1_555 1_555
O38A Mo12 1_555 1_555
O39A Mo9A 1_555 1_555
O40A Mo7A 1_555 1_555
O41A Mo8A 1_555 1_555
O42A Mo7A 1_555 1_555
O43A Mo9A 1_555 1_555
O44A Mo10A 1_555 1_555
Mo2 O3 1_555 1_555
Mo3 O8 1_555 1_555
Mo3 O11 1_555 1_555
Mo4 O15 1_555 1_555
Mo4 O18 1_555 1_555
Mo5 O9 1_555 1_555
Mo6 O13 1_555 1_555
Mo6 O14 1_555 1_555
Mo6 O17 1_555 1_555
Mo6 O22A 1_555 1_555
P1 O2 1_555 1_555
P1 O15 1_555 1_555
P1 O22 1_555 1_555
P1 O15A 1_555 1_555
P1 O22A 1_555 1_555
O2 O15A 1_555 1_555
O2 O22A 1_555 1_555
O15 Mo5A 1_555 1_555
O15 O2A 1_555 1_555
O15 O22A 1_555 1_555
O22 Mo4A 1_555 1_555
O22 Mo6A 1_555 1_555
O22 O2A 1_555 1_555
O22 O15A 1_555 1_555
C7 C19 1_555 1_555
C8 C13 1_555 1_555
C10 C21 1_555 1_555
C12 C15 1_555 1_555
C17 C23 1_555 1_555
Mo8 O42 1_555 1_555
Mo9 O40 1_555 1_555
Mo9 O41 1_555 1_555
Mo10 O35 1_555 1_555
Mo11 O30 1_555 1_555
Mo11 O39 1_555 1_555
Mo11 O26A 1_555 1_555
Mo12 O28 1_555 1_555
Mo12 O29 1_555 1_555
P2 O24 1_555 1_555
P2 O25 1_555 1_555
P2 O26 1_555 1_555
P2 O25A 1_555 1_555
P2 O26A 1_555 1_555
O23 O25 1_555 1_555
O23 O26 1_555 1_555
O24 O26A 1_555 1_555
O25 O26A 1_555 1_555
O26 O24A 1_555 1_555
O26 O25A 1_555 1_555
O27 Mo12A 1_555 1_555
O36 Mo10A 1_555 1_555
O37 Mo11A 1_555 1_555
O38 Mo12A 1_555 1_555
Mo1A O10A 1_555 1_555
Mo1A O16A 1_555 1_555
Mo1A O22A 1_555 1_555
Mo2A O2A 1_555 1_555
Mo2A O3A 1_555 1_555
Mo3A O5A 1_555 1_555
Mo3A O8A 1_555 1_555
Mo3A O11A 1_555 1_555
Mo3A O15A 1_555 1_555
Mo4A O12A 1_555 1_555
Mo4A O15A 1_555 1_555
Mo4A O18A 1_555 1_555
Mo5A O2A 1_555 1_555
Mo5A O9A 1_555 1_555
Mo6A O2A 1_555 1_555
Mo6A O13A 1_555 1_555
Mo6A O14A 1_555 1_555
Mo6A O17A 1_555 1_555
N1A C4A 1_555 1_555
N1A C24A 1_555 1_555
N3_2 C18_2 1_555 1_555
N6A C3A 1_555 1_555
N6A C5A 1_555 1_555
N11_2 C22_2 1_555 1_555
C6_2 C11_2 1_555 1_555
C7A C19A 1_555 1_555
C7A_2 C19A_2 1_555 1_555
C8_2 C13_2 1_555 1_555
C10A C21A 1_555 1_555
C10A_2 C21A_2 1_555 1_555
C17A C23A 1_555 1_555
Mo7A O26A 1_555 1_555
Mo7A O36A 1_555 1_555
Mo7A O37A 1_555 1_555
Mo8A O25A 1_555 1_555
Mo8A O27A 1_555 1_555
Mo8A O42A 1_555 1_555
Mo9A O24A 1_555 1_555
Mo9A O40A 1_555 1_555
Mo9A O41A 1_555 1_555
Mo10A O25A 1_555 1_555
Mo10A O35A 1_555 1_555
Mo10A O38A 1_555 1_555
Mo11A O24A 1_555 1_555
Mo11A O30A 1_555 1_555
Mo11A O39A 1_555 1_555
Mo12A O24A 1_555 1_555
Mo12A O28A 1_555 1_555
Mo12A O29A 1_555 1_555
O23A O24A 1_555 1_555
O23A O25A 1_555 1_555
O23A O26A 1_555 1_555

#END
