
#######################################################################
#
#                 Cambridge Crystallographic Data Centre
#                                CCDC 
#
#######################################################################
#
# If this CIF has been generated from an entry in the Cambridge 
# Structural Database, then it will include bibliographic, chemical, 
# crystal, experimental, refinement or atomic coordinate data resulting 
# from the CCDC's data processing and validation procedures.
#
#######################################################################

data_AQUYUG
_symmetry_cell_setting           monoclinic
_symmetry_space_group_name_H-M   'C 2/c'
_symmetry_Int_Tables_number      15
_space_group_name_Hall           '-C 2yn'
loop_
_symmetry_equiv_pos_site_id
_symmetry_equiv_pos_as_xyz
1 x,y,z
2 1/2+x,1/2+y,z
3 x,-y,1/2+z
4 1/2+x,1/2-y,1/2+z
5 -x,-y,-z
6 1/2-x,1/2-y,-z
7 -x,y,1/2-z
8 1/2-x,1/2+y,1/2-z
_cell_length_a                   34.780(7)
_cell_length_b                   15.170(3)
_cell_length_c                   28.440(6)
_cell_angle_alpha                90
_cell_angle_beta                 105.96(3)
_cell_angle_gamma                90
_cell_volume                     14426.9
loop_
_atom_site_label
_atom_site_type_symbol
_atom_site_fract_x
_atom_site_fract_y
_atom_site_fract_z
Cd1 Cd 0.094111(15) 0.37983(4) 0.41795(2)
Cd2 Cd 0.076582(16) 0.14561(4) 0.507139(19)
Cd3 Cd 0.143437(16) 0.36898(4) 0.58984(2)
Cd4 Cd 0.195517(15) 0.23070(4) 0.493895(19)
K1 K 0.16170(5) 0.40935(13) 0.80231(7)
O1 O 0.2387(4) 0.3369(14) 0.8409(4)
O2 O 0.1695(5) 0.2350(6) 0.8278(3)
O3 O 0.0937(4) 0.3054(12) 0.8012(6)
O4 O 0.0840(4) 0.4745(12) 0.7646(4)
O5 O 0.1509(7) 0.5841(9) 0.7644(7)
O6 O 0.2260(5) 0.5156(13) 0.8068(7)
S1 S -0.02179(6) 0.09956(14) 0.34643(7)
S2 S -0.01354(6) 0.20576(14) 0.30486(7)
S3 S 0.03406(6) 0.36257(14) 0.33854(7)
S4 S 0.04720(5) 0.28280(12) 0.45225(6)
S5 S 0.01202(6) 0.07575(13) 0.45102(7)
S6 S 0.15892(8) 0.15179(17) 0.71583(8)
S7 S 0.13516(8) 0.03999(16) 0.67734(8)
S8 S 0.08661(7) 0.02934(14) 0.57827(7)
S9 S 0.08599(5) 0.25418(13) 0.57948(7)
S10 S 0.14651(7) 0.33371(15) 0.68261(7)
S11 S 0.19634(7) 0.61594(15) 0.46388(9)
S12 S 0.21663(7) 0.61372(16) 0.53919(9)
S13 S 0.18275(6) 0.51942(14) 0.60667(8)
S14 S 0.11186(5) 0.44875(12) 0.50733(7)
S15 S 0.12625(6) 0.53039(13) 0.40252(7)
S16 S 0.09254(6) 0.03360(13) 0.38135(7)
S17 S 0.10545(6) 0.17948(13) 0.32424(7)
S18 S 0.05975(7) 0.02525(16) 0.27336(8)
S19 S 0.15377(5) 0.28489(12) 0.40785(7)
S20 S 0.13852(5) 0.10655(12) 0.47754(7)
S21 S 0.29216(6) 0.44272(14) 0.60675(8)
S22 S 0.25550(6) 0.33869(15) 0.66563(7)
S23 S 0.32038(8) 0.4609(2) 0.71481(10)
S24 S 0.19723(5) 0.24953(13) 0.58422(7)
S25 S 0.24419(5) 0.37179(12) 0.51096(7)
C1 C 0.01535(19) 0.2663(5) 0.3534(3)
C2 C 0.02141(19) 0.2270(5) 0.3993(3)
C3 C 0.00623(19) 0.1412(5) 0.4018(2)
C4 C 0.1103(2) 0.0955(5) 0.6248(2)
C5 C 0.11224(19) 0.1869(5) 0.6270(2)
C6 C 0.1362(2) 0.2251(5) 0.6703(3)
C7 C 0.1798(2) 0.5444(5) 0.5477(3)
C8 C 0.1517(2) 0.5174(4) 0.5052(3)
C9 C 0.1560(2) 0.5478(4) 0.4605(3)
C10 C 0.0844(2) 0.0769(5) 0.3233(2)
C11 C 0.12592(18) 0.1881(5) 0.3878(2)
C12 C 0.11971(18) 0.1209(4) 0.4152(2)
C13 C 0.2905(2) 0.4168(6) 0.6645(3)
C14 C 0.2377(2) 0.3220(5) 0.6023(3)
C15 C 0.25502(19) 0.3711(5) 0.5742(3)
C16 C 0.2409(6) 0.2500(15) 0.8356(7)
C17 C 0.2061(6) 0.2020(11) 0.8534(5)
C18 C 0.1396(7) 0.1896(11) 0.8387(6)
C19 C 0.0971(6) 0.2228(13) 0.8013(9)
C20 C 0.0587(5) 0.341(2) 0.7775(13)
C21 C 0.0553(5) 0.413(3) 0.7472(10)
C22 C 0.0812(7) 0.548(2) 0.7362(6)
C23 C 0.1134(10) 0.6116(18) 0.7561(7)
C24 C 0.1811(9) 0.6332(12) 0.7712(9)
C25 C 0.2239(11) 0.5942(18) 0.7901(19)
C26 C 0.2626(5) 0.493(2) 0.8342(16)
C27 C 0.2682(4) 0.395(2) 0.8265(10)
S25E S 0.25581(5) 0.12821(12) 0.48904(7)
Cd4E Cd 0.304483(15) 0.26930(4) 0.506105(19)
K1B K 0.16170(5) 0.59065(13) 0.30231(7)
S15B S 0.12625(6) 0.46961(13) 0.90252(7)
N1 N 0.93413(18) 0.7479(4) 0.0193(2)
C28 C 0.9655(2) 0.8164(5) 0.0480(3)
C29 C 0.9694(3) 0.8135(6) 0.1035(3)
C30 C 1.0058(3) 0.8653(7) 0.1304(4)
C31 C 1.0178(3) 0.8539(7) 0.1846(4)
C32 C 0.9430(2) 0.6553(5) 0.0404(3)
C33 C 0.9874(2) 0.6253(6) 0.0444(4)
C34 C 0.9944(3) 0.5402(7) 0.0766(5)
C35 C 1.0347(3) 0.5102(8) 0.0927(5)
C36 C 0.8913(2) 0.7671(5) 0.0235(3)
C37 C 0.8769(3) 0.8574(7) 0.0015(4)
C38 C 0.8311(5) 0.8688(8) 0.0102(8)
C39 C 0.8109(6) 0.894(2) -0.0314(10)
C40 C 0.9366(2) 0.7541(5) -0.0338(3)
C41 C 0.9072(3) 0.6861(6) -0.0675(3)
C42 C 0.9079(3) 0.7044(8) -0.1217(4)
C43 C 0.8823(3) 0.7855(8) -0.1444(4)
loop_
_geom_bond_atom_site_label_1
_geom_bond_atom_site_label_2
_geom_bond_site_symmetry_1
_geom_bond_site_symmetry_2
Cd1 S3 1_555 1_555
Cd2 S4 1_555 1_555
Cd3 S9 1_555 1_555
Cd4 S19 1_555 1_555
K1 O1 1_555 1_555
N1 C28 1_555 1_555
O1 C16 1_555 1_555
O2 K1 1_555 1_555
O3 K1 1_555 1_555
O4 K1 1_555 1_555
O5 K1 1_555 1_555
O6 K1 1_555 1_555
S1 S2 1_555 1_555
S2 C1 1_555 1_555
S3 C1 1_555 1_555
S4 Cd1 1_555 1_555
S5 Cd2 1_555 1_555
S6 S7 1_555 1_555
S7 C4 1_555 1_555
S8 Cd2 1_555 1_555
S9 Cd2 1_555 1_555
S10 Cd3 1_555 1_555
S11 S12 1_555 1_555
S12 C7 1_555 1_555
S13 Cd3 1_555 1_555
S14 Cd1 1_555 1_555
S15 Cd1 1_555 1_555
S16 C10 1_555 1_555
S17 C10 1_555 1_555
S18 C10 1_555 1_555
S19 Cd1 1_555 1_555
S20 Cd2 1_555 1_555
S21 C13 1_555 1_555
S22 C13 1_555 1_555
S23 C13 1_555 1_555
S24 Cd3 1_555 1_555
S25 Cd4 1_555 1_555
C1 C2 1_555 1_555
C2 S4 1_555 1_555
C3 S1 1_555 1_555
C4 S8 1_555 1_555
C5 S9 1_555 1_555
C6 S6 1_555 1_555
C7 S13 1_555 1_555
C8 S14 1_555 1_555
C9 S11 1_555 1_555
C11 S17 1_555 1_555
C12 S16 1_555 1_555
C14 S22 1_555 1_555
C15 S21 1_555 1_555
C16 C17 1_555 1_555
C17 O2 1_555 1_555
C18 O2 1_555 1_555
C19 O3 1_555 1_555
C20 O3 1_555 1_555
C21 O4 1_555 1_555
C22 O4 1_555 1_555
C23 O5 1_555 1_555
C24 O5 1_555 1_555
C25 O6 1_555 1_555
C26 O6 1_555 1_555
C27 O1 1_555 1_555
C28 C29 1_555 1_555
C29 C30 1_555 1_555
C30 C31 1_555 1_555
C32 N1 1_555 1_555
C33 C32 1_555 1_555
C34 C33 1_555 1_555
C35 C34 1_555 1_555
C36 N1 1_555 1_555
C37 C36 1_555 1_555
C38 C37 1_555 1_555
C39 C38 1_555 1_555
C40 N1 1_555 1_555
C41 C40 1_555 1_555
C42 C41 1_555 1_555
C43 C42 1_555 1_555
S25E Cd4 1_555 1_555
Cd4E S25 1_555 1_555
K1B S15 1_555 1_555
S15B K1 1_555 1_555
Cd3 S14 1_555 1_555
Cd4 S20 1_555 1_555
Cd4 S24 1_555 1_555
K1 S10 1_555 1_555
S5 C3 1_555 1_555
S10 C6 1_555 1_555
S15 C9 1_555 1_555
S19 C11 1_555 1_555
S20 C12 1_555 1_555
S24 C14 1_555 1_555
S25 C15 1_555 1_555
C2 C3 1_555 1_555
C4 C5 1_555 1_555
C5 C6 1_555 1_555
C7 C8 1_555 1_555
C8 C9 1_555 1_555
C11 C12 1_555 1_555
C14 C15 1_555 1_555
C18 C19 1_555 1_555
C20 C21 1_555 1_555
C22 C23 1_555 1_555
C24 C25 1_555 1_555
C26 C27 1_555 1_555
S25E Cd4E 1_555 1_555

#END
