
#######################################################################
#
#                 Cambridge Crystallographic Data Centre
#                                CCDC 
#
#######################################################################
#
# If this CIF has been generated from an entry in the Cambridge 
# Structural Database, then it will include bibliographic, chemical, 
# crystal, experimental, refinement or atomic coordinate data resulting 
# from the CCDC's data processing and validation procedures.
#
#######################################################################

data_AROFET
_symmetry_cell_setting           triclinic
_symmetry_space_group_name_H-M   'P -1'
_symmetry_Int_Tables_number      2
_space_group_name_Hall           '-P 1'
loop_
_symmetry_equiv_pos_site_id
_symmetry_equiv_pos_as_xyz
1 x,y,z
2 -x,-y,-z
_cell_length_a                   13.3460(11)
_cell_length_b                   16.1864(13)
_cell_length_c                   17.7807(15)
_cell_angle_alpha                112.598(3)
_cell_angle_beta                 107.375(3)
_cell_angle_gamma                97.625(3)
_cell_volume                     3248.15
loop_
_atom_site_label
_atom_site_type_symbol
_atom_site_fract_x
_atom_site_fract_y
_atom_site_fract_z
Cd1 Cd 0.93279(3) 0.38392(3) 0.40697(2)
Cd2 Cd -0.16268(3) 0.45615(3) -0.38386(2)
O1 O 0.7052(3) 0.8980(3) 0.2541(3)
C1 C 0.6134(5) 0.6378(4) 0.3695(4)
H1 H 0.5457 0.6513 0.3673
O2 O -0.0165(3) 0.4530(3) -0.2760(2)
C2 C 0.6060(7) 0.5346(4) -0.1084(4)
H2 H 0.5537 0.4921 -0.1046
C3 C 0.4696(6) 0.6845(4) 0.1049(4)
H3 H 0.4630 0.6189 0.0672
H4 H 0.4368 0.6861 0.1484
C4 C 0.8336(5) 1.0424(4) 0.3431(4)
H5 H 0.8879 1.0157 0.3273
C5 C 0.6575(5) 0.6996(5) 0.2047(4)
H6 H 0.6598 0.6384 0.1639
H7 H 0.7334 0.7405 0.2393
C6 C 0.1959(5) 0.6694(4) -0.1527(3)
H8 H 0.1687 0.7004 -0.1868
C7 C 0.7651(5) 0.6365(4) 0.3224(4)
H9 H 0.8012 0.6485 0.2875
C8 C 0.2885(5) 0.7179(4) -0.0739(4)
H10 H 0.3242 0.7813 -0.0549
C9 C 0.6474(5) 1.0250(4) 0.3351(4)
H11 H 0.5746 0.9871 0.3127
O3 O 0.4160(4) 0.7264(3) 0.0525(3)
C10 C 0.8589(5) 1.1382(5) 0.4007(4)
H12 H 0.9311 1.1767 0.4216
C11 C 0.2775(5) 0.5796(4) -0.0512(4)
H13 H 0.3052 0.5486 -0.0172
O4 O 0.7580(3) 0.5190(3) 0.5296(2)
C12 C 0.1856(5) 0.5330(4) -0.1301(4)
H14 H 0.1504 0.4694 -0.1496
C13 C 0.6387(7) 0.7451(4) 0.0861(4)
H15 H 0.6077 0.7835 0.0584
H16 H 0.7192 0.7718 0.1150
C14 C 0.6616(5) 0.6015(4) 0.4246(4)
H17 H 0.6261 0.5892 0.4598
O5 O 1.0075(4) 0.2709(3) 0.3517(4)
O6 O 0.9020(3) 0.5197(2) 0.4870(3)
O7 O 0.6100(5) 0.6489(3) 0.0204(3)
O8 O 0.0222(3) 0.5615(3) -0.3179(2)
C15 C 0.7273(8) 0.6886(5) -0.0502(4)
H18 H 0.7582 0.7515 -0.0064
C16 C 0.5909(5) 0.7430(4) 0.1522(4)
C17 C 0.7252(5) 0.9884(4) 0.3102(4)
C18 C 0.7222(5) 0.5611(5) -0.1830(3)
C19 C 0.6774(5) 1.1200(4) 0.3947(4)
H19 H 0.6235 1.1452 0.4129
C20 C 0.6642(5) 0.6548(4) 0.3169(4)
C21 C 0.7556(6) 0.5305(5) -0.2568(4)
C22 C 0.3271(5) 0.6730(4) -0.0244(4)
C23 C 0.7599(7) 0.6572(5) -0.1195(4)
H20 H 0.8088 0.7002 -0.1257
C24 C 0.5927(5) 0.8401(4) 0.2129(4)
H21 H 0.5452 0.8660 0.1788
H22 H 0.5656 0.8379 0.2584
C25 C 0.1440(5) 0.5773(4) -0.1810(3)
O9 O 0.6092(3) 0.6882(3) 0.2620(2)
C26 C 0.8088(5) 0.5379(4) 0.4865(3)
C27 C 0.7606(4) 0.5823(3) 0.4298(3)
O10 O 0.8312(4) 0.5842(3) -0.2587(3)
C28 C 0.6397(5) 0.5057(4) -0.1755(4)
H23 H 0.6055 0.4437 -0.2209
C29 C 0.8115(5) 0.6007(4) 0.3793(3)
H24 H 0.8802 0.5887 0.3835
C30 C 0.6482(7) 0.6283(5) -0.0433(4)
O11 O 0.8975(3) 1.3336(3) 0.5021(3)
O12 O 0.7471(4) 1.3055(3) 0.5269(3)
O13 O 0.7136(4) 0.4476(3) -0.3146(3)
C31 C 0.8071(5) 1.2764(4) 0.4877(3)
C32 C 0.7820(5) 1.1783(4) 0.4280(4)
O14 O 0.7524(4) 0.3245(3) 0.3234(3)
C33 C 0.0448(5) 0.5268(4) -0.2618(4)
Cd1A Cd 1.06721(3) 0.61608(3) 0.59303(2)
Cd1A_2 Cd 0.06721(3) 0.61608(3) -0.40697(2)
Cd1_2 Cd 0.93279(3) 1.38392(3) 0.40697(2)
Cd2_2 Cd 0.83732(3) 0.45615(3) 0.61614(2)
Cd2_3 Cd 0.83732(3) 0.45615(3) -0.38386(2)
Cd2_4 Cd 0.83732(3) 1.45615(3) 0.61614(2)
O4_2 O -0.2420(3) 0.5190(3) -0.4704(2)
O6A O 1.0980(3) 0.4803(2) 0.5130(3)
O8A O 0.9778(3) 0.4385(3) 0.3179(2)
O10_2 O -0.1688(4) 0.5842(3) -0.2587(3)
O11_2 O 0.8975(3) 0.3336(3) 0.5021(3)
O11_3 O -0.1025(3) 0.3336(3) -0.4979(3)
O12_2 O -0.2529(4) 0.3055(3) -0.4731(3)
O13_2 O -0.2864(4) 0.4476(3) -0.3146(3)
loop_
_geom_bond_atom_site_label_1
_geom_bond_atom_site_label_2
_geom_bond_site_symmetry_1
_geom_bond_site_symmetry_2
Cd1 O5 1_555 1_555
Cd2 O2 1_555 1_555
O1 C17 1_555 1_555
C1 H1 1_555 1_555
O2 C33 1_555 1_555
C2 H2 1_555 1_555
C3 H3 1_555 1_555
H4 C3 1_555 1_555
C4 H5 1_555 1_555
C5 H6 1_555 1_555
H7 C5 1_555 1_555
C6 H8 1_555 1_555
C7 H9 1_555 1_555
C8 C6 1_555 1_555
H10 C8 1_555 1_555
C9 H11 1_555 1_555
O3 C3 1_555 1_555
C10 C4 1_555 1_555
H12 C10 1_555 1_555
C11 H13 1_555 1_555
O4 C26 1_555 1_555
C12 C11 1_555 1_555
H14 C12 1_555 1_555
C13 H15 1_555 1_555
H16 C13 1_555 1_555
C14 C1 1_555 1_555
H17 C14 1_555 1_555
O6 Cd1 1_555 1_555
O7 C13 1_555 1_555
O8 Cd2 1_555 1_555
C15 H18 1_555 1_555
C16 C3 1_555 1_555
C17 C4 1_555 1_555
C18 C21 1_555 1_555
C19 C9 1_555 1_555
H19 C19 1_555 1_555
C20 C1 1_555 1_555
C21 O10 1_555 1_555
C22 C8 1_555 1_555
C23 C15 1_555 1_555
H20 C23 1_555 1_555
C24 O1 1_555 1_555
H21 C24 1_555 1_555
H22 C24 1_555 1_555
C25 C6 1_555 1_555
O9 C5 1_555 1_555
C26 O6 1_555 1_555
C27 C14 1_555 1_555
O10 Cd2_3 1_555 1_555
C28 C2 1_555 1_555
H23 C28 1_555 1_555
C29 C7 1_555 1_555
H24 C29 1_555 1_555
C30 C2 1_555 1_555
O11 C31 1_555 1_555
O12 C31 1_555 1_555
O13 C21 1_555 1_555
C31 C32 1_555 1_555
C32 C10 1_555 1_555
O14 Cd1 1_555 1_555
C33 O8 1_555 1_555
Cd1A O6 1_555 1_555
Cd1A_2 O8 1_555 1_555
Cd1_2 O11 1_555 1_555
Cd2_2 O4 1_555 1_555
Cd2_3 O13 1_555 1_555
Cd2_4 O11 1_555 1_555
O4_2 Cd2 1_555 1_555
O6A Cd1 1_555 1_555
O8A Cd1 1_555 1_555
O10_2 Cd2 1_555 1_555
O11_2 Cd1 1_555 1_555
O11_3 Cd2 1_555 1_555
O12_2 Cd2 1_555 1_555
O13_2 Cd2 1_555 1_555
C5 C16 1_555 1_555
C7 C20 1_555 1_555
C9 C17 1_555 1_555
O3 C22 1_555 1_555
C11 C22 1_555 1_555
C12 C25 1_555 1_555
C13 C16 1_555 1_555
O7 C30 1_555 1_555
C15 C30 1_555 1_555
C16 C24 1_555 1_555
C18 C23 1_555 1_555
C18 C28 1_555 1_555
C19 C32 1_555 1_555
C20 O9 1_555 1_555
C25 C33 1_555 1_555
C26 C27 1_555 1_555
C27 C29 1_555 1_555
O12 Cd2_4 1_555 1_555
Cd1A O6A 1_555 1_555
Cd2_2 O11_2 1_555 1_555

#END
