
#######################################################################
#
#                 Cambridge Crystallographic Data Centre
#                                CCDC 
#
#######################################################################
#
# If this CIF has been generated from an entry in the Cambridge 
# Structural Database, then it will include bibliographic, chemical, 
# crystal, experimental, refinement or atomic coordinate data resulting 
# from the CCDC's data processing and validation procedures.
#
#######################################################################

data_AROFAP
_symmetry_cell_setting           triclinic
_symmetry_space_group_name_H-M   'P 1'
_symmetry_Int_Tables_number      1
_space_group_name_Hall           'P 1'
loop_
_symmetry_equiv_pos_site_id
_symmetry_equiv_pos_as_xyz
1 x,y,z
_cell_length_a                   15.420(5)
_cell_length_b                   15.842(3)
_cell_length_c                   17.819(3)
_cell_angle_alpha                112.763(2)
_cell_angle_beta                 112.203(3)
_cell_angle_gamma                95.425(3)
_cell_volume                     3565.41
loop_
_atom_site_label
_atom_site_type_symbol
_atom_site_fract_x
_atom_site_fract_y
_atom_site_fract_z
Cd1 Cd 0.64696(3) 0.31376(3) 0.04123(3)
Cd2 Cd -0.22823(4) -0.44949(3) -0.92367(3)
Cd3 Cd 0.40738(3) 1.18065(3) 1.00141(3)
Cd4 Cd -0.00319(3) -0.31406(3) -0.90686(3)
Cd5 Cd 0.14723(3) -0.07800(3) -0.84865(3)
O1 O 0.1183(3) -0.1805(3) -0.7898(3)
O2 O 0.2742(3) -0.1090(4) -0.7337(3)
O3 O 0.3004(3) -0.3190(4) -0.4883(3)
O4 O 0.1881(4) 0.3674(3) -0.3297(4)
C1 C 0.3977(5) -0.3456(4) -0.3638(4)
O5 O 0.5626(3) -0.2448(3) -0.2546(3)
O6 O -0.0661(3) 0.3185(4) -0.5526(3)
C2 C 0.0220(5) 0.2801(5) -0.4341(4)
C3 C 0.5010(5) -0.3418(4) -0.3025(4)
H1 H 0.4991 -0.3640 -0.2582
H2 H 0.5276 -0.3842 -0.3401
C4 C 0.4703(5) 0.4336(5) -0.1309(4)
O7 O -0.0083(4) 0.1331(4) -0.5585(4)
C5 C -0.0050(7) -0.0030(6) -0.6708(7)
H3 H 0.0498 0.0352 -0.6663
O8 O 0.3785(4) -0.4983(3) -0.4741(3)
C6 C 0.2821(5) -0.2815(5) -0.5481(5)
C7 C 0.3981(5) -0.3082(5) -0.4307(4)
H4 H 0.4359 -0.2401 -0.3970
H5 H 0.4289 -0.3445 -0.4674
C8 C 0.4396(5) 0.4949(5) -0.1642(4)
H6 H 0.4836 0.5552 -0.1408
C9 C 0.3701(6) -0.6337(6) -0.5971(6)
H7 H 0.4200 -0.5944 -0.5977
C10 C 0.0314(5) 0.3295(6) -0.4917(5)
H8 H 0.0673 0.3980 -0.4518
H9 H 0.0667 0.2991 -0.5262
C11 C 0.2342(5) -0.2079(5) -0.6728(5)
C12 C -0.1213(5) 0.4455(5) -0.7253(5)
C13 C -0.0446(5) 0.1772(5) -0.4968(5)
H10 H -0.0438 0.1429 -0.4605
H11 H -0.1126 0.1773 -0.5298
C14 C -0.0774(5) 0.3648(6) -0.6068(5)
C15 C 0.3448(5) 0.4714(5) -0.2320(4)
H12 H 0.3237 0.5152 -0.2543
C16 C 0.3377(5) -0.4495(5) -0.4156(5)
H13 H 0.3418 -0.4762 -0.3729
H14 H 0.2683 -0.4558 -0.4519
C17 C 0.1867(5) -0.2834(6) -0.5944(5)
H15 H 0.1374 -0.3097 -0.5836
C18 C -0.1969(5) 0.3918(6) -0.7209(5)
H16 H -0.2632 0.3832 -0.7591
C19 C 0.3110(6) 0.3189(5) -0.2357(6)
H17 H 0.2687 0.2570 -0.2614
C20 C 0.2087(5) -0.1634(5) -0.7333(4)
C21 C -0.0474(5) 0.0372(5) -0.6142(5)
C22 C 0.1208(5) 0.2751(5) -0.3757(6)
H18 H 0.1163 0.2551 -0.3308
H19 H 0.1430 0.2279 -0.4144
C23 C -0.1755(6) 0.3524(6) -0.6623(6)
H20 H -0.2264 0.3172 -0.6592
C24 C 0.3277(5) -0.2058(5) -0.6259(4)
H21 H 0.3771 -0.1766 -0.6348
C25 C 0.3549(5) -0.2448(5) -0.5648(4)
H22 H 0.4203 -0.2462 -0.5359
C26 C 0.1628(5) -0.2477(6) -0.6555(5)
H23 H 0.0967 -0.2497 -0.6870
C27 C 0.3337(6) -0.5945(5) -0.5340(5)
C28 C 0.4057(5) 0.3472(6) -0.1646(5)
H24 H 0.4255 0.3053 -0.1392
Cd6 Cd 0.22606(3) 1.10488(3) 0.07819(3)
O9 O -0.1142(4) -0.2982(3) -0.8513(4)
O10 O -0.1439(4) 0.5739(4) -0.0275(4)
O11 O 0.6008(4) 0.4005(5) -0.0331(4)
O12 O 0.4276(4) 1.0493(4) 0.8791(3)
O13 O 0.5653(4) 0.3522(4) 0.1253(3)
O14 O 0.5013(3) 1.2011(3) 0.9323(3)
O15 O 0.1626(4) -0.9441(3) -0.7214(3)
O16 O 0.1851(4) -0.0538(3) 0.0093(4)
O17 O 0.2368(3) -0.9185(3) -0.7977(3)
O18 O -0.2251(4) -0.3112(3) -0.8050(4)
O19 O -0.2344(4) 0.4561(3) -0.8541(3)
O20 O 1.2459(3) 1.0995(3) 0.9534(3)
O21 O 0.3893(4) 1.1452(5) 0.1405(4)
O22 O 1.2681(4) 1.1722(4) 0.8772(3)
O23 O 0.4104(4) 0.3267(4) 0.0941(4)
O24 O 0.6742(4) 0.2033(4) 0.0965(4)
O25 O 0.1038(5) -0.3397(5) -0.9696(5)
O26 O 0.2059(4) -0.1613(4) 0.0612(3)
O27 O 0.6245(4) 0.5421(4) -0.0249(4)
O28 O 0.9806(5) -0.2139(6) 0.0305(5)
O29 O 0.9999(4) -0.0655(6) 0.0617(5)
O30 O 0.7513(5) 0.2667(5) -0.0146(5)
O31 O 0.3529(4) -0.3157(3) -0.2422(3)
O32 O 0.6365(4) 1.0179(3) 0.6257(3)
O33 O 0.5703(3) 0.7631(3) 0.3891(3)
C29 C 0.3348(5) -0.7257(5) -0.6558(5)
H25 H 0.3612 -0.7512 -0.6973
C30 C 0.3542(5) -0.2832(4) -0.3060(4)
H26 H 0.3940 -0.2158 -0.2732
H27 H 0.2870 -0.2870 -0.3458
C31 C 0.2605(5) -0.7863(5) -0.6591(4)
C32 C -0.1591(5) -0.1170(5) -0.6804(5)
H28 H -0.2132 -0.1561 -0.6848
C33 C 0.6678(4) 0.8265(5) 0.4410(4)
H29 H 0.6935 0.8315 0.3992
H30 H 0.7112 0.8011 0.4787
C34 C 0.5166(5) 0.4832(5) 0.2038(5)
C35 C 0.6662(5) 0.9242(5) 0.5019(4)
C36 C 0.6070(5) 0.5459(6) 0.2420(5)
H31 H 0.6546 0.5246 0.2237
C37 C 0.3196(6) -0.2635(6) -0.1813(5)
C38 C 0.2680(5) -0.1316(5) -0.1089(5)
H32 H 0.2547 -0.0726 -0.1031
C39 C 0.6231(5) 0.9203(4) 0.5637(4)
H33 H 0.5527 0.8853 0.5276
H34 H 0.6564 0.8872 0.5982
C40 C -0.1246(5) -0.0197(5) -0.6174(5)
H35 H -0.1532 0.0065 -0.5780
C41 C 0.2138(5) -0.1240(5) 0.0078(4)
C42 C 0.2528(6) -0.1716(5) -0.0540(5)
C43 C 0.4971(5) 0.3809(5) 0.1373(5)
O34 O 0.6536(4) 0.9850(4) 0.3945(3)
O35 O -0.0829(4) 0.5410(4) -0.7897(4)
O36 O 0.8192(3) 0.9502(4) 0.6229(3)
C44 C 0.5976(6) 1.0348(5) 0.6844(4)
C45 C 0.7742(5) 0.9871(5) 0.5626(5)
H36 H 0.8077 0.9844 0.5244
H37 H 0.7769 1.0544 0.5971
C46 C -0.1445(5) 0.4838(5) -0.7918(5)
C47 C 0.5973(6) 1.1276(5) 0.7302(5)
H38 H 0.6212 1.1746 0.7167
C48 C 0.6094(5) 0.9716(5) 0.4462(5)
H39 H 0.5413 0.9309 0.4053
H40 H 0.6078 1.0340 0.4880
C49 C 0.6057(5) 1.0215(5) 0.3373(4)
C50 C 0.9145(5) 0.9972(5) 0.6876(4)
C51 C 0.2630(5) -0.6517(5) -0.5342(5)
H41 H 0.2381 -0.6258 -0.4915
C52 C 0.2262(6) -0.7473(5) -0.5957(5)
H42 H 0.1769 -0.7867 -0.5945
C53 C 0.5573(5) 0.6705(6) 0.3299(4)
O37 O 0.5049(4) 1.1322(4) 0.0958(3)
O38 O -0.1957(5) 0.4419(4) -0.0290(4)
C54 C 1.1091(5) 1.0793(5) 0.8217(5)
C55 C -0.1543(5) -0.2590(5) -0.7985(5)
C56 C -0.1631(5) 0.4837(6) -0.0596(5)
C57 C 0.5223(5) 1.0844(5) 0.8115(4)
C58 C 0.5220(5) 0.9927(5) 0.7655(5)
H43 H 0.4958 0.9451 0.7772
C59 C 0.5728(5) 0.4614(6) -0.0559(4)
C60 C 0.6305(5) 0.6417(5) 0.3082(5)
H44 H 0.6939 0.6843 0.3366
C61 C 1.0698(6) 1.1109(6) 0.7561(5)
H45 H 1.1102 1.1584 0.7543
C62 C 0.3017(6) -0.1780(5) -0.1701(5)
H46 H 0.3127 -0.1500 -0.2054
C63 C 0.5173(6) 1.0400(7) 0.3255(5)
H47 H 0.4875 1.0328 0.3614
C64 C 0.9712(5) 1.0726(6) 0.6934(5)
H48 H 0.9433 1.0998 0.6541
C65 C 0.5632(6) 1.1547(5) 0.7959(5)
H49 H 0.5677 1.2197 0.8294
C66 C 0.4823(5) 1.1127(5) 0.8777(5)
C67 C 0.9521(6) 0.9632(6) 0.7491(5)
H50 H 0.9130 0.9094 0.7442
C68 C 0.4662(6) 1.1242(5) 0.1460(5)
C69 C 0.2171(5) -0.8872(5) -0.7290(4)
C70 C 0.6930(6) -0.2955(6) -0.1709(6)
H51 H 0.6549 -0.3602 -0.2016
C71 C 0.2751(8) -0.2562(7) -0.0633(6)
H52 H 0.2678 -0.2836 -0.0264
C72 C -0.0025(6) 0.4180(6) -0.6081(6)
H53 H 0.0637 0.4261 -0.5701
C73 C 0.5581(5) 0.9666(5) 0.7031(5)
H54 H 0.5564 0.9018 0.6724
C74 C 1.2119(5) 1.1193(5) 0.8865(5)
C75 C 0.6547(6) -0.2299(5) -0.1941(5)
C76 C 0.4723(6) 1.0697(7) 0.2592(6)
H55 H 0.4094 1.0785 0.2479
C77 C 1.0477(6) 1.0070(6) 0.8193(5)
H56 H 1.0708 0.9872 0.8655
C78 C 0.4469(6) 0.5124(6) 0.2295(6)
H57 H 0.3861 0.4682 0.2066
O39 O -0.0510(5) 0.2893(4) -0.3341(4)
C79 C 0.8462(5) -0.1756(6) -0.0592(6)
C80 C -0.1173(5) -0.1571(5) -0.7355(5)
C81 C -0.1386(6) 0.4313(6) -0.1374(5)
C82 C 0.6505(6) 1.0365(6) 0.2867(5)
H58 H 0.7108 1.0225 0.2939
C83 C 0.5145(6) 1.0859(6) 0.2119(5)
C84 C 0.2815(5) 0.3817(5) -0.2664(5)
C85 C 0.6069(6) 1.0716(7) 0.2261(5)
H59 H 0.6390 1.0858 0.1945
C86 C -0.0228(6) 0.3386(5) -0.3769(5)
H60 H 0.0252 0.4011 -0.3298
H61 H -0.0806 0.3504 -0.4161
C87 C -0.0253(6) 0.4588(6) -0.6651(5)
H62 H 0.0263 0.4980 -0.6640
C88 C 0.7860(7) -0.2681(6) -0.1034(5)
H63 H 0.8104 -0.3140 -0.0860
C89 C -0.0901(9) 0.4313(7) -0.2523(7)
H64 H -0.0792 0.4618 -0.2858
C90 C 0.4668(6) 0.6075(6) 0.2896(6)
H65 H 0.4167 0.6294 0.3031
C91 C 0.3081(9) -0.3012(7) -0.1261(7)
H66 H 0.3234 -0.3593 -0.1317
C92 C -0.1106(9) 0.4793(7) -0.1788(7)
H67 H -0.1053 0.5455 -0.1574
C93 C -0.0863(6) 0.3372(6) -0.2743(5)
C94 C -0.1187(8) 0.2896(6) -0.2373(6)
H68 H -0.1211 0.2242 -0.2557
C95 C 0.9452(6) -0.1522(8) 0.0169(6)
C96 C -0.0421(8) -0.0976(6) -0.7329(8)
H69 H -0.0164 -0.1232 -0.7750
C97 C 0.7144(7) -0.1340(7) -0.1494(7)
H70 H 0.6902 -0.0866 -0.1639
C98 C 0.8080(6) -0.1129(6) -0.0849(6)
H71 H 0.8486 -0.0496 -0.0563
C99 C -0.1486(8) 0.3370(6) -0.1721(8)
H72 H -0.1774 0.3013 -0.1509
O40 O 0.0362(4) -0.4211(4) -0.8586(4)
O41 O 0.0634(5) 1.0871(7) 0.0326(5)
O42 O 0.2556(8) 1.2653(5) 0.1278(6)
Cd1_2 Cd 0.64696(3) 1.31376(3) 1.04123(3)
Cd1_3 Cd -0.35304(3) 0.31376(3) -0.95877(3)
Cd2_2 Cd -0.22823(4) 0.55051(3) -0.92367(3)
Cd2_3 Cd 0.77177(4) 0.55051(3) 0.07633(3)
Cd2_4 Cd -0.22823(4) 0.55051(3) 0.07633(3)
Cd3_2 Cd 1.40738(3) 1.18065(3) 1.00141(3)
Cd3_3 Cd 0.40738(3) 0.18065(3) 0.00141(3)
Cd3_4 Cd 0.40738(3) 1.18065(3) 0.00141(3)
Cd4_2 Cd -0.00319(3) 0.68594(3) 0.09314(3)
Cd4_3 Cd 0.99681(3) -0.31406(3) 0.09314(3)
Cd5_2 Cd 0.14723(3) -1.07800(3) -0.84865(3)
Cd5_3 Cd 0.14723(3) -0.07800(3) 0.15135(3)
Cd5_4 Cd 1.14723(3) -0.07800(3) 0.15135(3)
Cd6_2 Cd 0.22606(3) 0.10488(3) 0.07819(3)
Cd6_3 Cd 0.22606(3) -0.89512(3) -0.92181(3)
Cd6_4 Cd 1.22606(3) 1.10488(3) 1.07819(3)
O10_2 O -0.1439(4) -0.4261(4) -1.0275(4)
O14_2 O 0.5013(3) 0.2011(3) -0.0677(3)
O15_2 O 0.1626(4) 0.0559(3) -0.7214(3)
O16_2 O 0.1851(4) 0.9462(3) 0.0093(4)
O17_2 O 0.2368(3) 0.0815(3) -0.7977(3)
O17_3 O 0.2368(3) 1.0815(3) 0.2023(3)
O19_2 O 0.7656(4) 0.4561(3) 0.1459(3)
O19_3 O -0.2344(4) -0.5439(3) -0.8541(3)
O20_2 O 0.2459(3) 1.0995(3) 0.9534(3)
O20_3 O 0.2459(3) 1.0995(3) -0.0466(3)
O22_2 O 0.2681(4) 1.1722(4) 0.8772(3)
O23_2 O 0.4104(4) 1.3267(4) 1.0941(4)
O26_2 O 0.2059(4) -0.1613(4) -0.9388(3)
O27_2 O -0.3755(4) -0.4579(4) -1.0249(4)
O28_2 O -0.0194(5) -0.2139(6) -0.9695(5)
O29_2 O -0.0001(4) -0.0655(6) -0.9383(5)
O37_2 O 0.5049(4) 1.1322(4) 1.0958(3)
O38_2 O -0.1957(5) -0.5581(4) -1.0290(4)
loop_
_geom_bond_atom_site_label_1
_geom_bond_atom_site_label_2
_geom_bond_site_symmetry_1
_geom_bond_site_symmetry_2
Cd1 O11 1_555 1_555
Cd2 O9 1_555 1_555
Cd3 O12 1_555 1_555
Cd4 O1 1_555 1_555
Cd5 O1 1_555 1_555
O1 C20 1_555 1_555
O2 Cd5 1_555 1_555
O3 C6 1_555 1_555
O4 C22 1_555 1_555
C1 C3 1_555 1_555
O5 C3 1_555 1_555
O6 C10 1_555 1_555
C2 C10 1_555 1_555
C3 H1 1_555 1_555
H2 C3 1_555 1_555
C4 C8 1_555 1_555
O7 C13 1_555 1_555
C5 H3 1_555 1_555
O8 C16 1_555 1_555
C6 C17 1_555 1_555
C7 O3 1_555 1_555
H4 C7 1_555 1_555
H5 C7 1_555 1_555
C8 H6 1_555 1_555
C9 H7 1_555 1_555
C10 H8 1_555 1_555
H9 C10 1_555 1_555
C11 C20 1_555 1_555
C12 C18 1_555 1_555
C13 C2 1_555 1_555
H10 C13 1_555 1_555
H11 C13 1_555 1_555
C14 O6 1_555 1_555
C15 C8 1_555 1_555
H12 C15 1_555 1_555
C16 C1 1_555 1_555
H13 C16 1_555 1_555
H14 C16 1_555 1_555
C17 H15 1_555 1_555
C18 H16 1_555 1_555
C19 H17 1_555 1_555
C20 O2 1_555 1_555
C21 O7 1_555 1_555
C22 C2 1_555 1_555
H18 C22 1_555 1_555
H19 C22 1_555 1_555
C23 C14 1_555 1_555
H20 C23 1_555 1_555
C24 C11 1_555 1_555
H21 C24 1_555 1_555
C25 C6 1_555 1_555
H22 C25 1_555 1_555
C26 C11 1_555 1_555
H23 C26 1_555 1_555
C27 O8 1_555 1_555
C28 C4 1_555 1_555
H24 C28 1_555 1_555
Cd6 O21 1_555 1_555
O9 Cd4 1_555 1_555
O10 C56 1_555 1_555
O11 C59 1_555 1_555
O12 C66 1_555 1_555
O13 Cd1 1_555 1_555
O14 Cd3 1_555 1_555
O15 C69 1_555 1_555
O16 C41 1_555 1_555
O17 C69 1_555 1_555
O18 Cd2 1_555 1_555
O19 C46 1_555 1_555
O20 C74 1_555 1_555
O21 C68 1_555 1_555
O22 C74 1_555 1_555
O23 C43 1_555 1_555
O24 Cd1 1_555 1_555
O25 Cd4 1_555 1_555
O26 C41 1_555 1_555
O27 C59 1_555 1_555
O28 C95 1_555 1_555
O29 C95 1_555 1_555
O30 Cd1 1_555 1_555
O31 C30 1_555 1_555
O32 C39 1_555 1_555
O33 C33 1_555 1_555
C29 C9 1_555 1_555
H25 C29 1_555 1_555
C30 C1 1_555 1_555
H26 C30 1_555 1_555
H27 C30 1_555 1_555
C31 C29 1_555 1_555
C32 H28 1_555 1_555
C33 H29 1_555 1_555
H30 C33 1_555 1_555
C34 C36 1_555 1_555
C35 C33 1_555 1_555
C36 H31 1_555 1_555
C37 O31 1_555 1_555
C38 H32 1_555 1_555
C39 C35 1_555 1_555
H33 C39 1_555 1_555
H34 C39 1_555 1_555
C40 C21 1_555 1_555
H35 C40 1_555 1_555
C41 C42 1_555 1_555
C42 C38 1_555 1_555
C43 O13 1_555 1_555
O34 C48 1_555 1_555
O35 C46 1_555 1_555
O36 C45 1_555 1_555
C44 O32 1_555 1_555
C45 C35 1_555 1_555
H36 C45 1_555 1_555
H37 C45 1_555 1_555
C46 C12 1_555 1_555
C47 C44 1_555 1_555
H38 C47 1_555 1_555
C48 C35 1_555 1_555
H39 C48 1_555 1_555
H40 C48 1_555 1_555
C49 O34 1_555 1_555
C50 O36 1_555 1_555
C51 C27 1_555 1_555
H41 C51 1_555 1_555
C52 C31 1_555 1_555
H42 C52 1_555 1_555
C53 O33 1_555 1_555
O37 C68 1_555 1_555
O38 C56 1_555 1_555
C54 C61 1_555 1_555
C55 O9 1_555 1_555
C56 C81 1_555 1_555
C57 C58 1_555 1_555
C58 H43 1_555 1_555
C59 C4 1_555 1_555
C60 C36 1_555 1_555
H44 C60 1_555 1_555
C61 H45 1_555 1_555
C62 C37 1_555 1_555
H46 C62 1_555 1_555
C63 C49 1_555 1_555
H47 C63 1_555 1_555
C64 C50 1_555 1_555
H48 C64 1_555 1_555
C65 C47 1_555 1_555
H49 C65 1_555 1_555
C66 O14 1_555 1_555
C67 C50 1_555 1_555
H50 C67 1_555 1_555
C68 C83 1_555 1_555
C69 C31 1_555 1_555
C70 H51 1_555 1_555
C71 C42 1_555 1_555
H52 C71 1_555 1_555
C72 C14 1_555 1_555
H53 C72 1_555 1_555
C73 C44 1_555 1_555
H54 C73 1_555 1_555
C74 C54 1_555 1_555
C75 O5 1_555 1_555
C76 C63 1_555 1_555
H55 C76 1_555 1_555
C77 C54 1_555 1_555
H56 C77 1_555 1_555
C78 C34 1_555 1_555
H57 C78 1_555 1_555
O39 C86 1_555 1_555
C79 C88 1_555 1_555
C80 C32 1_555 1_555
C81 C92 1_555 1_555
C82 C49 1_555 1_555
H58 C82 1_555 1_555
C83 C76 1_555 1_555
C84 O4 1_555 1_555
C85 C82 1_555 1_555
H59 C85 1_555 1_555
C86 C2 1_555 1_555
H60 C86 1_555 1_555
H61 C86 1_555 1_555
C87 C12 1_555 1_555
H62 C87 1_555 1_555
C88 C70 1_555 1_555
H63 C88 1_555 1_555
C89 H64 1_555 1_555
C90 C53 1_555 1_555
H65 C90 1_555 1_555
C91 C37 1_555 1_555
H66 C91 1_555 1_555
C92 C89 1_555 1_555
H67 C92 1_555 1_555
C93 O39 1_555 1_555
C94 C93 1_555 1_555
H68 C94 1_555 1_555
C95 C79 1_555 1_555
C96 C5 1_555 1_555
H69 C96 1_555 1_555
C97 C75 1_555 1_555
H70 C97 1_555 1_555
C98 C79 1_555 1_555
H71 C98 1_555 1_555
C99 C81 1_555 1_555
H72 C99 1_555 1_555
O40 Cd4 1_555 1_555
O41 Cd6 1_555 1_555
O42 Cd6 1_555 1_555
Cd1_2 O14 1_555 1_555
Cd1_3 O19 1_555 1_555
Cd2_2 O19 1_555 1_555
Cd2_3 O27 1_555 1_555
Cd2_4 O38 1_555 1_555
Cd3_2 O20 1_555 1_555
Cd3_3 O23 1_555 1_555
Cd3_4 O37 1_555 1_555
Cd4_2 O10 1_555 1_555
Cd4_3 O28 1_555 1_555
Cd5_2 O15 1_555 1_555
Cd5_3 O26 1_555 1_555
Cd5_4 O29 1_555 1_555
Cd6_2 O16 1_555 1_555
Cd6_3 O17 1_555 1_555
Cd6_4 O20 1_555 1_555
O10_2 Cd4 1_555 1_555
O14_2 Cd1 1_555 1_555
O15_2 Cd5 1_555 1_555
O16_2 Cd6 1_555 1_555
O17_2 Cd5 1_555 1_555
O17_3 Cd6 1_555 1_555
O19_2 Cd1 1_555 1_555
O19_3 Cd2 1_555 1_555
O20_2 Cd3 1_555 1_555
O20_3 Cd6 1_555 1_555
O22_2 Cd3 1_555 1_555
O23_2 Cd3 1_555 1_555
O26_2 Cd5 1_555 1_555
O27_2 Cd2 1_555 1_555
O28_2 Cd4 1_555 1_555
O29_2 Cd5 1_555 1_555
O37_2 Cd3 1_555 1_555
O38_2 Cd2 1_555 1_555
C1 C7 1_555 1_555
C5 C21 1_555 1_555
C9 C27 1_555 1_555
C15 C84 1_555 1_555
C17 C26 1_555 1_555
C18 C23 1_555 1_555
C19 C28 1_555 1_555
C19 C84 1_555 1_555
C24 C25 1_555 1_555
O17 Cd5_2 1_555 1_555
O18 C55 1_555 1_555
O22 Cd3_2 1_555 1_555
C32 C40 1_555 1_555
C34 C43 1_555 1_555
C38 C62 1_555 1_555
C51 C52 1_555 1_555
C53 C60 1_555 1_555
C55 C80 1_555 1_555
C57 C65 1_555 1_555
C57 C66 1_555 1_555
C58 C73 1_555 1_555
C61 C64 1_555 1_555
C67 C77 1_555 1_555
C70 C75 1_555 1_555
C71 C91 1_555 1_555
C72 C87 1_555 1_555
C78 C90 1_555 1_555
C80 C96 1_555 1_555
C83 C85 1_555 1_555
C89 C93 1_555 1_555
C94 C99 1_555 1_555
C97 C98 1_555 1_555
Cd2_3 O19_2 1_555 1_555
Cd3_3 O14_2 1_555 1_555
Cd3_4 O20_3 1_555 1_555

#END
