
#######################################################################
#
#                 Cambridge Crystallographic Data Centre
#                                CCDC 
#
#######################################################################
#
# If this CIF has been generated from an entry in the Cambridge 
# Structural Database, then it will include bibliographic, chemical, 
# crystal, experimental, refinement or atomic coordinate data resulting 
# from the CCDC's data processing and validation procedures.
#
#######################################################################

data_ATIBOU01
_symmetry_cell_setting           monoclinic
_symmetry_space_group_name_H-M   'P 21/n'
_symmetry_Int_Tables_number      14
_space_group_name_Hall           '-P 2yn'
loop_
_symmetry_equiv_pos_site_id
_symmetry_equiv_pos_as_xyz
1 x,y,z
2 1/2-x,1/2+y,1/2-z
3 -x,-y,-z
4 1/2+x,1/2-y,1/2+z
_cell_length_a                   11.683(2)
_cell_length_b                   10.250(2)
_cell_length_c                   15.154(3)
_cell_angle_alpha                90
_cell_angle_beta                 91.86(3)
_cell_angle_gamma                90
_cell_volume                     1813.75
loop_
_atom_site_label
_atom_site_type_symbol
_atom_site_fract_x
_atom_site_fract_y
_atom_site_fract_z
O1 O 0.90061(12) 0.36630(13) 0.10467(9)
C1 C 0.94216(16) 0.27133(18) 0.06736(13)
H1 H 1.0078 0.2863 0.0358
O2 O 0.84499(12) -0.09550(16) -0.04309(11)
O3 O 0.52240(13) 0.20868(15) 0.00699(10)
C2 C 0.57600(17) 0.28472(18) 0.05491(13)
H2 H 0.5560 0.3724 0.0508
Mn1 Mn 0.75609(2) 0.07657(2) 0.131336(15)
Mn2 Mn 0.76053(2) 0.38760(2) 0.190930(16)
Mn3 Mn 1.0000 0.0000 0.0000
Mn4 Mn 0.5000 0.0000 0.0000
O4 O 0.62658(10) -0.01194(12) 0.21491(8)
O5 O 0.84979(10) -0.08443(12) 0.19419(8)
O6 O 0.90462(10) 0.15559(12) 0.06764(8)
O7 O 0.80414(11) 0.19488(12) 0.24994(8)
O8 O 0.68647(10) -0.02952(13) 0.02069(8)
O9 O 0.65634(11) 0.25528(12) 0.10972(8)
O10 O 0.80842(14) 0.06016(13) 0.36562(9)
O11 O 1.00243(13) -0.12505(16) 0.11447(10)
O12 O 0.46201(12) -0.00760(17) 0.13845(10)
C3 C 0.94070(17) -0.1452(2) 0.17684(13)
H3 H 0.9628 -0.2118 0.2154
C4 C 0.74096(15) -0.09652(19) -0.03471(12)
H4 H 0.6982 -0.1510 -0.0721
C5 C 0.82300(17) 0.16761(17) 0.33029(12)
H5 H 0.8505 0.2346 0.3665
C6 C 0.51908(15) -0.0216(2) 0.20629(12)
H6 H 0.4796 -0.0414 0.2569
O1B O 1.09939(12) -0.36630(13) -0.10467(9)
O1B_2 O 0.09939(12) -0.36630(13) -0.10467(9)
C1B C 1.05784(16) -0.27133(18) -0.06736(13)
H1B H 0.9922 -0.2863 -0.0358
O2B O 1.15501(12) 0.09550(16) 0.04309(11)
O2B_2 O 0.15501(12) 0.09550(16) 0.04309(11)
O3B O 0.47760(13) -0.20868(15) -0.00699(10)
C2B C 0.42400(17) -0.28472(18) -0.05491(13)
H2B H 0.4440 -0.3724 -0.0508
Mn1B Mn 1.24391(2) -0.07657(2) -0.131336(15)
Mn1A Mn 0.74391(2) 0.57657(2) 0.368664(15)
Mn1B_2 Mn 0.24391(2) -0.07657(2) -0.131336(15)
Mn2B Mn 1.23947(2) -0.38760(2) -0.190930(16)
Mn2A Mn 0.73947(2) -0.11240(2) 0.309070(16)
Mn2A_2 Mn 0.73947(2) 0.88760(2) 0.309070(16)
Mn2B_2 Mn 0.23947(2) -0.38760(2) -0.190930(16)
Mn2C Mn 0.26053(2) 0.11240(2) -0.309070(16)
Mn3_2 Mn 0.0000 0.0000 0.0000
Mn4C Mn 1.0000 0.5000 0.5000
O4A O 0.87342(10) 0.48806(12) 0.28509(8)
O4B O 0.37342(10) 0.01194(12) -0.21491(8)
O4C O 0.12658(10) -0.48806(12) -0.28509(8)
O5A O 0.65021(10) 0.41557(12) 0.30581(8)
O5B O 0.15021(10) 0.08443(12) -0.19419(8)
O5C O 0.34979(10) -0.41557(12) -0.30581(8)
O6B O 1.09538(10) -0.15559(12) -0.06764(8)
O6B_2 O 0.09538(10) -0.15559(12) -0.06764(8)
O7A O 0.69586(11) 0.69488(12) 0.25006(8)
O7B O 0.19586(11) -0.19488(12) -0.24994(8)
O8B O 0.31353(10) 0.02952(13) -0.02069(8)
O9B O 0.34366(11) -0.25528(12) -0.10972(8)
O10A O 0.69158(14) 0.56016(13) 0.13438(9)
O10C O 0.30842(14) -0.56016(13) -0.13438(9)
O11B O 0.99757(13) 0.12505(16) -0.11447(10)
O12A O 1.03799(12) 0.49240(17) 0.36155(10)
O12B O 0.53799(12) 0.00760(17) -0.13845(10)
C4B C 0.25904(15) 0.09652(19) 0.03471(12)
H4B H 0.3018 0.1510 0.0721
C5A C 0.67700(17) 0.66761(17) 0.16971(12)
H5A H 0.6495 0.7346 0.1335
C6A C 0.98092(15) 0.4784(2) 0.29371(12)
C6B C 0.48092(15) 0.0216(2) -0.20629(12)
H6A H 1.0204 0.4586 0.2431
H6B H 0.5204 0.0414 -0.2569
O13 O 0.3682(5) 0.3696(5) 0.1629(4)
N1 N 0.2891(3) 0.5719(4) 0.1616(2)
C7 C 0.2784(13) 0.4661(12) 0.1210(8)
H7 H 0.2266 0.4483 0.0746
C8 C 0.3670(10) 0.5938(17) 0.2214(7)
H8 H 0.4097 0.5153 0.2329
H9 H 0.3320 0.6221 0.2746
H10 H 0.4177 0.6606 0.2014
C9 C 0.2211(9) 0.6729(10) 0.1391(8)
H11 H 0.1658 0.6458 0.0946
H12 H 0.2667 0.7425 0.1166
H13 H 0.1822 0.7028 0.1902
loop_
_geom_bond_atom_site_label_1
_geom_bond_atom_site_label_2
_geom_bond_site_symmetry_1
_geom_bond_site_symmetry_2
O1 C1 1_555 1_555
C1 H1 1_555 1_555
O2 Mn3 1_555 1_555
O3 C2 1_555 1_555
C2 H2 1_555 1_555
Mn1 O4 1_555 1_555
Mn2 O1 1_555 1_555
Mn3 O6 1_555 1_555
Mn4 O3 1_555 1_555
O4 C6 1_555 1_555
O5 Mn1 1_555 1_555
O6 C1 1_555 1_555
O7 Mn1 1_555 1_555
O8 Mn1 1_555 1_555
O9 C2 1_555 1_555
O10 C5 1_555 1_555
O11 Mn3 1_555 1_555
O12 Mn4 1_555 1_555
C3 O5 1_555 1_555
H3 C3 1_555 1_555
C4 O2 1_555 1_555
H4 C4 1_555 1_555
C5 O7 1_555 1_555
H5 C5 1_555 1_555
C6 O12 1_555 1_555
H6 C6 1_555 1_555
O13 C7 1_555 1_555
N1 C7 1_555 1_555
C7 H7 1_555 1_555
C8 N1 1_555 1_555
H8 C8 1_555 1_555
H9 C8 1_555 1_555
H10 C8 1_555 1_555
C9 N1 1_555 1_555
H11 C9 1_555 1_555
H12 C9 1_555 1_555
H13 C9 1_555 1_555
O1B C1B 1_555 1_555
O1B_2 Mn2B_2 1_555 1_555
C1B H1B 1_555 1_555
O2B Mn3 1_555 1_555
O2B_2 Mn3_2 1_555 1_555
O3B Mn4 1_555 1_555
C2B O3B 1_555 1_555
H2B C2B 1_555 1_555
Mn1B O6B 1_555 1_555
Mn1A O4A 1_555 1_555
Mn1B_2 O4B 1_555 1_555
Mn2B O1B 1_555 1_555
Mn2A O4 1_555 1_555
Mn2A_2 O7A 1_555 1_555
Mn2B_2 O4C 1_555 1_555
Mn2C O4B 1_555 1_555
Mn3_2 O6B_2 1_555 1_555
Mn4C O12A 1_555 1_555
O4A Mn2 1_555 1_555
O4B C6B 1_555 1_555
O5A Mn2 1_555 1_555
O5B Mn1B_2 1_555 1_555
O5C Mn2B_2 1_555 1_555
O6B Mn3 1_555 1_555
O6B_2 Mn1B_2 1_555 1_555
O7A Mn1A 1_555 1_555
O7B Mn1B_2 1_555 1_555
O8B Mn4 1_555 1_555
O9B C2B 1_555 1_555
O10A Mn2 1_555 1_555
O10C Mn2B_2 1_555 1_555
O11B Mn3 1_555 1_555
O12A C6A 1_555 1_555
O12B Mn4 1_555 1_555
C4B O2B_2 1_555 1_555
H4B C4B 1_555 1_555
C5A O7A 1_555 1_555
H5A C5A 1_555 1_555
C6A O4A 1_555 1_555
C6B O12B 1_555 1_555
H6A C6A 1_555 1_555
H6B C6B 1_555 1_555
Mn1 O6 1_555 1_555
Mn1 O9 1_555 1_555
Mn2 O7 1_555 1_555
Mn2 O9 1_555 1_555
Mn4 O8 1_555 1_555
O5 Mn2A 1_555 1_555
O8 C4 1_555 1_555
O10 Mn2A 1_555 1_555
O11 C3 1_555 1_555
C1B O6B 1_555 1_555
Mn1A O5A 1_555 1_555
Mn1B_2 O8B 1_555 1_555
Mn1B_2 O9B 1_555 1_555
Mn2B_2 O7B 1_555 1_555
Mn2B_2 O9B 1_555 1_555
Mn2C O5B 1_555 1_555
O8B C4B 1_555 1_555
O10A C5A 1_555 1_555

#END
