
#######################################################################
#
#                 Cambridge Crystallographic Data Centre
#                                CCDC 
#
#######################################################################
#
# If this CIF has been generated from an entry in the Cambridge 
# Structural Database, then it will include bibliographic, chemical, 
# crystal, experimental, refinement or atomic coordinate data resulting 
# from the CCDC's data processing and validation procedures.
#
#######################################################################

data_ATIXUX
_symmetry_cell_setting           orthorhombic
_symmetry_space_group_name_H-M   'C c c a'
_symmetry_Int_Tables_number      68
_space_group_name_Hall           '-C 2b 2bc'
loop_
_symmetry_equiv_pos_site_id
_symmetry_equiv_pos_as_xyz
1 x,y,z
2 1/2-x,-y,z
3 -x,y,1/2-z
4 1/2+x,-y,1/2-z
5 1/2+x,1/2+y,z
6 -x,1/2-y,z
7 1/2-x,1/2+y,1/2-z
8 x,1/2-y,1/2-z
9 -x,-y,-z
10 1/2+x,y,-z
11 x,-y,1/2+z
12 1/2-x,y,1/2+z
13 1/2-x,1/2-y,-z
14 x,1/2+y,-z
15 1/2+x,1/2-y,1/2+z
16 -x,1/2+y,1/2+z
_cell_length_a                   8.1040(3)
_cell_length_b                   27.0656(10)
_cell_length_c                   20.4233(8)
_cell_angle_alpha                90
_cell_angle_beta                 90
_cell_angle_gamma                90
_cell_volume                     4479.64
loop_
_atom_site_label
_atom_site_type_symbol
_atom_site_fract_x
_atom_site_fract_y
_atom_site_fract_z
C10 C -0.536(8) 0.266(2) 0.192(2)
C11 C -0.594(7) 0.3791(19) 0.194(3)
H4 H -0.6567 0.3994 0.1648
H5 H -0.4843 0.3921 0.1983
H6 H -0.6462 0.3789 0.2365
N1 N -0.584(7) 0.3153(17) 0.162(2)
H7 H -0.6861 0.3099 0.1461
H8 H -0.5184 0.3178 0.1267
C10E C -0.464(8) 0.234(2) 0.192(2)
C11E C -0.406(7) 0.1209(19) 0.194(3)
H4E H -0.3433 0.1006 0.1648
H5E H -0.5157 0.1079 0.1983
H6E H -0.3538 0.1211 0.2365
N1E N -0.416(7) 0.1847(17) 0.162(2)
H7E H -0.3139 0.1901 0.1461
H8E H -0.4816 0.1822 0.1267
Cd1 Cd -0.5000 0.7500 0.2500
Cd2 Cd 0.0000 0.7500 -0.04930(3)
O1 O -0.0656(7) 0.68084(16) 0.0023(2)
O2 O -0.2367(5) 0.72297(14) 0.06577(19)
O3 O -0.5375(6) 0.6987(2) 0.1461(2)
O4 O -0.3221(6) 0.68967(17) 0.2108(2)
O5 O -0.2500 0.5000 -0.0427(4)
C1 C -0.2822(9) 0.5465(2) 0.0544(3)
C2 C -0.2202(9) 0.5913(2) 0.0335(3)
H1 H -0.1552 0.5923 -0.0040
C3 C -0.2529(8) 0.6351(2) 0.0674(3)
C4 C -0.3523(8) 0.6331(2) 0.1223(3)
C5 C -0.4144(13) 0.5879(3) 0.1434(3)
H2 H -0.4821 0.5867 0.1801
C6 C -0.3763(10) 0.5449(3) 0.1102(4)
H3 H -0.4147 0.5147 0.1257
C7 C -0.1812(8) 0.6831(2) 0.0436(3)
C8 C -0.4029(9) 0.6778(2) 0.1620(3)
C9 C -0.2500 0.5000 0.0170(5)
Cd1A Cd 0.0000 0.2500 0.2500
Cd1A_2 Cd -1.0000 0.2500 0.2500
Cd2A Cd -0.5000 0.2500 -0.04930(3)
Cd2I Cd -0.5000 0.7500 0.04930(3)
Cd2H Cd 0.0000 0.2500 0.04930(3)
Cd2B Cd -1.0000 0.7500 0.54930(3)
Cd2K Cd -0.5000 0.7500 0.45070(3)
Cd2J Cd -1.0000 0.2500 0.45070(3)
Cd2C Cd -0.5000 0.2500 0.54930(3)
O1A O -0.4344(7) 0.31916(16) 0.0023(2)
O1B O -0.9344(7) 0.68084(16) 0.4977(2)
O1C O -0.5656(7) 0.31916(16) 0.4977(2)
O1E O 0.0656(7) 0.81916(16) 0.0023(2)
O1D O -0.5656(7) 0.18084(16) 0.0023(2)
O2A O -0.2633(5) 0.27703(14) 0.06577(19)
O2B O -0.7633(5) 0.72297(14) 0.43423(19)
O2C O -0.7367(5) 0.27703(14) 0.43423(19)
O2I O 0.2633(5) 0.72297(14) -0.06577(19)
O2L O -0.2633(5) 0.77703(14) -0.06577(19)
O2H O -0.7633(5) 0.27703(14) -0.06577(19)
O2M O -0.2367(5) 0.22297(14) -0.06577(19)
O3A O 0.0375(6) 0.3013(2) 0.1461(2)
O3B O -0.4625(6) 0.6987(2) 0.3539(2)
O3C O -1.0375(6) 0.3013(2) 0.3539(2)
O3E O -0.4625(6) 0.8013(2) 0.1461(2)
O3G O -0.5375(6) 0.8013(2) 0.3539(2)
O3I O -0.0375(6) 0.6987(2) -0.1461(2)
O3L O 0.0375(6) 0.8013(2) -0.1461(2)
O3H O -0.4625(6) 0.3013(2) -0.1461(2)
O3M O -0.5375(6) 0.1987(2) -0.1461(2)
O4A O -0.1779(6) 0.31033(17) 0.2108(2)
O4B O -0.6779(6) 0.68967(17) 0.2892(2)
O4C O -0.8221(6) 0.31033(17) 0.2892(2)
O4E O -0.6779(6) 0.81033(17) 0.2108(2)
O4G O -0.3221(6) 0.81033(17) 0.2892(2)
O5B O -0.7500 0.5000 0.5427(4)
C1A C -0.2178(9) 0.4535(2) 0.0544(3)
C1B C -0.7178(9) 0.5465(2) 0.4456(3)
C1C C -0.7822(9) 0.4535(2) 0.4456(3)
C2A C -0.2798(9) 0.4087(2) 0.0335(3)
C2B C -0.7798(9) 0.5913(2) 0.4665(3)
C2C C -0.7202(9) 0.4087(2) 0.4665(3)
H1A H -0.3448 0.4077 -0.0040
H1B H -0.8448 0.5923 0.5040
H1C H -0.6552 0.4077 0.5040
C3A C -0.2471(8) 0.3649(2) 0.0674(3)
C3B C -0.7471(8) 0.6351(2) 0.4326(3)
C3C C -0.7529(8) 0.3649(2) 0.4326(3)
C4A C -0.1477(8) 0.3669(2) 0.1223(3)
C4B C -0.6477(8) 0.6331(2) 0.3777(3)
C4C C -0.8523(8) 0.3669(2) 0.3777(3)
C5A C -0.0856(13) 0.4121(3) 0.1434(3)
C5B C -0.5856(13) 0.5879(3) 0.3566(3)
C5C C -0.9144(13) 0.4121(3) 0.3566(3)
H2A H -0.0179 0.4133 0.1801
H2B H -0.5179 0.5867 0.3199
H2C H -0.9821 0.4133 0.3199
C6A C -0.1237(10) 0.4551(3) 0.1102(4)
C6B C -0.6237(10) 0.5449(3) 0.3898(4)
C6C C -0.8763(10) 0.4551(3) 0.3898(4)
H3A H -0.0853 0.4853 0.1257
H3B H -0.5853 0.5147 0.3743
H3C H -0.9147 0.4853 0.3743
C7A C -0.3188(8) 0.3169(2) 0.0436(3)
C7B C -0.8188(8) 0.6831(2) 0.4564(3)
C7C C -0.6812(8) 0.3169(2) 0.4564(3)
C8A C -0.0971(9) 0.3222(2) 0.1620(3)
C8B C -0.5971(9) 0.6778(2) 0.3380(3)
C8C C -0.9029(9) 0.3222(2) 0.3380(3)
C9B C -0.7500 0.5000 0.4830(5)
loop_
_geom_bond_atom_site_label_1
_geom_bond_atom_site_label_2
_geom_bond_site_symmetry_1
_geom_bond_site_symmetry_2
Cd1 O3 1_555 1_555
Cd2 O1 1_555 1_555
O1 C7 1_555 1_555
O2 C7 1_555 1_555
O3 C8 1_555 1_555
O4 Cd1 1_555 1_555
O5 C9 1_555 1_555
C1 C2 1_555 1_555
C2 H1 1_555 1_555
C3 C2 1_555 1_555
C4 C3 1_555 1_555
C5 C4 1_555 1_555
H2 C5 1_555 1_555
C6 C1 1_555 1_555
H3 C6 1_555 1_555
C7 C3 1_555 1_555
C8 O4 1_555 1_555
C9 C1 1_555 1_555
C10 N1 1_555 1_555
C11 H4 1_555 1_555
H5 C11 1_555 1_555
H6 C11 1_555 1_555
N1 C11 1_555 1_555
H7 N1 1_555 1_555
H8 N1 1_555 1_555
Cd1A O3A 1_555 1_555
Cd1A_2 O3C 1_555 1_555
Cd2A O1A 1_555 1_555
Cd2I O2 1_555 1_555
Cd2H O2A 1_555 1_555
Cd2B O1B 1_555 1_555
Cd2K O2B 1_555 1_555
Cd2J O2C 1_555 1_555
Cd2C O1C 1_555 1_555
O1A C7A 1_555 1_555
O1B C7B 1_555 1_555
O1C C7C 1_555 1_555
O1E Cd2 1_555 1_555
O1D Cd2A 1_555 1_555
O2A C7A 1_555 1_555
O2B C7B 1_555 1_555
O2C C7C 1_555 1_555
O2I Cd2 1_555 1_555
O2L Cd2 1_555 1_555
O2H Cd2A 1_555 1_555
O2M Cd2A 1_555 1_555
O3A Cd2H 1_555 1_555
O3B Cd1 1_555 1_555
O3C Cd2J 1_555 1_555
O3E Cd1 1_555 1_555
O3G Cd1 1_555 1_555
O3I Cd2 1_555 1_555
O3L Cd2 1_555 1_555
O3H Cd2A 1_555 1_555
O3M Cd2A 1_555 1_555
O4A Cd1A 1_555 1_555
O4B Cd1 1_555 1_555
O4C Cd1A_2 1_555 1_555
O4E Cd1 1_555 1_555
O4G Cd1 1_555 1_555
O5B C9B 1_555 1_555
C1A C9 1_555 1_555
C1B C2B 1_555 1_555
C1C C2C 1_555 1_555
C2A C1A 1_555 1_555
C2B H1B 1_555 1_555
C2C H1C 1_555 1_555
H1A C2A 1_555 1_555
C3A C2A 1_555 1_555
C3B C2B 1_555 1_555
C3C C2C 1_555 1_555
C4A C3A 1_555 1_555
C4B C3B 1_555 1_555
C4C C3C 1_555 1_555
C5A C4A 1_555 1_555
C5B C4B 1_555 1_555
C5C C4C 1_555 1_555
H2A C5A 1_555 1_555
H2B C5B 1_555 1_555
H2C C5C 1_555 1_555
C6A C1A 1_555 1_555
C6B C1B 1_555 1_555
C6C C1C 1_555 1_555
H3A C6A 1_555 1_555
H3B C6B 1_555 1_555
H3C C6C 1_555 1_555
C7A C3A 1_555 1_555
C7B C3B 1_555 1_555
C7C C3C 1_555 1_555
C8A O3A 1_555 1_555
C8B O3B 1_555 1_555
C8C O3C 1_555 1_555
C9B C1B 1_555 1_555
C10E C10 1_555 1_555
C11E H4E 1_555 1_555
H5E C11E 1_555 1_555
H6E C11E 1_555 1_555
N1E C10E 1_555 1_555
H7E N1E 1_555 1_555
H8E N1E 1_555 1_555
O3 Cd2I 1_555 1_555
C4 C8 1_555 1_555
C5 C6 1_555 1_555
Cd2I O3E 1_555 1_555
Cd2K O3B 1_555 1_555
Cd2K O3G 1_555 1_555
O4A C8A 1_555 1_555
O4B C8B 1_555 1_555
O4C C8C 1_555 1_555
C1C C9B 1_555 1_555
C4A C8A 1_555 1_555
C4B C8B 1_555 1_555
C4C C8C 1_555 1_555
C5A C6A 1_555 1_555
C5B C6B 1_555 1_555
C5C C6C 1_555 1_555
C11E N1E 1_555 1_555

#END
