
#######################################################################
#
#                 Cambridge Crystallographic Data Centre
#                                CCDC 
#
#######################################################################
#
# If this CIF has been generated from an entry in the Cambridge 
# Structural Database, then it will include bibliographic, chemical, 
# crystal, experimental, refinement or atomic coordinate data resulting 
# from the CCDC's data processing and validation procedures.
#
#######################################################################

data_ATOWIQ
_symmetry_cell_setting           monoclinic
_symmetry_space_group_name_H-M   'C 2/m'
_symmetry_Int_Tables_number      12
_space_group_name_Hall           '-C 2y'
loop_
_symmetry_equiv_pos_site_id
_symmetry_equiv_pos_as_xyz
1 x,y,z
2 -x,y,-z
3 1/2+x,1/2+y,z
4 1/2-x,1/2+y,-z
5 -x,-y,-z
6 x,-y,z
7 1/2-x,1/2-y,-z
8 1/2+x,1/2-y,z
_cell_length_a                   21.222(19)
_cell_length_b                   17.716(16)
_cell_length_c                   14.376(13)
_cell_angle_alpha                90
_cell_angle_beta                 127.821(9)
_cell_angle_gamma                90
_cell_volume                     4269.52
loop_
_atom_site_label
_atom_site_type_symbol
_atom_site_fract_x
_atom_site_fract_y
_atom_site_fract_z
Zn1 Zn 0.0000 0.10439(6) 0.5000
Zn2 Zn 0.48066(6) 0.5000 1.08497(9)
N1 N 0.0278(5) 0.0000 0.7823(7)
N2 N 0.0130(3) 0.0380(3) 0.6241(5)
O1 O 0.4002(4) 0.4223(4) 0.9718(5)
O2 O 0.4322(4) 0.4201(3) 0.8509(5)
O3 O 0.0903(4) 0.1730(4) 0.5924(6)
O4 O 0.1483(9) 0.1374(10) 0.5232(15)
H1 H 0.1658 0.0917 0.5410
C1 C 0.3917(5) 0.3992(4) 0.8825(7)
C2 C 0.3269(5) 0.3413(5) 0.8067(7)
C3 C 0.2740(6) 0.3225(7) 0.8245(9)
H2 H 0.2765 0.3458 0.8847
C4 C 0.2152(6) 0.2688(7) 0.7544(9)
H3 H 0.1810 0.2551 0.7715
C5 C 0.2066(6) 0.2364(6) 0.6638(8)
C6 C 0.2649(8) 0.2510(9) 0.6511(12)
H4 H 0.2653 0.2237 0.5963
C7 C 0.3217(7) 0.3047(8) 0.7173(10)
H5 H 0.3573 0.3168 0.7022
C8 C 0.1416(7) 0.1801(7) 0.5851(10)
C9 C 0.0229(4) 0.0598(4) 0.7210(6)
C10 C 0.0281(7) 0.1395(5) 0.7569(9)
H6 H -0.0176 0.1668 0.6936
H7 H 0.0296 0.1412 0.8250
H8 H 0.0757 0.1621 0.7755
Zn1D Zn 0.0000 -0.10439(6) 0.5000
Zn2C Zn 0.01934(6) 0.0000 0.91503(9)
Zn2A Zn 0.51934(6) 0.5000 0.91503(9)
Zn2A_2 Zn -0.48066(6) 0.5000 -0.08497(9)
Zn2_2 Zn -0.51934(6) 0.5000 0.08497(9)
N1C N 0.4722(5) 0.5000 1.2177(7)
N2E N 0.0130(3) -0.0380(3) 0.6241(5)
N2A N -0.0130(3) 0.0380(3) 0.3759(5)
O1A O -0.4002(4) 0.4223(4) 0.0282(5)
O1E O 0.4002(4) 0.5777(4) 0.9718(5)
O2A O -0.4322(4) 0.4201(3) 0.1491(5)
O2A_2 O 0.5678(4) 0.4201(3) 1.1491(5)
O2D O 0.5678(4) 0.5799(3) 1.1491(5)
O3A O -0.0903(4) 0.1730(4) 0.4076(6)
O4A O -0.1483(9) 0.1374(10) 0.4768(15)
H1A H -0.1658 0.0917 0.4590
C1A C -0.3917(5) 0.3992(4) 0.1175(7)
C2A C -0.3269(5) 0.3413(5) 0.1933(7)
C3A C -0.2740(6) 0.3225(7) 0.1755(9)
H2A H -0.2765 0.3458 0.1153
C4A C -0.2152(6) 0.2688(7) 0.2456(9)
H3A H -0.1810 0.2551 0.2285
C5A C -0.2066(6) 0.2364(6) 0.3362(8)
C6A C -0.2649(8) 0.2510(9) 0.3489(12)
H4A H -0.2653 0.2237 0.4037
C7A C -0.3217(7) 0.3047(8) 0.2827(10)
H5A H -0.3573 0.3168 0.2978
C8A C -0.1416(7) 0.1801(7) 0.4149(10)
C9E C 0.0229(4) -0.0598(4) 0.7210(6)
C10E C 0.0281(7) -0.1395(5) 0.7569(9)
H6E H -0.0176 -0.1668 0.6936
H7E H 0.0296 -0.1412 0.8250
H8E H 0.0757 -0.1621 0.7755
N3 N 0.296(3) 0.5000 0.528(6)
C11 C 0.221(4) 0.5000 0.418(6)
O5 O 0.281(3) 0.5000 0.201(6)
O6 O 0.252(3) 0.5000 0.047(6)
loop_
_geom_bond_atom_site_label_1
_geom_bond_atom_site_label_2
_geom_bond_site_symmetry_1
_geom_bond_site_symmetry_2
Zn1 N2 1_555 1_555
Zn2 O1 1_555 1_555
N1 C9 1_555 1_555
N2 C9 1_555 1_555
N3 C11 1_555 1_555
O1 C1 1_555 1_555
O2 C1 1_555 1_555
O3 Zn1 1_555 1_555
O4 H1 1_555 1_555
C1 C2 1_555 1_555
C2 C3 1_555 1_555
C3 H2 1_555 1_555
C4 C3 1_555 1_555
H3 C4 1_555 1_555
C5 C4 1_555 1_555
C6 C5 1_555 1_555
H4 C6 1_555 1_555
C7 C2 1_555 1_555
H5 C7 1_555 1_555
C8 O3 1_555 1_555
C9 C10 1_555 1_555
C10 H6 1_555 1_555
H7 C10 1_555 1_555
H8 C10 1_555 1_555
Zn1D N2E 1_555 1_555
Zn2C N1 1_555 1_555
Zn2A O2 1_555 1_555
Zn2A_2 O1A 1_555 1_555
Zn2_2 O2A 1_555 1_555
N1C Zn2 1_555 1_555
N2E N2 1_555 1_555
N2A Zn1 1_555 1_555
O1A C1A 1_555 1_555
O1E Zn2 1_555 1_555
O2A C1A 1_555 1_555
O2A_2 Zn2 1_555 1_555
O2D Zn2 1_555 1_555
O3A Zn1 1_555 1_555
O4A H1A 1_555 1_555
C1A C2A 1_555 1_555
C2A C3A 1_555 1_555
C3A H2A 1_555 1_555
C4A C3A 1_555 1_555
H3A C4A 1_555 1_555
C5A C4A 1_555 1_555
C6A C5A 1_555 1_555
H4A C6A 1_555 1_555
C7A C2A 1_555 1_555
H5A C7A 1_555 1_555
C8A O3A 1_555 1_555
C9E N1 1_555 1_555
C10E C9E 1_555 1_555
H6E C10E 1_555 1_555
H7E C10E 1_555 1_555
H8E C10E 1_555 1_555
O4 C8 1_555 1_555
C5 C8 1_555 1_555
C6 C7 1_555 1_555
N2E C9E 1_555 1_555
O4A C8A 1_555 1_555
C5A C8A 1_555 1_555
C6A C7A 1_555 1_555

#END
