
#######################################################################
#
#                 Cambridge Crystallographic Data Centre
#                                CCDC 
#
#######################################################################
#
# If this CIF has been generated from an entry in the Cambridge 
# Structural Database, then it will include bibliographic, chemical, 
# crystal, experimental, refinement or atomic coordinate data resulting 
# from the CCDC's data processing and validation procedures.
#
#######################################################################

data_AWIBEO
_symmetry_cell_setting           monoclinic
_symmetry_space_group_name_H-M   'C 2/c'
_symmetry_Int_Tables_number      15
_space_group_name_Hall           '-C 2yn'
loop_
_symmetry_equiv_pos_site_id
_symmetry_equiv_pos_as_xyz
1 x,y,z
2 -x,y,1/2-z
3 1/2+x,1/2+y,z
4 1/2-x,1/2+y,1/2-z
5 -x,-y,-z
6 x,-y,1/2+z
7 1/2-x,1/2-y,-z
8 1/2+x,1/2-y,1/2+z
_cell_length_a                   20.014(5)
_cell_length_b                   37.956(8)
_cell_length_c                   25.085(8)
_cell_angle_alpha                90
_cell_angle_beta                 109.384(3)
_cell_angle_gamma                90
_cell_volume                     17975.7
loop_
_atom_site_label
_atom_site_type_symbol
_atom_site_fract_x
_atom_site_fract_y
_atom_site_fract_z
Cu1 Cu 0.53904(3) 0.126611(12) 0.33228(2)
Cu2 Cu 0.5000 0.190282(18) 0.2500
Cu3 Cu 0.55122(3) -0.026320(12) 0.36623(2)
Cu4 Cu 1.09482(2) 0.254859(12) 0.50078(2)
Cu5 Cu 0.79563(2) 0.217639(13) 0.38377(2)
Cu6 Cu 1.00591(3) 0.328712(12) 0.43257(2)
Cu7 Cu 0.31445(3) 0.206690(13) 0.38200(2)
Cu8 Cu 1.14895(3) 0.330824(13) 0.40653(2)
Cu9 Cu 0.61018(3) 0.093178(12) 0.24663(2)
Br1 Br 1.13121(2) 0.321003(10) 0.510959(16)
C1 C 1.2190(2) 0.20598(10) 0.54553(17)
C2 C 1.1457(2) 0.18362(12) 0.44929(19)
H1 H 1.1411 0.2064 0.4348
C3 C 1.1162(3) 0.12204(13) 0.4363(2)
C4 C 1.1626(3) 0.11575(13) 0.4908(2)
H2 H 1.1696 0.0928 0.5044
C5 C 1.1888(2) 0.17760(11) 0.50532(18)
C6 C 1.1980(2) 0.14274(12) 0.5248(2)
H3 H 1.2284 0.1379 0.5611
C7 C 1.1097(3) 0.15606(13) 0.4150(2)
H4 H 1.0814 0.1605 0.3779
C8 C 1.2841(2) 0.23443(11) 0.61903(17)
C9 C 1.3387(2) 0.24487(12) 0.67231(18)
C10 C 1.3792(2) 0.22016(14) 0.7108(2)
H5 H 1.3746 0.1964 0.7011
C11 C 1.4265(3) 0.23008(17) 0.7635(2)
H6 H 1.4526 0.2130 0.7882
C12 C 1.3474(3) 0.28019(13) 0.6887(2)
H7 H 1.3215 0.2974 0.6640
C13 C 1.4346(3) 0.26525(17) 0.7793(2)
C14 C 1.3942(3) 0.29029(15) 0.7414(2)
H8 H 1.3986 0.3140 0.7513
C15 C 0.6058(2) -0.09598(10) 0.38188(18)
C16 C 0.6704(2) -0.08612(11) 0.36996(19)
C17 C 0.6969(3) -0.10612(12) 0.3353(2)
H9 H 0.6713 -0.1255 0.3165
C18 C 0.7612(3) -0.09770(13) 0.3282(2)
H10 H 0.7777 -0.1112 0.3043
C19 C 0.7094(2) -0.05694(12) 0.3971(2)
H11 H 0.6922 -0.0430 0.4202
C20 C 0.8007(3) -0.06925(14) 0.3566(3)
C21 C 0.7730(3) -0.04839(13) 0.3903(2)
H12 H 0.7977 -0.0286 0.4082
C22 C 0.5122(2) -0.09346(10) 0.40662(18)
C23 C 0.4583(3) -0.04358(12) 0.4423(2)
H13 H 0.4955 -0.0295 0.4405
C24 C 0.4071(3) -0.02931(14) 0.4613(3)
H14 H 0.4116 -0.0060 0.4734
C25 C 0.4555(2) -0.07874(12) 0.4256(2)
C26 C 0.4011(3) -0.09938(14) 0.4311(2)
H15 H 0.4004 -0.1234 0.4236
C27 C 0.3471(4) -0.08454(18) 0.4479(3)
H16 H 0.3096 -0.0986 0.4492
C28 C 0.3489(4) -0.04860(18) 0.4629(3)
C29 C 0.7265(2) 0.14184(11) 0.41284(18)
C30 C 0.7628(3) 0.15477(12) 0.4666(2)
H17 H 0.7588 0.1785 0.4740
C31 C 0.7332(3) 0.10660(12) 0.4024(2)
H18 H 0.7089 0.0972 0.3670
C32 C 0.6826(2) 0.16556(11) 0.36761(18)
C33 C 0.8049(3) 0.13332(14) 0.5095(2)
H19 H 0.8276 0.1426 0.5452
C34 C 0.7764(3) 0.08497(13) 0.4448(2)
H20 H 0.7810 0.0613 0.4372
C35 C 0.8130(3) 0.09825(13) 0.4988(2)
C36 C 0.6487(2) 0.24266(11) 0.28042(17)
C37 C 0.7013(2) 0.24999(11) 0.25645(18)
H21 H 0.7395 0.2348 0.2625
C38 C 0.6962(2) 0.27993(12) 0.22386(19)
H22 H 0.7317 0.2849 0.2086
C39 C 0.5929(2) 0.26634(11) 0.27218(17)
H23 H 0.5587 0.2621 0.2890
C40 C 0.6499(2) 0.20988(10) 0.31179(17)
C41 C 0.6390(2) 0.30254(12) 0.21360(18)
C42 C 0.5881(2) 0.29604(11) 0.23933(19)
H24 H 0.5508 0.3117 0.2343
C43 C 0.5932(2) 0.02829(10) 0.30547(18)
C44 C 0.6342(2) 0.00538(11) 0.27978(18)
C45 C 0.6068(3) -0.02647(11) 0.2544(2)
H25 H 0.5645 -0.0350 0.2572
C46 C 0.7060(4) -0.03357(14) 0.2208(3)
C47 C 0.6996(3) 0.01693(12) 0.2774(2)
H26 H 0.7190 0.0379 0.2950
C48 C 0.6426(3) -0.04544(12) 0.2251(2)
H27 H 0.6236 -0.0666 0.2079
C49 C 0.7353(3) -0.00258(14) 0.2491(3)
H28 H 0.7795 0.0049 0.2489
C50 C 0.4126(3) 0.03669(12) 0.3663(2)
H29 H 0.4044 0.0180 0.3410
C51 C 0.4364(3) 0.09182(12) 0.44226(19)
H30 H 0.4447 0.1105 0.4677
C52 C 0.4764(2) 0.05494(10) 0.38038(17)
C53 C 0.5270(2) 0.04933(10) 0.34997(17)
C54 C 0.4874(3) 0.08279(11) 0.41929(18)
H31 H 0.5298 0.0952 0.4296
C55 C 0.3723(3) 0.07365(13) 0.4283(2)
C56 C 0.3605(3) 0.04594(13) 0.3896(2)
H32 H 0.3179 0.0336 0.3793
C57 C 0.9632(2) 0.19272(11) 0.46297(18)
C58 C 1.0145(2) 0.18406(11) 0.51522(18)
H33 H 1.0389 0.2020 0.5389
C59 C 0.9273(2) 0.16537(11) 0.4279(2)
H34 H 0.8931 0.1704 0.3933
C60 C 0.9426(3) 0.13063(12) 0.4447(2)
H35 H 0.9186 0.1126 0.4211
C61 C 0.9477(2) 0.22943(10) 0.44509(17)
C62 C 1.0291(2) 0.14982(12) 0.53184(19)
H36 H 1.0629 0.1448 0.5667
C63 C 0.9937(3) 0.12232(11) 0.4969(2)
C64 C 0.8921(2) 0.27614(11) 0.40575(17)
C65 C 0.7691(2) 0.29932(11) 0.38549(18)
H37 H 0.7609 0.2816 0.4082
C66 C 0.7164(2) 0.32361(11) 0.3614(2)
H38 H 0.6734 0.3220 0.3680
C67 C 0.7273(2) 0.35058(12) 0.32742(19)
C68 C 0.7919(3) 0.35135(12) 0.3168(2)
H39 H 0.7992 0.3685 0.2929
C69 C 0.8449(2) 0.32707(11) 0.34131(19)
H40 H 0.8876 0.3284 0.3342
C70 C 0.8348(2) 0.30060(11) 0.37662(18)
C71 C 0.3323(2) 0.14671(11) 0.31122(17)
C72 C 0.2589(2) 0.13398(11) 0.28758(18)
C73 C 0.2329(3) 0.12303(14) 0.2315(2)
H41 H 0.2595 0.1276 0.2081
C74 C 0.2178(3) 0.12805(18) 0.3217(3)
H42 H 0.2341 0.1349 0.3595
C75 C 0.1695(3) 0.10580(17) 0.2095(2)
H43 H 0.1544 0.0986 0.1719
C76 C 0.1284(3) 0.0991(2) 0.2420(3)
C77 C 0.1516(4) 0.1116(3) 0.2989(3)
H44 H 0.1226 0.1089 0.3209
C78 C 0.4821(2) 0.19976(11) 0.38808(17)
C79 C 0.4724(3) 0.23484(12) 0.37265(19)
H45 H 0.4299 0.2422 0.3462
C80 C 0.5258(3) 0.25908(12) 0.3965(2)
H46 H 0.5190 0.2826 0.3854
C81 C 0.5990(3) 0.21343(14) 0.4541(2)
H47 H 0.6405 0.2061 0.4818
C82 C 0.5902(3) 0.24859(13) 0.4373(2)
C83 C 0.4290(2) 0.17367(10) 0.35595(18)
C84 C 0.5452(2) 0.18941(11) 0.42928(18)
H48 H 0.5515 0.1659 0.4403
N1 N 0.55048(19) 0.07648(8) 0.32784(15)
N2 N 0.55290(19) 0.01851(8) 0.33751(14)
N3 N 0.59285(18) 0.06270(9) 0.29893(15)
N4 N 1.28177(18) 0.20434(9) 0.58956(15)
N5 N 1.22591(18) 0.25406(9) 0.59433(15)
N6 N 1.18441(17) 0.23569(9) 0.54694(14)
N7 N 0.99596(18) 0.25473(9) 0.45586(15)
N8 N 0.95978(18) 0.28500(9) 0.43083(15)
N9 N 0.88178(18) 0.24139(9) 0.41393(15)
N10 N 0.52924(18) -0.12697(9) 0.40746(16)
N11 N 0.59037(19) -0.12889(9) 0.39172(16)
N12 N 0.55752(19) -0.07326(9) 0.38935(15)
N13 N 0.38513(19) 0.12939(9) 0.30188(15)
N14 N 0.44717(18) 0.14676(8) 0.33006(15)
N15 N 0.35738(19) 0.17476(9) 0.34545(15)
N16 N 0.70685(18) 0.19632(9) 0.35301(15)
N17 N 0.61502(18) 0.16027(9) 0.33650(15)
N18 N 0.59385(18) 0.18862(8) 0.30081(15)
N19 N 0.6748(2) 0.37549(11) 0.3034(2)
H49 H 0.6350 0.3744 0.3095
H50 H 0.6822 0.3920 0.2825
N20 N 0.6319(3) 0.33100(12) 0.1780(2)
H51 H 0.6631 0.3348 0.1620
H52 H 0.5962 0.3449 0.1719
N21 N 0.3229(3) 0.08179(14) 0.4543(2)
H53 H 0.3316 0.0982 0.4792
H54 H 0.2836 0.0704 0.4453
N22 N 0.7417(4) -0.05270(14) 0.1914(3)
H55 H 0.7245 -0.0723 0.1754
H56 H 0.7811 -0.0449 0.1891
N23 N 0.6452(3) 0.27255(14) 0.4605(2)
H57 H 0.6842 0.2656 0.4851
H58 H 0.6400 0.2943 0.4503
N24 N 1.0771(2) 0.09427(11) 0.4032(2)
H59 H 1.0489 0.0983 0.3695
H60 H 1.0814 0.0732 0.4167
N25 N 1.0112(3) 0.08793(11) 0.5123(2)
H61 H 1.0441 0.0832 0.5437
H62 H 0.9892 0.0711 0.4907
N26 N 1.4829(3) 0.27487(18) 0.8317(2)
H63 H 1.5075 0.2590 0.8542
H64 H 1.4880 0.2967 0.8415
N27 N 0.8542(3) 0.07619(14) 0.5432(2)
H65 H 0.8740 0.0847 0.5765
H66 H 0.8595 0.0543 0.5368
N28 N 0.8673(3) -0.06182(14) 0.3532(3)
H67 H 0.8847 -0.0750 0.3333
H68 H 0.8910 -0.0441 0.3712
N29 N 0.2968(4) -0.0331(2) 0.4786(4)
H69 H 0.2998 -0.0112 0.4876
H70 H 0.2610 -0.0453 0.4795
N30 N 0.0620(4) 0.0818(3) 0.2188(4)
H71 H 0.0475 0.0754 0.1840
H72 H 0.0363 0.0777 0.2397
Cu1A Cu 0.46096(3) 0.126611(12) 0.16772(2)
Cu3A Cu 0.44878(3) -0.026320(12) 0.13377(2)
Cu3B Cu 1.05122(3) 0.473680(12) 0.36623(2)
Cu4A Cu -0.09482(2) 0.254859(12) -0.00078(2)
Cu4F Cu 0.40518(2) 0.245141(12) 0.49922(2)
Cu5A Cu 0.20437(2) 0.217639(13) 0.11623(2)
Cu6A Cu -0.00591(3) 0.328712(12) 0.06743(2)
Cu6B Cu 0.50591(3) -0.171288(12) 0.43257(2)
Cu6F Cu 0.49409(3) 0.171288(12) 0.56743(2)
Cu7A Cu 0.68555(3) 0.206690(13) 0.11800(2)
Cu7F Cu 1.18555(3) 0.293310(13) 0.61800(2)
Cu8F Cu 0.35105(3) 0.169176(13) 0.59347(2)
Cu8F_2 Cu 1.35105(3) 0.169176(13) 0.59347(2)
Cu8B Cu 0.64895(3) -0.169176(13) 0.40653(2)
Cu8_2 Cu 0.14895(3) 0.330824(13) 0.40653(2)
Cu9A Cu 0.38982(3) 0.093178(12) 0.25337(2)
Br1F Br 0.36879(2) 0.178997(10) 0.489041(16)
Br1A Br -0.13121(2) 0.321003(10) -0.010959(16)
Br1G Br 0.63121(2) 0.178997(10) 0.010959(16)
C1F C 0.2810(2) 0.29402(10) 0.45447(17)
C2F C 0.3543(2) 0.31638(12) 0.55071(19)
H1F H 0.3589 0.2936 0.5652
C3F C 0.3838(3) 0.37796(13) 0.5637(2)
C4F C 0.3374(3) 0.38425(13) 0.5092(2)
H2F H 0.3304 0.4072 0.4956
C5F C 0.3112(2) 0.32240(11) 0.49468(18)
C6F C 0.3020(2) 0.35726(12) 0.4752(2)
H3F H 0.2716 0.3621 0.4389
C7F C 0.3903(3) 0.34394(13) 0.5850(2)
H4F H 0.4186 0.3395 0.6221
C8F C 0.2159(2) 0.26557(11) 0.38097(17)
C9F C 0.1613(2) 0.25513(12) 0.32769(18)
C10F C 0.1208(2) 0.27984(14) 0.2892(2)
H5F H 0.1254 0.3036 0.2989
C11F C 0.0735(3) 0.26992(17) 0.2365(2)
H6F H 0.0474 0.2870 0.2118
C12F C 0.1526(3) 0.21981(13) 0.3113(2)
H7F H 0.1785 0.2026 0.3360
C13F C 0.0654(3) 0.23475(17) 0.2207(2)
C14F C 0.1058(3) 0.20971(15) 0.2586(2)
H8F H 0.1014 0.1860 0.2487
C15B C 1.1058(2) 0.40402(10) 0.38188(18)
C16B C 1.1704(2) 0.41388(11) 0.36996(19)
C17B C 1.1969(3) 0.39388(12) 0.3353(2)
H9B H 1.1713 0.3745 0.3165
C18B C 1.2612(3) 0.40230(13) 0.3282(2)
H10B H 1.2777 0.3888 0.3043
C19B C 1.2094(2) 0.44306(12) 0.3971(2)
H11B H 1.1922 0.4570 0.4202
C20B C 1.3007(3) 0.43075(14) 0.3566(3)
C21B C 1.2730(3) 0.45161(13) 0.3903(2)
H12B H 1.2977 0.4714 0.4082
C22B C 1.0122(2) 0.40654(10) 0.40662(18)
C23B C 0.9583(3) 0.45642(12) 0.4423(2)
H13B H 0.9955 0.4705 0.4405
C24B C 0.9071(3) 0.47069(14) 0.4613(3)
H14B H 0.9116 0.4940 0.4734
C25B C 0.9555(2) 0.42126(12) 0.4256(2)
C26B C 0.9011(3) 0.40062(14) 0.4311(2)
H15B H 0.9004 0.3766 0.4236
C27B C 0.8471(4) 0.41546(18) 0.4479(3)
H16B H 0.8096 0.4014 0.4492
C28B C 0.8489(4) 0.45140(18) 0.4629(3)
C29A C 0.2735(2) 0.14184(11) 0.08716(18)
C30A C 0.2372(3) 0.15477(12) 0.0334(2)
H17A H 0.2412 0.1785 0.0260
C31A C 0.2668(3) 0.10660(12) 0.0976(2)
H18A H 0.2911 0.0972 0.1330
C32A C 0.3174(2) 0.16556(11) 0.13239(18)
C33A C 0.1951(3) 0.13332(14) -0.0095(2)
H19A H 0.1724 0.1426 -0.0452
C34A C 0.2236(3) 0.08497(13) 0.0552(2)
H20A H 0.2190 0.0613 0.0628
C35A C 0.1870(3) 0.09825(13) 0.0012(2)
C36A C 0.3513(2) 0.24266(11) 0.21958(17)
C37A C 0.2987(2) 0.24999(11) 0.24355(18)
H21A H 0.2605 0.2348 0.2375
C38A C 0.3038(2) 0.27993(12) 0.27614(19)
H22A H 0.2683 0.2849 0.2914
C39A C 0.4071(2) 0.26634(11) 0.22782(17)
H23A H 0.4413 0.2621 0.2110
C40A C 0.3501(2) 0.20988(10) 0.18821(17)
C41A C 0.3610(2) 0.30254(12) 0.28640(18)
C42A C 0.4119(2) 0.29604(11) 0.26067(19)
H24A H 0.4492 0.3117 0.2657
C43A C 0.4068(2) 0.02829(10) 0.19453(18)
C44A C 0.3658(2) 0.00538(11) 0.22022(18)
C45A C 0.3932(3) -0.02647(11) 0.2456(2)
H25A H 0.4355 -0.0350 0.2428
C46A C 0.2940(4) -0.03357(14) 0.2792(3)
C47A C 0.3004(3) 0.01693(12) 0.2226(2)
H26A H 0.2810 0.0379 0.2050
C48A C 0.3574(3) -0.04544(12) 0.2749(2)
H27A H 0.3764 -0.0666 0.2921
C49A C 0.2647(3) -0.00258(14) 0.2509(3)
H28A H 0.2205 0.0049 0.2511
C50A C 0.5874(3) 0.03669(12) 0.1337(2)
H29A H 0.5956 0.0180 0.1590
C51A C 0.5636(3) 0.09182(12) 0.05774(19)
H30A H 0.5553 0.1105 0.0323
C52A C 0.5236(2) 0.05494(10) 0.11962(17)
C53A C 0.4730(2) 0.04933(10) 0.15003(17)
C54A C 0.5126(3) 0.08279(11) 0.08071(18)
H31A H 0.4702 0.0952 0.0704
C55A C 0.6277(3) 0.07365(13) 0.0717(2)
C56A C 0.6395(3) 0.04594(13) 0.1104(2)
H32A H 0.6821 0.0336 0.1207
C57A C 0.0368(2) 0.19272(11) 0.03703(18)
C58A C -0.0145(2) 0.18406(11) -0.01522(18)
H33A H -0.0389 0.2020 -0.0389
C59A C 0.0727(2) 0.16537(11) 0.0721(2)
H34A H 0.1069 0.1704 0.1067
C60A C 0.0574(3) 0.13063(12) 0.0553(2)
H35A H 0.0814 0.1126 0.0789
C61A C 0.0523(2) 0.22943(10) 0.05491(17)
C62A C -0.0291(2) 0.14982(12) -0.03184(19)
H36A H -0.0629 0.1448 -0.0667
C63A C 0.0063(3) 0.12232(11) 0.0031(2)
C64A C 0.1079(2) 0.27614(11) 0.09425(17)
C65A C 0.2309(2) 0.29932(11) 0.11451(18)
H37A H 0.2391 0.2816 0.0918
C66A C 0.2836(2) 0.32361(11) 0.1386(2)
H38A H 0.3266 0.3220 0.1320
C67A C 0.2727(2) 0.35058(12) 0.17258(19)
C68A C 0.2081(3) 0.35135(12) 0.1832(2)
H39A H 0.2008 0.3685 0.2071
C69A C 0.1551(2) 0.32707(11) 0.15869(19)
H40A H 0.1124 0.3284 0.1658
C70A C 0.1652(2) 0.30060(11) 0.12338(18)
C71A C 0.6677(2) 0.14671(11) 0.18878(17)
C72A C 0.7411(2) 0.13398(11) 0.21242(18)
C73A C 0.7671(3) 0.12303(14) 0.2685(2)
H41A H 0.7405 0.1276 0.2919
C74A C 0.7822(3) 0.12805(18) 0.1783(3)
H42A H 0.7659 0.1349 0.1405
C75A C 0.8305(3) 0.10580(17) 0.2905(2)
H43A H 0.8456 0.0986 0.3281
C76A C 0.8716(3) 0.0991(2) 0.2580(3)
C77A C 0.8484(4) 0.1116(3) 0.2011(3)
H44A H 0.8774 0.1089 0.1791
C78A C 0.5179(2) 0.19976(11) 0.11192(17)
C79A C 0.5276(3) 0.23484(12) 0.12735(19)
H45A H 0.5701 0.2422 0.1538
C80A C 0.4742(3) 0.25908(12) 0.1035(2)
H46A H 0.4810 0.2826 0.1146
C81A C 0.4010(3) 0.21343(14) 0.0459(2)
H47A H 0.3595 0.2061 0.0182
C82A C 0.4098(3) 0.24859(13) 0.0627(2)
C83A C 0.5710(2) 0.17367(10) 0.14405(18)
C84A C 0.4548(2) 0.18941(11) 0.07072(18)
H48A H 0.4485 0.1659 0.0597
N1A N 0.44952(19) 0.07648(8) 0.17216(15)
N2A N 0.44710(19) 0.01851(8) 0.16249(14)
N3A N 0.40715(18) 0.06270(9) 0.20107(15)
N4F N 0.21823(18) 0.29566(9) 0.41044(15)
N4F_2 N 1.21823(18) 0.29566(9) 0.41044(15)
N4_2 N 0.28177(18) 0.20434(9) 0.58956(15)
N5F N 0.27409(18) 0.24594(9) 0.40567(15)
N5G N 0.72591(18) 0.24594(9) 0.09433(15)
N6F N 0.31559(17) 0.26431(9) 0.45306(14)
N6A N -0.18441(17) 0.23569(9) -0.04694(14)
N7A N 0.00404(18) 0.25473(9) 0.04414(15)
N8A N 0.04022(18) 0.28500(9) 0.06917(15)
N9A N 0.11822(18) 0.24139(9) 0.08607(15)
N10B N 1.02924(18) 0.37303(9) 0.40746(16)
N10C N -0.02924(18) 0.37303(9) 0.09254(16)
N11B N 1.09037(19) 0.37111(9) 0.39172(16)
N11D N 0.40963(19) 0.12889(9) 0.60828(16)
N12B N 1.05752(19) 0.42674(9) 0.38935(15)
N12A N 0.44248(19) -0.07326(9) 0.11065(15)
N13A N 0.61487(19) 0.12939(9) 0.19812(15)
N14A N 0.55283(18) 0.14676(8) 0.16994(15)
N15A N 0.64262(19) 0.17476(9) 0.15455(15)
N16A N 0.29315(18) 0.19632(9) 0.14699(15)
N17A N 0.38498(18) 0.16027(9) 0.16350(15)
N18A N 0.40615(18) 0.18862(8) 0.19919(15)
N19A N 0.3252(2) 0.37549(11) 0.1966(2)
H49A H 0.3650 0.3744 0.1905
H50A H 0.3178 0.3920 0.2175
N20A N 0.3681(3) 0.33100(12) 0.3220(2)
H51A H 0.3369 0.3348 0.3380
H52A H 0.4038 0.3449 0.3281
N21A N 0.6771(3) 0.08179(14) 0.0457(2)
H53A H 0.6684 0.0982 0.0208
H54A H 0.7164 0.0704 0.0547
N22A N 0.2583(4) -0.05270(14) 0.3086(3)
H55A H 0.2755 -0.0723 0.3246
H56A H 0.2189 -0.0449 0.3109
N23A N 0.3548(3) 0.27255(14) 0.0395(2)
H57A H 0.3158 0.2656 0.0149
H58A H 0.3600 0.2943 0.0497
N24F N 0.4229(2) 0.40573(11) 0.5968(2)
H59F H 0.4511 0.4017 0.6305
H60F H 0.4186 0.4268 0.5833
N25A N -0.0112(3) 0.08793(11) -0.0123(2)
H61A H -0.0441 0.0832 -0.0437
H62A H 0.0108 0.0711 0.0093
N26F N 0.0171(3) 0.22513(18) 0.1683(2)
H63F H -0.0075 0.2410 0.1458
H64F H 0.0120 0.2033 0.1585
N27A N 0.1458(3) 0.07619(14) -0.0432(2)
H65A H 0.1260 0.0847 -0.0765
H66A H 0.1405 0.0543 -0.0368
N28B N 1.3673(3) 0.43818(14) 0.3532(3)
H67B H 1.3847 0.4250 0.3333
H68B H 1.3910 0.4559 0.3712
N29B N 0.7968(4) 0.4669(2) 0.4786(4)
H69B H 0.7998 0.4888 0.4876
H70B H 0.7610 0.4547 0.4795
N30A N 0.9380(4) 0.0818(3) 0.2812(4)
H71A H 0.9525 0.0754 0.3160
H72A H 0.9637 0.0777 0.2603
Br2 Br 0.94003(5) 0.02374(2) 0.39720(4)
Br3 Br 0.51429(7) 0.38479(4) 0.33253(6)
O1 O 0.9010(3) 0.00326(15) 0.5140(3)
O2 O 0.8162(5) -0.03401(19) 0.5718(5)
O3 O 0.8559(11) -0.0119(7) 0.1647(13)
loop_
_geom_bond_atom_site_label_1
_geom_bond_atom_site_label_2
_geom_bond_site_symmetry_1
_geom_bond_site_symmetry_2
Cu1 N1 1_555 1_555
Cu2 N18 1_555 1_555
Cu3 N2 1_555 1_555
Cu4 Br1 1_555 1_555
Cu5 N9 1_555 1_555
Cu6 Br1 1_555 1_555
Cu7 N15 1_555 1_555
Cu8 Br1 1_555 1_555
Cu9 N3 1_555 1_555
Br1 Cu7F 1_555 1_555
C1 C5 1_555 1_555
C2 H1 1_555 1_555
C3 C4 1_555 1_555
C4 H2 1_555 1_555
C5 C2 1_555 1_555
C6 C4 1_555 1_555
H3 C6 1_555 1_555
C7 C2 1_555 1_555
H4 C7 1_555 1_555
C8 C9 1_555 1_555
C9 C10 1_555 1_555
C10 H5 1_555 1_555
C11 C10 1_555 1_555
H6 C11 1_555 1_555
C12 C9 1_555 1_555
H7 C12 1_555 1_555
C13 C11 1_555 1_555
C14 C12 1_555 1_555
H8 C14 1_555 1_555
C15 C16 1_555 1_555
C16 C17 1_555 1_555
C17 H9 1_555 1_555
C18 C17 1_555 1_555
H10 C18 1_555 1_555
C19 C16 1_555 1_555
H11 C19 1_555 1_555
C20 C18 1_555 1_555
C21 C19 1_555 1_555
H12 C21 1_555 1_555
C22 C25 1_555 1_555
C23 H13 1_555 1_555
C24 C23 1_555 1_555
H14 C24 1_555 1_555
C25 C23 1_555 1_555
C26 C25 1_555 1_555
H15 C26 1_555 1_555
C27 C26 1_555 1_555
H16 C27 1_555 1_555
C28 C24 1_555 1_555
C29 C30 1_555 1_555
C30 H17 1_555 1_555
C31 C29 1_555 1_555
H18 C31 1_555 1_555
C32 C29 1_555 1_555
C33 C30 1_555 1_555
H19 C33 1_555 1_555
C34 C31 1_555 1_555
H20 C34 1_555 1_555
C35 C33 1_555 1_555
C36 C37 1_555 1_555
C37 H21 1_555 1_555
C38 C37 1_555 1_555
H22 C38 1_555 1_555
C39 C36 1_555 1_555
H23 C39 1_555 1_555
C40 C36 1_555 1_555
C41 C38 1_555 1_555
C42 C39 1_555 1_555
H24 C42 1_555 1_555
C43 C44 1_555 1_555
C44 C45 1_555 1_555
C45 H25 1_555 1_555
C46 C48 1_555 1_555
C47 C44 1_555 1_555
H26 C47 1_555 1_555
C48 C45 1_555 1_555
H27 C48 1_555 1_555
C49 C46 1_555 1_555
H28 C49 1_555 1_555
C50 H29 1_555 1_555
C51 H30 1_555 1_555
C52 C50 1_555 1_555
C53 C52 1_555 1_555
C54 C51 1_555 1_555
H31 C54 1_555 1_555
C55 C51 1_555 1_555
C56 C50 1_555 1_555
H32 C56 1_555 1_555
C57 C58 1_555 1_555
C58 H33 1_555 1_555
C59 C57 1_555 1_555
H34 C59 1_555 1_555
C60 C59 1_555 1_555
H35 C60 1_555 1_555
C61 C57 1_555 1_555
C62 C58 1_555 1_555
H36 C62 1_555 1_555
C63 C60 1_555 1_555
C64 C70 1_555 1_555
C65 H37 1_555 1_555
C66 C65 1_555 1_555
H38 C66 1_555 1_555
C67 C66 1_555 1_555
C68 C67 1_555 1_555
H39 C68 1_555 1_555
C69 C68 1_555 1_555
H40 C69 1_555 1_555
C70 C65 1_555 1_555
C71 C72 1_555 1_555
C72 C73 1_555 1_555
C73 H41 1_555 1_555
C74 C72 1_555 1_555
H42 C74 1_555 1_555
C75 C73 1_555 1_555
H43 C75 1_555 1_555
C76 C75 1_555 1_555
C77 C74 1_555 1_555
H44 C77 1_555 1_555
C78 C79 1_555 1_555
C79 H45 1_555 1_555
C80 C79 1_555 1_555
H46 C80 1_555 1_555
C81 H47 1_555 1_555
C82 C80 1_555 1_555
C83 C78 1_555 1_555
C84 C78 1_555 1_555
H48 C84 1_555 1_555
N1 C53 1_555 1_555
N2 C43 1_555 1_555
N3 C43 1_555 1_555
N4 C1 1_555 1_555
N5 C8 1_555 1_555
N6 Cu4 1_555 1_555
N7 Cu4 1_555 1_555
N8 Cu6 1_555 1_555
N9 C61 1_555 1_555
N10 C22 1_555 1_555
N11 C15 1_555 1_555
N12 Cu3 1_555 1_555
N13 C71 1_555 1_555
N14 Cu1 1_555 1_555
N15 C71 1_555 1_555
N16 Cu5 1_555 1_555
N17 Cu1 1_555 1_555
N18 C40 1_555 1_555
N19 C67 1_555 1_555
H49 N19 1_555 1_555
H50 N19 1_555 1_555
N20 C41 1_555 1_555
H51 N20 1_555 1_555
H52 N20 1_555 1_555
N21 C55 1_555 1_555
H53 N21 1_555 1_555
H54 N21 1_555 1_555
N22 C46 1_555 1_555
H55 N22 1_555 1_555
H56 N22 1_555 1_555
N23 C82 1_555 1_555
H57 N23 1_555 1_555
H58 N23 1_555 1_555
N24 C3 1_555 1_555
H59 N24 1_555 1_555
H60 N24 1_555 1_555
N25 C63 1_555 1_555
H61 N25 1_555 1_555
H62 N25 1_555 1_555
N26 C13 1_555 1_555
H63 N26 1_555 1_555
H64 N26 1_555 1_555
N27 C35 1_555 1_555
H65 N27 1_555 1_555
H66 N27 1_555 1_555
N28 C20 1_555 1_555
H67 N28 1_555 1_555
H68 N28 1_555 1_555
N29 C28 1_555 1_555
H69 N29 1_555 1_555
H70 N29 1_555 1_555
N30 C76 1_555 1_555
H71 N30 1_555 1_555
H72 N30 1_555 1_555
Cu1A N1A 1_555 1_555
Cu3A N2A 1_555 1_555
Cu3B N12B 1_555 1_555
Cu4A Br1A 1_555 1_555
Cu4F Br1F 1_555 1_555
Cu5A N9A 1_555 1_555
Cu6A Br1A 1_555 1_555
Cu6B N10 1_555 1_555
Cu6F Br1F 1_555 1_555
Cu7A Br1G 1_555 1_555
Cu7F N5 1_555 1_555
Cu8F Br1F 1_555 1_555
Cu8F_2 N4 1_555 1_555
Cu8B N11 1_555 1_555
Cu8_2 N4F 1_555 1_555
Cu9A N13 1_555 1_555
Br1F Cu7 1_555 1_555
C1F C5F 1_555 1_555
C2F H1F 1_555 1_555
C3F C4F 1_555 1_555
C4F H2F 1_555 1_555
C5F C2F 1_555 1_555
C6F C4F 1_555 1_555
H3F C6F 1_555 1_555
C7F C2F 1_555 1_555
H4F C7F 1_555 1_555
C8F C9F 1_555 1_555
C9F C10F 1_555 1_555
C10F H5F 1_555 1_555
C11F C10F 1_555 1_555
H6F C11F 1_555 1_555
C12F C9F 1_555 1_555
H7F C12F 1_555 1_555
C13F C11F 1_555 1_555
C14F C12F 1_555 1_555
H8F C14F 1_555 1_555
C15B C16B 1_555 1_555
C16B C17B 1_555 1_555
C17B H9B 1_555 1_555
C18B C17B 1_555 1_555
H10B C18B 1_555 1_555
C19B C16B 1_555 1_555
H11B C19B 1_555 1_555
C20B C18B 1_555 1_555
C21B C19B 1_555 1_555
H12B C21B 1_555 1_555
C22B C25B 1_555 1_555
C23B H13B 1_555 1_555
C24B C23B 1_555 1_555
H14B C24B 1_555 1_555
C25B C23B 1_555 1_555
C26B C25B 1_555 1_555
H15B C26B 1_555 1_555
C27B C26B 1_555 1_555
H16B C27B 1_555 1_555
C28B C24B 1_555 1_555
C29A C30A 1_555 1_555
C30A H17A 1_555 1_555
C31A C29A 1_555 1_555
H18A C31A 1_555 1_555
C32A C29A 1_555 1_555
C33A C30A 1_555 1_555
H19A C33A 1_555 1_555
C34A C31A 1_555 1_555
H20A C34A 1_555 1_555
C35A C33A 1_555 1_555
C36A C37A 1_555 1_555
C37A H21A 1_555 1_555
C38A C37A 1_555 1_555
H22A C38A 1_555 1_555
C39A C36A 1_555 1_555
H23A C39A 1_555 1_555
C40A C36A 1_555 1_555
C41A C38A 1_555 1_555
C42A C39A 1_555 1_555
H24A C42A 1_555 1_555
C43A C44A 1_555 1_555
C44A C45A 1_555 1_555
C45A H25A 1_555 1_555
C46A C48A 1_555 1_555
C47A C44A 1_555 1_555
H26A C47A 1_555 1_555
C48A C45A 1_555 1_555
H27A C48A 1_555 1_555
C49A C46A 1_555 1_555
H28A C49A 1_555 1_555
C50A H29A 1_555 1_555
C51A H30A 1_555 1_555
C52A C50A 1_555 1_555
C53A C52A 1_555 1_555
C54A C51A 1_555 1_555
H31A C54A 1_555 1_555
C55A C51A 1_555 1_555
C56A C50A 1_555 1_555
H32A C56A 1_555 1_555
C57A C58A 1_555 1_555
C58A H33A 1_555 1_555
C59A C57A 1_555 1_555
H34A C59A 1_555 1_555
C60A C59A 1_555 1_555
H35A C60A 1_555 1_555
C61A C57A 1_555 1_555
C62A C58A 1_555 1_555
H36A C62A 1_555 1_555
C63A C60A 1_555 1_555
C64A C70A 1_555 1_555
C65A H37A 1_555 1_555
C66A C65A 1_555 1_555
H38A C66A 1_555 1_555
C67A C66A 1_555 1_555
C68A C67A 1_555 1_555
H39A C68A 1_555 1_555
C69A C68A 1_555 1_555
H40A C69A 1_555 1_555
C70A C65A 1_555 1_555
C71A C72A 1_555 1_555
C72A C73A 1_555 1_555
C73A H41A 1_555 1_555
C74A C72A 1_555 1_555
H42A C74A 1_555 1_555
C75A C73A 1_555 1_555
H43A C75A 1_555 1_555
C76A C75A 1_555 1_555
C77A C74A 1_555 1_555
H44A C77A 1_555 1_555
C78A C79A 1_555 1_555
C79A H45A 1_555 1_555
C80A C79A 1_555 1_555
H46A C80A 1_555 1_555
C81A H47A 1_555 1_555
C82A C80A 1_555 1_555
C83A C78A 1_555 1_555
C84A C78A 1_555 1_555
H48A C84A 1_555 1_555
N1A C53A 1_555 1_555
N2A C43A 1_555 1_555
N3A Cu9A 1_555 1_555
N4F C1F 1_555 1_555
N4F_2 Cu8 1_555 1_555
N4_2 Cu8F 1_555 1_555
N5F Cu7 1_555 1_555
N5G Cu7A 1_555 1_555
N6F Cu4F 1_555 1_555
N6A Cu4A 1_555 1_555
N7A Cu4A 1_555 1_555
N8A Cu6A 1_555 1_555
N9A C61A 1_555 1_555
N10B Cu6 1_555 1_555
N10C Cu6A 1_555 1_555
N11B Cu8 1_555 1_555
N11D Cu8F 1_555 1_555
N12B C15B 1_555 1_555
N12A Cu3A 1_555 1_555
N13A Cu9 1_555 1_555
N14A Cu1A 1_555 1_555
N15A Cu7A 1_555 1_555
N16A Cu5A 1_555 1_555
N17A Cu1A 1_555 1_555
N18A Cu2 1_555 1_555
N19A C67A 1_555 1_555
H49A N19A 1_555 1_555
H50A N19A 1_555 1_555
N20A C41A 1_555 1_555
H51A N20A 1_555 1_555
H52A N20A 1_555 1_555
N21A C55A 1_555 1_555
H53A N21A 1_555 1_555
H54A N21A 1_555 1_555
N22A C46A 1_555 1_555
H55A N22A 1_555 1_555
H56A N22A 1_555 1_555
N23A C82A 1_555 1_555
H57A N23A 1_555 1_555
H58A N23A 1_555 1_555
N24F C3F 1_555 1_555
H59F N24F 1_555 1_555
H60F N24F 1_555 1_555
N25A C63A 1_555 1_555
H61A N25A 1_555 1_555
H62A N25A 1_555 1_555
N26F C13F 1_555 1_555
H63F N26F 1_555 1_555
H64F N26F 1_555 1_555
N27A C35A 1_555 1_555
H65A N27A 1_555 1_555
H66A N27A 1_555 1_555
N28B C20B 1_555 1_555
H67B N28B 1_555 1_555
H68B N28B 1_555 1_555
N29B C28B 1_555 1_555
H69B N29B 1_555 1_555
H70B N29B 1_555 1_555
N30A C76A 1_555 1_555
H71A N30A 1_555 1_555
H72A N30A 1_555 1_555
C1 N6 1_555 1_555
C3 C7 1_555 1_555
C5 C6 1_555 1_555
C8 N4 1_555 1_555
C13 C14 1_555 1_555
C15 N12 1_555 1_555
C20 C21 1_555 1_555
C22 N12 1_555 1_555
C27 C28 1_555 1_555
C32 N16 1_555 1_555
C32 N17 1_555 1_555
C34 C35 1_555 1_555
C40 N16 1_555 1_555
C41 C42 1_555 1_555
C47 C49 1_555 1_555
C52 C54 1_555 1_555
C53 N2 1_555 1_555
C55 C56 1_555 1_555
C61 N7 1_555 1_555
C62 C63 1_555 1_555
C64 N8 1_555 1_555
C64 N9 1_555 1_555
C69 C70 1_555 1_555
C76 C77 1_555 1_555
C81 C82 1_555 1_555
C81 C84 1_555 1_555
C83 N14 1_555 1_555
C83 N15 1_555 1_555
N1 N3 1_555 1_555
N5 N6 1_555 1_555
N7 N8 1_555 1_555
N10 N11 1_555 1_555
N13 N14 1_555 1_555
N17 N18 1_555 1_555
C1F N6F 1_555 1_555
C3F C7F 1_555 1_555
C5F C6F 1_555 1_555
C8F N4F 1_555 1_555
C8F N5F 1_555 1_555
C13F C14F 1_555 1_555
C15B N11B 1_555 1_555
C20B C21B 1_555 1_555
C22B N10B 1_555 1_555
C22B N12B 1_555 1_555
C27B C28B 1_555 1_555
C32A N16A 1_555 1_555
C32A N17A 1_555 1_555
C34A C35A 1_555 1_555
C40A N16A 1_555 1_555
C40A N18A 1_555 1_555
C41A C42A 1_555 1_555
C43A N3A 1_555 1_555
C47A C49A 1_555 1_555
C52A C54A 1_555 1_555
C53A N2A 1_555 1_555
C55A C56A 1_555 1_555
C61A N7A 1_555 1_555
C62A C63A 1_555 1_555
C64A N8A 1_555 1_555
C64A N9A 1_555 1_555
C69A C70A 1_555 1_555
C71A N13A 1_555 1_555
C71A N15A 1_555 1_555
C76A C77A 1_555 1_555
C81A C82A 1_555 1_555
C81A C84A 1_555 1_555
C83A N14A 1_555 1_555
C83A N15A 1_555 1_555
N1A N3A 1_555 1_555
N5F N6F 1_555 1_555
N7A N8A 1_555 1_555
N10B N11B 1_555 1_555
N13A N14A 1_555 1_555
N17A N18A 1_555 1_555

#END
