
#######################################################################
#
#                 Cambridge Crystallographic Data Centre
#                                CCDC 
#
#######################################################################
#
# If this CIF has been generated from an entry in the Cambridge 
# Structural Database, then it will include bibliographic, chemical, 
# crystal, experimental, refinement or atomic coordinate data resulting 
# from the CCDC's data processing and validation procedures.
#
#######################################################################

data_AXOHIE
_symmetry_cell_setting           monoclinic
_symmetry_space_group_name_H-M   'P 21/c'
_symmetry_Int_Tables_number      14
_space_group_name_Hall           '-P 2ybc'
loop_
_symmetry_equiv_pos_site_id
_symmetry_equiv_pos_as_xyz
1 x,y,z
2 x,1/2-y,1/2+z
3 -x,-y,-z
4 -x,1/2+y,1/2-z
_cell_length_a                   23.221
_cell_length_b                   11.81030(10)
_cell_length_c                   45.4670(6)
_cell_angle_alpha                90
_cell_angle_beta                 104.5160(10)
_cell_angle_gamma                90
_cell_volume                     12071.1
loop_
_atom_site_label
_atom_site_type_symbol
_atom_site_fract_x
_atom_site_fract_y
_atom_site_fract_z
Cd1 Cd 0.417148(10) -0.87421(2) 0.276681(5)
Cd2 Cd 0.095752(11) -0.57879(2) -0.059660(6)
O1 O 0.32206(11) -0.8475(2) 0.23476(5)
O2 O 0.40877(11) -0.8663(3) 0.22442(6)
O3 O 0.10928(13) -0.5891(3) -0.00702(6)
O4 O 0.19443(14) -0.5929(3) -0.01829(6)
O5 O 0.49879(12) -0.8941(3) 0.32785(7)
O6 O 0.51810(11) -0.8795(3) 0.28327(6)
O7 O 0.99300(12) -0.9128(3) 0.43547(7)
O8 O 1.01336(12) -0.9313(3) 0.39204(7)
N1 N 0.35008(12) -0.8721(3) 0.30823(6)
N3 N 0.15704(13) -0.9196(3) 0.40595(7)
N4 N 0.41698(13) -0.6731(2) 0.27916(7)
N5 N 0.41534(12) -0.0732(2) 0.27732(6)
N6 N 0.10222(15) -0.3794(3) -0.05944(8)
N7 N 0.10032(16) 0.2189(3) -0.06017(8)
C1 C 0.32673(15) -0.8121(3) 0.18379(7)
C4 C 0.26551(16) -0.8120(4) 0.17190(8)
H3 H 0.2410 -0.8337 0.1842
C6 C 0.24043(17) -0.7808(4) 0.14251(8)
H4 H 0.1993 -0.7818 0.1353
C8 C 0.27505(17) -0.7479(4) 0.12335(9)
C10 C 0.33682(19) -0.7489(5) 0.13533(10)
H7 H 0.3615 -0.7265 0.1231
C11 C 0.36149(19) -0.7819(5) 0.16445(9)
H8 H 0.4027 -0.7841 0.1715
C12 C 0.19373(18) -0.6394(4) 0.03224(9)
C13 C 0.1650(3) -0.6310(7) 0.05457(12)
H9 H 0.1258 -0.6058 0.0498
C14 C 0.1923(3) -0.6589(7) 0.08419(13)
H10 H 0.1729 -0.6435 0.0993
C15 C 0.24794(18) -0.7093(4) 0.09201(9)
C16 C 0.2764(2) -0.7082(7) 0.07038(11)
H11 H 0.3158 -0.7325 0.0748
C17 C 0.2498(2) -0.6721(7) 0.04146(11)
H12 H 0.2728 -0.6706 0.0274
C18 C 0.35361(15) -0.8451(3) 0.21625(8)
C19 C 0.1634(2) -0.6037(4) 0.00021(9)
C20 C 0.59966(15) -0.9064(3) 0.32589(8)
C21 C 0.62158(18) -0.9143(5) 0.35718(10)
H13 H 0.5956 -0.9148 0.3698
C22 C 0.68224(18) -0.9214(5) 0.36938(10)
H14 H 0.6962 -0.9291 0.3903
C23 C 0.72320(17) -0.9177(4) 0.35193(9)
C24 C 0.70032(18) -0.9091(5) 0.32145(10)
H15 H 0.7265 -0.9083 0.3090
C25 C 0.63972(17) -0.9014(5) 0.30799(10)
H16 H 0.6262 -0.8930 0.2871
C26 C 0.91083(17) -0.9205(4) 0.39289(9)
C27 C 0.88831(19) -0.9452(6) 0.36301(12)
H17 H 0.9144 -0.9610 0.3510
C28 C 0.8287(2) -0.9476(7) 0.35018(12)
H18 H 0.8153 -0.9686 0.3299
C29 C 0.78842(17) -0.9203(4) 0.36593(10)
C30 C 0.8110(2) -0.8882(7) 0.39550(12)
H19 H 0.7850 -0.8678 0.4072
C31 C 0.8707(2) -0.8856(7) 0.40817(13)
H20 H 0.8845 -0.8590 0.4279
C32 C 0.53454(17) -0.8927(3) 0.31148(9)
C33 C 0.97770(18) -0.9237(4) 0.40715(10)
C62 C 0.37054(17) -0.8817(4) 0.33856(9)
H37 H 0.4115 -0.8835 0.3468
C63 C 0.33404(16) -0.8888(4) 0.35776(9)
H38 H 0.3504 -0.8939 0.3786
C64 C 0.27280(15) -0.8885(3) 0.34656(8)
C65 C 0.25133(16) -0.8793(4) 0.31485(8)
H39 H 0.2106 -0.8789 0.3060
C66 C 0.29077(16) -0.8712(4) 0.29731(8)
H40 H 0.2757 -0.8645 0.2764
C67 C 0.21264(18) -0.8902(5) 0.41586(9)
H41 H 0.2270 -0.8756 0.4365
C68 C 0.2514(2) -0.8795(5) 0.39742(10)
H42 H 0.2905 -0.8572 0.4058
C69 C 0.23307(15) -0.9011(3) 0.36724(8)
C70 C 0.17509(18) -0.9351(5) 0.35655(10)
H43 H 0.1603 -0.9536 0.3362
C71 C 0.13891(18) -0.9414(5) 0.37645(10)
H44 H 0.0994 -0.9622 0.3687
C72 C 0.46681(17) -0.6131(3) 0.28911(11)
H45 H 0.5020 -0.6530 0.2964
C73 C 0.46997(17) -0.4964(3) 0.28946(10)
H46 H 0.5063 -0.4595 0.2959
C74 C 0.41715(16) -0.4355(3) 0.27985(8)
C75 C 0.36462(17) -0.4981(3) 0.26984(10)
H47 H 0.3285 -0.4608 0.2630
C76 C 0.36624(18) -0.6137(3) 0.27016(10)
H48 H 0.3306 -0.6532 0.2639
C77 C 0.36802(16) -0.1328(3) 0.28101(9)
H49 H 0.3345 -0.0931 0.2829
C78 C 0.36674(16) -0.2489(3) 0.28210(9)
H50 H 0.3330 -0.2862 0.2846
C79 C 0.41682(14) -0.3108(3) 0.27939(8)
C80 C 0.46570(16) -0.2493(3) 0.27555(9)
H51 H 0.4998 -0.2866 0.2736
C81 C 0.46289(16) -0.1336(3) 0.27472(9)
H52 H 0.4960 -0.0941 0.2722
C82 C 0.0814(3) -0.3218(4) -0.08437(12)
H53 H 0.0652 -0.3621 -0.1021
C83 C 0.0819(3) -0.2041(4) -0.08618(13)
H54 H 0.0675 -0.1678 -0.1047
C84 C 0.1037(2) -0.1425(4) -0.06028(11)
C85 C 0.1285(2) -0.2035(4) -0.03516(13)
H55 H 0.1474 -0.1657 -0.0174
C86 C 0.1264(2) -0.3194(4) -0.03505(11)
H56 H 0.1428 -0.3574 -0.0170
C87 C 0.1407(5) 0.1598(5) -0.0437(2)
H57 H 0.1710 0.1983 -0.0301
C88 C 0.1444(5) 0.0425(6) -0.0437(2)
H58 H 0.1773 0.0076 -0.0311
C89 C 0.1050(2) -0.0182(4) -0.06025(10)
C90 C 0.0666(6) 0.0424(6) -0.08080(17)
H59 H 0.0395 0.0050 -0.0963
C121 C 0.0656(5) 0.1601(5) -0.07994(18)
H84 H 0.0374 0.1975 -0.0949
N4_2 N 0.41698(13) -1.6731(2) 0.27916(7)
N5_2 N 0.41534(12) -1.0732(2) 0.27732(6)
C72_2 C 0.46681(17) -1.6131(3) 0.28911(11)
H45_2 H 0.5020 -1.6530 0.2964
C73_2 C 0.46997(17) -1.4964(3) 0.28946(10)
H46_2 H 0.5063 -1.4595 0.2959
C74_2 C 0.41715(16) -1.4355(3) 0.27985(8)
C75_2 C 0.36462(17) -1.4981(3) 0.26984(10)
H47_2 H 0.3285 -1.4608 0.2630
C76_2 C 0.36624(18) -1.6137(3) 0.27016(10)
H48_2 H 0.3306 -1.6532 0.2639
C77_2 C 0.36802(16) -1.1328(3) 0.28101(9)
H49_2 H 0.3345 -1.0931 0.2829
C78_2 C 0.36674(16) -1.2489(3) 0.28210(9)
H50_2 H 0.3330 -1.2862 0.2846
C79_2 C 0.41682(14) -1.3108(3) 0.27939(8)
C80_2 C 0.46570(16) -1.2493(3) 0.27555(9)
H51_2 H 0.4998 -1.2866 0.2736
C81_2 C 0.46289(16) -1.1336(3) 0.27472(9)
H52_2 H 0.4960 -1.0941 0.2722
Cd1_2 Cd 0.417148(10) -1.87421(2) 0.276681(5)
Cd2A Cd 1.095752(11) -0.92121(2) 0.440340(6)
O5A O -0.50121(12) -0.6059(3) -0.17215(7)
O6A O -0.48190(11) -0.6205(3) -0.21673(6)
O7A O -0.00700(12) -0.5872(3) -0.06453(7)
O8A O 0.01336(12) -0.5687(3) -0.10796(7)
C20A C -0.40034(15) -0.5936(3) -0.17411(8)
C21A C -0.37842(18) -0.5857(5) -0.14282(10)
H13A H -0.4044 -0.5852 -0.1302
C22A C -0.31776(18) -0.5786(5) -0.13062(10)
H14A H -0.3038 -0.5709 -0.1097
C23A C -0.27680(17) -0.5823(4) -0.14807(9)
C24A C -0.29968(18) -0.5909(5) -0.17855(10)
H15A H -0.2735 -0.5917 -0.1910
C25A C -0.36028(17) -0.5986(5) -0.19201(10)
H16A H -0.3738 -0.6070 -0.2129
C26A C -0.08917(17) -0.5795(4) -0.10711(9)
C27A C -0.11169(19) -0.5548(6) -0.13699(12)
H17A H -0.0856 -0.5390 -0.1490
C28A C -0.1713(2) -0.5524(7) -0.14982(12)
H18A H -0.1847 -0.5314 -0.1701
C29A C -0.21158(17) -0.5797(4) -0.13407(10)
C30A C -0.1890(2) -0.6118(7) -0.10450(12)
H19A H -0.2150 -0.6322 -0.0928
C31A C -0.1293(2) -0.6144(7) -0.09183(13)
H20A H -0.1155 -0.6410 -0.0721
C32A C -0.46546(17) -0.6073(3) -0.18852(9)
C33A C -0.02230(18) -0.5763(4) -0.09285(10)
N1A N 0.35008(12) -0.6279(3) -0.19177(6)
N3A N 0.15704(13) -0.5804(3) -0.09405(7)
C62A C 0.37054(17) -0.6183(4) -0.16144(9)
H37A H 0.4115 -0.6165 -0.1532
C63A C 0.33404(16) -0.6112(4) -0.14224(9)
H38A H 0.3504 -0.6061 -0.1214
C64A C 0.27280(15) -0.6115(3) -0.15344(8)
C65A C 0.25133(16) -0.6207(4) -0.18515(8)
H39A H 0.2106 -0.6211 -0.1940
C66A C 0.29077(16) -0.6288(4) -0.20269(8)
H40A H 0.2757 -0.6355 -0.2236
C67A C 0.21264(18) -0.6098(5) -0.08414(9)
H41A H 0.2270 -0.6244 -0.0635
C68A C 0.2514(2) -0.6205(5) -0.10258(10)
H42A H 0.2905 -0.6428 -0.0942
C69A C 0.23307(15) -0.5989(3) -0.13276(8)
C70A C 0.17509(18) -0.5649(5) -0.14345(10)
H43A H 0.1603 -0.5464 -0.1638
C71A C 0.13891(18) -0.5586(5) -0.12355(10)
H44A H 0.0994 -0.5378 -0.1313
N6_2 N 0.10222(15) -1.3794(3) -0.05944(8)
N7_2 N 0.10032(16) -0.7811(3) -0.06017(8)
C82_2 C 0.0814(3) -1.3218(4) -0.08437(12)
H53_2 H 0.0652 -1.3621 -0.1021
C83_2 C 0.0819(3) -1.2041(4) -0.08618(13)
H54_2 H 0.0675 -1.1678 -0.1047
C84_2 C 0.1037(2) -1.1425(4) -0.06028(11)
C85_2 C 0.1285(2) -1.2035(4) -0.03516(13)
H55_2 H 0.1474 -1.1657 -0.0174
C86_2 C 0.1264(2) -1.3194(4) -0.03505(11)
H56_2 H 0.1428 -1.3574 -0.0170
C87_2 C 0.1407(5) -0.8402(5) -0.0437(2)
H57_2 H 0.1710 -0.8017 -0.0301
C88_2 C 0.1444(5) -0.9575(6) -0.0437(2)
H58_2 H 0.1773 -0.9924 -0.0311
C89_2 C 0.1050(2) -1.0182(4) -0.06025(10)
C90_2 C 0.0666(6) -0.9576(6) -0.08080(17)
H59_2 H 0.0395 -0.9950 -0.0963
C121_2 C 0.0656(5) -0.8399(5) -0.07994(18)
H84_2 H 0.0374 -0.8025 -0.0949
O1_2 O 0.32206(11) -1.8475(2) 0.23476(5)
O2_2 O 0.40877(11) -1.8663(3) 0.22442(6)
O3_2 O 0.10928(13) -1.5891(3) -0.00702(6)
O4_2 O 0.19443(14) -1.5929(3) -0.01829(6)
C1_2 C 0.32673(15) -1.8121(3) 0.18379(7)
C4_2 C 0.26551(16) -1.8120(4) 0.17190(8)
H3_2 H 0.2410 -1.8337 0.1842
C6_2 C 0.24043(17) -1.7808(4) 0.14251(8)
H4_2 H 0.1993 -1.7818 0.1353
C8_2 C 0.27505(17) -1.7479(4) 0.12335(9)
C10_2 C 0.33682(19) -1.7489(5) 0.13533(10)
H7_2 H 0.3615 -1.7265 0.1231
C11_2 C 0.36149(19) -1.7819(5) 0.16445(9)
H8_2 H 0.4027 -1.7841 0.1715
C12_2 C 0.19373(18) -1.6394(4) 0.03224(9)
C13_2 C 0.1650(3) -1.6310(7) 0.05457(12)
H9_2 H 0.1258 -1.6058 0.0498
C14_2 C 0.1923(3) -1.6589(7) 0.08419(13)
H10_2 H 0.1729 -1.6435 0.0993
C15_2 C 0.24794(18) -1.7093(4) 0.09201(9)
C16_2 C 0.2764(2) -1.7082(7) 0.07038(11)
H11_2 H 0.3158 -1.7325 0.0748
C17_2 C 0.2498(2) -1.6721(7) 0.04146(11)
H12_2 H 0.2728 -1.6706 0.0274
C18_2 C 0.35361(15) -1.8451(3) 0.21625(8)
C19_2 C 0.1634(2) -1.6037(4) 0.00021(9)
Cd2A_2 Cd 0.095752(11) -0.92121(2) 0.440340(6)
Cd1_3 Cd 0.417148(10) 0.12579(2) 0.276681(5)
Cd2_2 Cd 0.095752(11) 0.42121(2) -0.059660(6)
O5_2 O 0.49879(12) -1.8941(3) 0.32785(7)
O6_2 O 0.51810(11) -1.8795(3) 0.28327(6)
N1_2 N 0.35008(12) -1.8721(3) 0.30823(6)
N5_3 N 0.41534(12) -2.0732(2) 0.27732(6)
O3A O 1.10928(13) -0.9109(3) 0.49298(6)
O4A O 1.19443(14) -0.9071(3) 0.48171(6)
N3_2 N 1.15704(13) -0.9196(3) 0.40595(7)
N6A N 1.10222(15) -1.1206(3) 0.44056(8)
N7A N 1.10032(16) -0.7189(3) 0.43983(8)
Cd1A Cd -0.582852(10) -0.62579(2) -0.223319(5)
Cd1A_2 Cd 0.417148(10) -0.62579(2) -0.223319(5)
Cd2_3 Cd 0.095752(11) -1.57879(2) -0.059660(6)
Cd3 Cd 0.872223(11) 0.36784(2) 0.263794(6)
Cd4 Cd 0.548160(11) 0.08804(2) -0.073490(6)
O9 O 0.86306(12) 0.3398(3) 0.21200(7)
O10 O 0.77557(13) 0.3459(3) 0.22256(6)
O11 O 0.63958(15) 0.1006(3) -0.03172(6)
O12 O 0.55405(15) 0.1067(3) -0.02107(7)
O13 O 0.97417(12) 0.3850(3) 0.26979(7)
O14 O 0.95086(13) 0.3777(4) 0.31228(8)
O15 O 1.46433(12) 0.4245(3) 0.37687(7)
O16 O 1.44867(12) 0.4073(3) 0.42194(7)
N8 N 0.80689(13) 0.3707(3) 0.29660(7)
N9 N 0.61206(13) 0.4163(3) 0.39350(7)
N10 N 0.86973(13) 0.5691(3) 0.26247(7)
N11 N 0.87315(15) 1.1677(3) 0.26956(8)
N12 N 0.54889(14) -0.1127(3) -0.07429(8)
N13 N 0.55229(13) -0.7114(3) -0.07705(7)
C34 C 0.77779(18) 0.3009(4) 0.17185(9)
C35 C 0.81053(19) 0.2592(4) 0.15255(10)
H21 H 0.8514 0.2497 0.1596
C36 C 0.7822(2) 0.2316(5) 0.12253(10)
H22 H 0.8046 0.2048 0.1097
C37 C 0.72139(18) 0.2435(4) 0.11173(8)
C38 C 0.68948(19) 0.2859(4) 0.13063(9)
H23 H 0.6487 0.2965 0.1235
C39 C 0.71729(18) 0.3132(4) 0.16038(9)
H24 H 0.6945 0.3406 0.1730
C40 C 0.6370(2) 0.1478(4) 0.01923(9)
C41 C 0.6950(2) 0.1898(5) 0.02674(10)
H25 H 0.7158 0.1970 0.0118
C42 C 0.7218(2) 0.2208(5) 0.05665(9)
H26 H 0.7606 0.2480 0.0614
C43 C 0.6922(2) 0.2123(4) 0.07932(9)
C44 C 0.63436(19) 0.1713(4) 0.07116(9)
H27 H 0.6131 0.1662 0.0860
C45 C 0.6069(2) 0.1374(4) 0.04158(10)
H28 H 0.5685 0.1080 0.0370
C46 C 0.80710(19) 0.3307(3) 0.20409(8)
C47 C 0.6093(2) 0.1170(4) -0.01330(9)
C48 C 1.05322(17) 0.4033(4) 0.31352(11)
C49 C 1.0887(2) 0.4708(6) 0.30063(12)
H29 H 1.0726 0.5074 0.2823
C50 C 1.1496(2) 0.4844(6) 0.31516(12)
H30 H 1.1728 0.5333 0.3070
C51 C 1.17490(18) 0.4257(4) 0.34138(10)
C52 C 1.1392(2) 0.3547(6) 0.35282(14)
H31 H 1.1559 0.3111 0.3699
C53 C 1.0789(2) 0.3465(6) 0.33955(16)
H32 H 1.0554 0.3012 0.3486
C54 C 1.36359(17) 0.4243(4) 0.38012(10)
C55 C 1.34221(18) 0.4382(5) 0.34936(10)
H33 H 1.3682 0.4451 0.3369
C56 C 1.27974(18) 0.4418(5) 0.33685(11)
H34 H 1.2650 0.4535 0.3161
C57 C 1.24126(17) 0.4284(4) 0.35454(10)
C58 C 1.26499(18) 0.4146(4) 0.38576(10)
H35 H 1.2393 0.4073 0.3984
C59 C 1.32491(18) 0.4114(4) 0.39812(10)
H36 H 1.3395 0.4005 0.4189
C60 C 0.98737(18) 0.3897(4) 0.29851(11)
C61 C 1.42978(16) 0.4174(3) 0.39335(10)
C91 C 0.74826(17) 0.3827(4) 0.28545(9)
H60 H 0.7331 0.3862 0.2645
C92 C 0.70989(17) 0.3901(4) 0.30354(9)
H61 H 0.6692 0.3947 0.2947
C93 C 0.73052(16) 0.3909(3) 0.33516(8)
C94 C 0.79043(19) 0.3792(5) 0.34608(10)
H62 H 0.8069 0.3788 0.3670
C95 C 0.82702(17) 0.3681(5) 0.32652(10)
H63 H 0.8676 0.3583 0.3347
C96 C 0.59306(17) 0.3939(4) 0.36474(10)
H64 H 0.5525 0.3819 0.3570
C97 C 0.62878(17) 0.3870(5) 0.34504(10)
H65 H 0.6120 0.3717 0.3246
C98 C 0.68887(16) 0.4022(3) 0.35510(8)
C99 C 0.70897(18) 0.4283(5) 0.38530(10)
H66 H 0.7493 0.4420 0.3934
C100 C 0.66997(19) 0.4346(6) 0.40387(10)
H67 H 0.6849 0.4523 0.4243
C101 C 0.9144(2) 0.6302(4) 0.25671(12)
H68 H 0.9450 0.5922 0.2510
C102 C 0.91700(19) 0.7465(4) 0.25879(12)
H69 H 0.9494 0.7855 0.2553
C103 C 0.87083(16) 0.8046(3) 0.26621(10)
C104 C 0.82525(18) 0.7427(3) 0.27156(10)
H70 H 0.7936 0.7790 0.2767
C105 C 0.82572(17) 0.6267(4) 0.26938(10)
H71 H 0.7937 0.5865 0.2729
C106 C 0.9218(2) 1.1083(4) 0.27901(12)
H72 H 0.9572 1.1474 0.2863
C107 C 0.9242(2) 0.9921(4) 0.27886(13)
H73 H 0.9603 0.9547 0.2858
C108 C 0.87187(18) 0.9312(4) 0.26809(10)
C109 C 0.82043(17) 0.9929(3) 0.25970(11)
H74 H 0.7840 0.9561 0.2534
C110 C 0.8225(2) 1.1082(4) 0.26062(11)
H75 H 0.7869 1.1479 0.2547
C111 C 0.5231(2) -0.1691(4) -0.09943(10)
H76 H 0.5035 -0.1287 -0.1166
C112 C 0.5247(2) -0.2848(4) -0.10088(10)
H77 H 0.5081 -0.3206 -0.1193
C113 C 0.54967(16) -0.3490(3) -0.07616(9)
C114 C 0.5767(2) -0.2906(4) -0.05017(10)
H78 H 0.5961 -0.3298 -0.0328
C115 C 0.5749(2) -0.1717(4) -0.04997(10)
H79 H 0.5926 -0.1334 -0.0321
C116 C 0.5983(2) -0.6521(4) -0.06078(12)
H80 H 0.6314 -0.6910 -0.0496
C117 C 0.5987(2) -0.5363(4) -0.05983(11)
H81 H 0.6313 -0.4986 -0.0477
C118 C 0.55103(17) -0.4747(3) -0.07673(9)
C119 C 0.5063(2) -0.5359(4) -0.09488(11)
H82 H 0.4743 -0.4989 -0.1077
C120 C 0.5082(2) -0.6515(4) -0.09434(10)
H83 H 0.4766 -0.6907 -0.1068
N10_2 N 0.86973(13) -0.4309(3) 0.26247(7)
N11_2 N 0.87315(15) 0.1677(3) 0.26956(8)
C101_2 C 0.9144(2) -0.3698(4) 0.25671(12)
H68_2 H 0.9450 -0.4078 0.2510
C102_2 C 0.91700(19) -0.2535(4) 0.25879(12)
H69_2 H 0.9494 -0.2145 0.2553
C103_2 C 0.87083(16) -0.1954(3) 0.26621(10)
C104_2 C 0.82525(18) -0.2573(3) 0.27156(10)
H70_2 H 0.7936 -0.2210 0.2767
C105_2 C 0.82572(17) -0.3733(4) 0.26938(10)
H71_2 H 0.7937 -0.4135 0.2729
C106_2 C 0.9218(2) 0.1083(4) 0.27901(12)
H72_2 H 0.9572 0.1474 0.2863
C107_2 C 0.9242(2) -0.0079(4) 0.27886(13)
H73_2 H 0.9603 -0.0453 0.2858
C108_2 C 0.87187(18) -0.0688(4) 0.26809(10)
C109_2 C 0.82043(17) -0.0071(3) 0.25970(11)
H74_2 H 0.7840 -0.0439 0.2534
C110_2 C 0.8225(2) 0.1082(4) 0.26062(11)
H75_2 H 0.7869 0.1479 0.2547
Cd3_2 Cd 0.872223(11) -0.63216(2) 0.263794(6)
Cd4A Cd 1.548160(11) 0.41196(2) 0.426510(6)
O13A O -0.02583(12) 0.1150(3) -0.23021(7)
O14A O -0.04914(13) 0.1223(4) -0.18772(8)
O15A O 0.46433(12) 0.0755(3) -0.12313(7)
O16A O 0.44867(12) 0.0927(3) -0.07806(7)
C48A C 0.05322(17) 0.0967(4) -0.18648(11)
C49A C 0.0887(2) 0.0292(6) -0.19937(12)
H29A H 0.0726 -0.0074 -0.2177
C50A C 0.1496(2) 0.0156(6) -0.18484(12)
H30A H 0.1728 -0.0333 -0.1930
C51A C 0.17490(18) 0.0743(4) -0.15862(10)
C52A C 0.1392(2) 0.1453(6) -0.14718(14)
H31A H 0.1559 0.1889 -0.1301
C53A C 0.0789(2) 0.1535(6) -0.16045(16)
H32A H 0.0554 0.1988 -0.1514
C54A C 0.36359(17) 0.0757(4) -0.11988(10)
C55A C 0.34221(18) 0.0618(5) -0.15064(10)
H33A H 0.3682 0.0549 -0.1631
C56A C 0.27974(18) 0.0582(5) -0.16315(11)
H34A H 0.2650 0.0465 -0.1839
C57A C 0.24126(17) 0.0716(4) -0.14546(10)
C58A C 0.26499(18) 0.0854(4) -0.11424(10)
H35A H 0.2393 0.0927 -0.1016
C59A C 0.32491(18) 0.0886(4) -0.10188(10)
H36A H 0.3395 0.0995 -0.0811
C60A C -0.01263(18) 0.1103(4) -0.20149(11)
C61A C 0.42978(16) 0.0826(3) -0.10665(10)
N8A N 0.80689(13) 0.1293(3) -0.20340(7)
N9A N 0.61206(13) 0.0837(3) -0.10650(7)
C91A C 0.74826(17) 0.1173(4) -0.21455(9)
H60A H 0.7331 0.1138 -0.2355
C92A C 0.70989(17) 0.1099(4) -0.19646(9)
H61A H 0.6692 0.1053 -0.2053
C93A C 0.73052(16) 0.1091(3) -0.16484(8)
C94A C 0.79043(19) 0.1208(5) -0.15392(10)
H62A H 0.8069 0.1212 -0.1330
C95A C 0.82702(17) 0.1319(5) -0.17348(10)
H63A H 0.8676 0.1417 -0.1653
C96A C 0.59306(17) 0.1061(4) -0.13526(10)
H64A H 0.5525 0.1181 -0.1430
C97A C 0.62878(17) 0.1130(5) -0.15496(10)
H65A H 0.6120 0.1283 -0.1754
C98A C 0.68887(16) 0.0978(3) -0.14490(8)
C99A C 0.70897(18) 0.0717(5) -0.11470(10)
H66A H 0.7493 0.0580 -0.1066
C100A C 0.66997(19) 0.0654(6) -0.09613(10)
H67A H 0.6849 0.0477 -0.0757
N12_2 N 0.54889(14) 0.8873(3) -0.07429(8)
N13_2 N 0.55229(13) 0.2886(3) -0.07705(7)
C111_2 C 0.5231(2) 0.8309(4) -0.09943(10)
H76_2 H 0.5035 0.8713 -0.1166
C112_2 C 0.5247(2) 0.7152(4) -0.10088(10)
H77_2 H 0.5081 0.6794 -0.1193
C113_2 C 0.54967(16) 0.6510(3) -0.07616(9)
C114_2 C 0.5767(2) 0.7094(4) -0.05017(10)
H78_2 H 0.5961 0.6702 -0.0328
C115_2 C 0.5749(2) 0.8283(4) -0.04997(10)
H79_2 H 0.5926 0.8666 -0.0321
C116_2 C 0.5983(2) 0.3479(4) -0.06078(12)
H80_2 H 0.6314 0.3090 -0.0496
C117_2 C 0.5987(2) 0.4637(4) -0.05983(11)
H81_2 H 0.6313 0.5014 -0.0477
C118_2 C 0.55103(17) 0.5253(3) -0.07673(9)
C119_2 C 0.5063(2) 0.4641(4) -0.09488(11)
H82_2 H 0.4743 0.5011 -0.1077
C120_2 C 0.5082(2) 0.3485(4) -0.09434(10)
H83_2 H 0.4766 0.3093 -0.1068
O9_2 O 0.86306(12) -0.6602(3) 0.21200(7)
O10_2 O 0.77557(13) -0.6541(3) 0.22256(6)
O11_2 O 0.63958(15) -0.8994(3) -0.03172(6)
O12_2 O 0.55405(15) -0.8933(3) -0.02107(7)
C34_2 C 0.77779(18) -0.6991(4) 0.17185(9)
C35_2 C 0.81053(19) -0.7408(4) 0.15255(10)
H21_2 H 0.8514 -0.7503 0.1596
C36_2 C 0.7822(2) -0.7684(5) 0.12253(10)
H22_2 H 0.8046 -0.7952 0.1097
C37_2 C 0.72139(18) -0.7565(4) 0.11173(8)
C38_2 C 0.68948(19) -0.7141(4) 0.13063(9)
H23_2 H 0.6487 -0.7035 0.1235
C39_2 C 0.71729(18) -0.6868(4) 0.16038(9)
H24_2 H 0.6945 -0.6594 0.1730
C40_2 C 0.6370(2) -0.8522(4) 0.01923(9)
C41_2 C 0.6950(2) -0.8102(5) 0.02674(10)
H25_2 H 0.7158 -0.8030 0.0118
C42_2 C 0.7218(2) -0.7792(5) 0.05665(9)
H26_2 H 0.7606 -0.7520 0.0614
C43_2 C 0.6922(2) -0.7877(4) 0.07932(9)
C44_2 C 0.63436(19) -0.8287(4) 0.07116(9)
H27_2 H 0.6131 -0.8338 0.0860
C45_2 C 0.6069(2) -0.8626(4) 0.04158(10)
H28_2 H 0.5685 -0.8920 0.0370
C46_2 C 0.80710(19) -0.6693(3) 0.20409(8)
C47_2 C 0.6093(2) -0.8830(4) -0.01330(9)
Cd4A_2 Cd 0.548160(11) 0.41196(2) 0.426510(6)
Cd3_3 Cd 0.872223(11) 1.36784(2) 0.263794(6)
Cd4_2 Cd 0.548160(11) -0.91196(2) -0.073490(6)
O13_2 O 0.97417(12) -0.6150(3) 0.26979(7)
O14_2 O 0.95086(13) -0.6223(4) 0.31228(8)
N8_2 N 0.80689(13) -0.6293(3) 0.29660(7)
N11_3 N 0.87315(15) -0.8323(3) 0.26956(8)
O11A O 1.63958(15) 0.3994(3) 0.46828(6)
O12A O 1.55405(15) 0.3933(3) 0.47893(7)
N9_2 N 1.61206(13) 0.4163(3) 0.39350(7)
N12A N 1.54889(14) 0.6127(3) 0.42571(8)
N13A N 1.55229(13) 0.2114(3) 0.42295(7)
Cd3A Cd -0.127777(11) 0.13216(2) -0.236206(6)
Cd3A_2 Cd 0.872223(11) 0.13216(2) -0.236206(6)
Cd4_3 Cd 0.548160(11) 1.08804(2) -0.073490(6)
N2 N 0.3829(3) -0.5782(12) -0.05648(18)
C2 C 0.3859(4) -0.4820(14) -0.0478(2)
H1 H 0.3568 -0.4293 -0.0565
C3 C 0.4323(3) -0.4533(9) -0.02538(18)
H2 H 0.4347 -0.3784 -0.0188
C5 C 0.4753(2) -0.5226(5) -0.01161(12)
C7 C 0.4722(3) -0.6344(6) -0.02122(14)
H5 H 0.5009 -0.6874 -0.0122
C9 C 0.4241(3) -0.6634(8) -0.04509(19)
H6 H 0.4196 -0.7362 -0.0531
C5B C 0.5247(2) -0.4774(5) 0.01161(12)
C3B C 0.5677(3) -0.5467(9) 0.02538(18)
C2B C 0.6141(4) -0.5180(14) 0.0478(2)
N2B N 0.6171(3) -0.4218(12) 0.05648(18)
C9B C 0.5759(3) -0.3366(8) 0.04509(19)
C7B C 0.5278(3) -0.3656(6) 0.02122(14)
H5B H 0.4991 -0.3126 0.0122
H6B H 0.5804 -0.2638 0.0531
H1B H 0.6432 -0.5707 0.0565
H2B H 0.5653 -0.6216 0.0188
O17 O 0.0179(3) -0.6162(7) 0.02445(17)
O18 O 0.9521(4) 0.3824(8) 0.1793(2)
O19 O 0.7360(4) -0.0365(8) -0.0160(2)
O20 O 1.4289(5) 0.3911(10) 0.4818(3)
O21 O 0.3034(5) -0.8112(12) -0.0213(3)
O22 O -0.0575(6) -0.7054(14) -0.0248(3)
O23 O 0.9487(7) 0.6105(13) 0.3522(3)
loop_
_geom_bond_atom_site_label_1
_geom_bond_atom_site_label_2
_geom_bond_site_symmetry_1
_geom_bond_site_symmetry_2
Cd1 O1 1_555 1_555
Cd2 O3 1_555 1_555
Cd3 O9 1_555 1_555
Cd4 O11 1_555 1_555
O1 C18 1_555 1_555
O2 Cd1 1_555 1_555
O3 C19 1_555 1_555
O4 Cd2 1_555 1_555
O5 Cd1 1_555 1_555
O6 Cd1 1_555 1_555
O7 C33 1_555 1_555
O8 C33 1_555 1_555
O9 C46 1_555 1_555
O10 Cd3 1_555 1_555
O11 C47 1_555 1_555
O12 Cd4 1_555 1_555
O13 Cd3 1_555 1_555
O14 Cd3 1_555 1_555
O15 C61 1_555 1_555
O16 C61 1_555 1_555
N1 Cd1 1_555 1_555
N2 C2 1_555 1_555
N3 C67 1_555 1_555
N4 Cd1 1_555 1_555
N5 C77 1_555 1_555
N6 Cd2 1_555 1_555
N7 C87 1_555 1_555
N8 Cd3 1_555 1_555
N9 C96 1_555 1_555
N10 Cd3 1_555 1_555
N11 C106 1_555 1_555
N12 Cd4 1_555 1_555
N13 C116 1_555 1_555
C1 C4 1_555 1_555
C2 H1 1_555 1_555
C3 C2 1_555 1_555
H2 C3 1_555 1_555
C4 H3 1_555 1_555
C5 C3 1_555 1_555
C6 C4 1_555 1_555
H4 C6 1_555 1_555
C7 C5 1_555 1_555
H5 C7 1_555 1_555
C8 C6 1_555 1_555
C9 N2 1_555 1_555
H6 C9 1_555 1_555
C10 C8 1_555 1_555
H7 C10 1_555 1_555
C11 C1 1_555 1_555
H8 C11 1_555 1_555
C12 C13 1_555 1_555
C13 H9 1_555 1_555
C14 C13 1_555 1_555
H10 C14 1_555 1_555
C15 C8 1_555 1_555
C16 C15 1_555 1_555
H11 C16 1_555 1_555
C17 C12 1_555 1_555
H12 C17 1_555 1_555
C18 O2 1_555 1_555
C19 O4 1_555 1_555
C20 C21 1_555 1_555
C21 H13 1_555 1_555
C22 C21 1_555 1_555
H14 C22 1_555 1_555
C23 C22 1_555 1_555
C24 C23 1_555 1_555
H15 C24 1_555 1_555
C25 C20 1_555 1_555
H16 C25 1_555 1_555
C26 C27 1_555 1_555
C27 H17 1_555 1_555
C28 C27 1_555 1_555
H18 C28 1_555 1_555
C29 C23 1_555 1_555
C30 C29 1_555 1_555
H19 C30 1_555 1_555
C31 C26 1_555 1_555
H20 C31 1_555 1_555
C32 O5 1_555 1_555
C33 C26 1_555 1_555
C34 C35 1_555 1_555
C35 H21 1_555 1_555
C36 C35 1_555 1_555
H22 C36 1_555 1_555
C37 C36 1_555 1_555
C38 C37 1_555 1_555
H23 C38 1_555 1_555
C39 C34 1_555 1_555
H24 C39 1_555 1_555
C40 C41 1_555 1_555
C41 H25 1_555 1_555
C42 C41 1_555 1_555
H26 C42 1_555 1_555
C43 C37 1_555 1_555
C44 C43 1_555 1_555
H27 C44 1_555 1_555
C45 C40 1_555 1_555
H28 C45 1_555 1_555
C46 O10 1_555 1_555
C47 O12 1_555 1_555
C48 C49 1_555 1_555
C49 H29 1_555 1_555
C50 C49 1_555 1_555
H30 C50 1_555 1_555
C51 C50 1_555 1_555
C52 C51 1_555 1_555
H31 C52 1_555 1_555
C53 C48 1_555 1_555
H32 C53 1_555 1_555
C54 C55 1_555 1_555
C55 H33 1_555 1_555
C56 C55 1_555 1_555
H34 C56 1_555 1_555
C57 C51 1_555 1_555
C58 C57 1_555 1_555
H35 C58 1_555 1_555
C59 C54 1_555 1_555
H36 C59 1_555 1_555
C60 O13 1_555 1_555
C61 C54 1_555 1_555
C62 N1 1_555 1_555
H37 C62 1_555 1_555
C63 C62 1_555 1_555
H38 C63 1_555 1_555
C64 C63 1_555 1_555
C65 C64 1_555 1_555
H39 C65 1_555 1_555
C66 N1 1_555 1_555
H40 C66 1_555 1_555
C67 H41 1_555 1_555
C68 C67 1_555 1_555
H42 C68 1_555 1_555
C69 C64 1_555 1_555
C70 C69 1_555 1_555
H43 C70 1_555 1_555
C71 N3 1_555 1_555
H44 C71 1_555 1_555
C72 N4 1_555 1_555
H45 C72 1_555 1_555
C73 C72 1_555 1_555
H46 C73 1_555 1_555
C74 C73 1_555 1_555
C75 C74 1_555 1_555
H47 C75 1_555 1_555
C76 N4 1_555 1_555
H48 C76 1_555 1_555
C77 H49 1_555 1_555
C78 C77 1_555 1_555
H50 C78 1_555 1_555
C79 C74 1_555 1_555
C80 C79 1_555 1_555
H51 C80 1_555 1_555
C81 N5 1_555 1_555
H52 C81 1_555 1_555
C82 N6 1_555 1_555
H53 C82 1_555 1_555
C83 C82 1_555 1_555
H54 C83 1_555 1_555
C84 C83 1_555 1_555
C85 C84 1_555 1_555
H55 C85 1_555 1_555
C86 N6 1_555 1_555
H56 C86 1_555 1_555
C87 H57 1_555 1_555
C88 C87 1_555 1_555
H58 C88 1_555 1_555
C89 C84 1_555 1_555
C90 C89 1_555 1_555
H59 C90 1_555 1_555
C91 N8 1_555 1_555
H60 C91 1_555 1_555
C92 C91 1_555 1_555
H61 C92 1_555 1_555
C93 C92 1_555 1_555
C94 C93 1_555 1_555
H62 C94 1_555 1_555
C95 N8 1_555 1_555
H63 C95 1_555 1_555
C96 H64 1_555 1_555
C97 C96 1_555 1_555
H65 C97 1_555 1_555
C98 C93 1_555 1_555
C99 C98 1_555 1_555
H66 C99 1_555 1_555
C100 N9 1_555 1_555
H67 C100 1_555 1_555
C101 N10 1_555 1_555
H68 C101 1_555 1_555
C102 C101 1_555 1_555
H69 C102 1_555 1_555
C103 C102 1_555 1_555
C104 C103 1_555 1_555
H70 C104 1_555 1_555
C105 N10 1_555 1_555
H71 C105 1_555 1_555
C106 H72 1_555 1_555
C107 C106 1_555 1_555
H73 C107 1_555 1_555
C108 C103 1_555 1_555
C109 C108 1_555 1_555
H74 C109 1_555 1_555
C110 N11 1_555 1_555
H75 C110 1_555 1_555
C111 N12 1_555 1_555
H76 C111 1_555 1_555
C112 C111 1_555 1_555
H77 C112 1_555 1_555
C113 C112 1_555 1_555
C114 C113 1_555 1_555
H78 C114 1_555 1_555
C115 N12 1_555 1_555
H79 C115 1_555 1_555
C116 H80 1_555 1_555
C117 C116 1_555 1_555
H81 C117 1_555 1_555
C118 C113 1_555 1_555
C119 C118 1_555 1_555
H82 C119 1_555 1_555
C120 N13 1_555 1_555
H83 C120 1_555 1_555
C121 N7 1_555 1_555
H84 C121 1_555 1_555
C5B C5 1_555 1_555
C3B C5B 1_555 1_555
C2B C3B 1_555 1_555
N2B C2B 1_555 1_555
C9B N2B 1_555 1_555
C7B C5B 1_555 1_555
H5B C7B 1_555 1_555
H6B C9B 1_555 1_555
H1B C2B 1_555 1_555
H2B C3B 1_555 1_555
N4_2 C72_2 1_555 1_555
N5_2 Cd1 1_555 1_555
C72_2 H45_2 1_555 1_555
C73_2 C72_2 1_555 1_555
H46_2 C73_2 1_555 1_555
C74_2 C73_2 1_555 1_555
C75_2 C74_2 1_555 1_555
H47_2 C75_2 1_555 1_555
C76_2 N4_2 1_555 1_555
H48_2 C76_2 1_555 1_555
C77_2 N5_2 1_555 1_555
H49_2 C77_2 1_555 1_555
C78_2 C77_2 1_555 1_555
H50_2 C78_2 1_555 1_555
C79_2 C74_2 1_555 1_555
C80_2 C79_2 1_555 1_555
H51_2 C80_2 1_555 1_555
C81_2 N5_2 1_555 1_555
H52_2 C81_2 1_555 1_555
Cd1_2 N4_2 1_555 1_555
Cd2A O7 1_555 1_555
O5A C32A 1_555 1_555
O6A C32A 1_555 1_555
O7A Cd2 1_555 1_555
O8A Cd2 1_555 1_555
C20A C21A 1_555 1_555
C21A H13A 1_555 1_555
C22A C21A 1_555 1_555
H14A C22A 1_555 1_555
C23A C22A 1_555 1_555
C24A C23A 1_555 1_555
H15A C24A 1_555 1_555
C25A C20A 1_555 1_555
H16A C25A 1_555 1_555
C26A C27A 1_555 1_555
C27A H17A 1_555 1_555
C28A C27A 1_555 1_555
H18A C28A 1_555 1_555
C29A C23A 1_555 1_555
C30A C29A 1_555 1_555
H19A C30A 1_555 1_555
C31A C26A 1_555 1_555
H20A C31A 1_555 1_555
C32A C20A 1_555 1_555
C33A O7A 1_555 1_555
N1A C62A 1_555 1_555
N3A Cd2 1_555 1_555
C62A H37A 1_555 1_555
C63A C62A 1_555 1_555
H38A C63A 1_555 1_555
C64A C63A 1_555 1_555
C65A C64A 1_555 1_555
H39A C65A 1_555 1_555
C66A N1A 1_555 1_555
H40A C66A 1_555 1_555
C67A N3A 1_555 1_555
H41A C67A 1_555 1_555
C68A C67A 1_555 1_555
H42A C68A 1_555 1_555
C69A C64A 1_555 1_555
C70A C69A 1_555 1_555
H43A C70A 1_555 1_555
C71A N3A 1_555 1_555
H44A C71A 1_555 1_555
N6_2 C82_2 1_555 1_555
N7_2 Cd2 1_555 1_555
C82_2 H53_2 1_555 1_555
C83_2 C82_2 1_555 1_555
H54_2 C83_2 1_555 1_555
C84_2 C83_2 1_555 1_555
C85_2 C84_2 1_555 1_555
H55_2 C85_2 1_555 1_555
C86_2 N6_2 1_555 1_555
H56_2 C86_2 1_555 1_555
C87_2 N7_2 1_555 1_555
H57_2 C87_2 1_555 1_555
C88_2 C87_2 1_555 1_555
H58_2 C88_2 1_555 1_555
C89_2 C84_2 1_555 1_555
C90_2 C89_2 1_555 1_555
H59_2 C90_2 1_555 1_555
C121_2 N7_2 1_555 1_555
H84_2 C121_2 1_555 1_555
O1_2 Cd1_2 1_555 1_555
O2_2 Cd1_2 1_555 1_555
O3_2 C19_2 1_555 1_555
O4_2 C19_2 1_555 1_555
C1_2 C4_2 1_555 1_555
C4_2 H3_2 1_555 1_555
C6_2 C4_2 1_555 1_555
H4_2 C6_2 1_555 1_555
C8_2 C6_2 1_555 1_555
C10_2 C8_2 1_555 1_555
H7_2 C10_2 1_555 1_555
C11_2 C1_2 1_555 1_555
H8_2 C11_2 1_555 1_555
C12_2 C13_2 1_555 1_555
C13_2 H9_2 1_555 1_555
C14_2 C13_2 1_555 1_555
H10_2 C14_2 1_555 1_555
C15_2 C8_2 1_555 1_555
C16_2 C15_2 1_555 1_555
H11_2 C16_2 1_555 1_555
C17_2 C12_2 1_555 1_555
H12_2 C17_2 1_555 1_555
C18_2 O1_2 1_555 1_555
C19_2 C12_2 1_555 1_555
N10_2 C101_2 1_555 1_555
N11_2 Cd3 1_555 1_555
C101_2 H68_2 1_555 1_555
C102_2 C101_2 1_555 1_555
H69_2 C102_2 1_555 1_555
C103_2 C102_2 1_555 1_555
C104_2 C103_2 1_555 1_555
H70_2 C104_2 1_555 1_555
C105_2 N10_2 1_555 1_555
H71_2 C105_2 1_555 1_555
C106_2 N11_2 1_555 1_555
H72_2 C106_2 1_555 1_555
C107_2 C106_2 1_555 1_555
H73_2 C107_2 1_555 1_555
C108_2 C103_2 1_555 1_555
C109_2 C108_2 1_555 1_555
H74_2 C109_2 1_555 1_555
C110_2 N11_2 1_555 1_555
H75_2 C110_2 1_555 1_555
Cd3_2 N10_2 1_555 1_555
Cd4A O15 1_555 1_555
O13A C60A 1_555 1_555
O14A C60A 1_555 1_555
O15A Cd4 1_555 1_555
O16A Cd4 1_555 1_555
C48A C49A 1_555 1_555
C49A H29A 1_555 1_555
C50A C49A 1_555 1_555
H30A C50A 1_555 1_555
C51A C50A 1_555 1_555
C52A C51A 1_555 1_555
H31A C52A 1_555 1_555
C53A C48A 1_555 1_555
H32A C53A 1_555 1_555
C54A C55A 1_555 1_555
C55A H33A 1_555 1_555
C56A C55A 1_555 1_555
H34A C56A 1_555 1_555
C57A C51A 1_555 1_555
C58A C57A 1_555 1_555
H35A C58A 1_555 1_555
C59A C54A 1_555 1_555
H36A C59A 1_555 1_555
C60A C48A 1_555 1_555
C61A O15A 1_555 1_555
N8A C91A 1_555 1_555
N9A Cd4 1_555 1_555
C91A H60A 1_555 1_555
C92A C91A 1_555 1_555
H61A C92A 1_555 1_555
C93A C92A 1_555 1_555
C94A C93A 1_555 1_555
H62A C94A 1_555 1_555
C95A N8A 1_555 1_555
H63A C95A 1_555 1_555
C96A N9A 1_555 1_555
H64A C96A 1_555 1_555
C97A C96A 1_555 1_555
H65A C97A 1_555 1_555
C98A C93A 1_555 1_555
C99A C98A 1_555 1_555
H66A C99A 1_555 1_555
C100A N9A 1_555 1_555
H67A C100A 1_555 1_555
N12_2 C111_2 1_555 1_555
N13_2 Cd4 1_555 1_555
C111_2 H76_2 1_555 1_555
C112_2 C111_2 1_555 1_555
H77_2 C112_2 1_555 1_555
C113_2 C112_2 1_555 1_555
C114_2 C113_2 1_555 1_555
H78_2 C114_2 1_555 1_555
C115_2 N12_2 1_555 1_555
H79_2 C115_2 1_555 1_555
C116_2 N13_2 1_555 1_555
H80_2 C116_2 1_555 1_555
C117_2 C116_2 1_555 1_555
H81_2 C117_2 1_555 1_555
C118_2 C113_2 1_555 1_555
C119_2 C118_2 1_555 1_555
H82_2 C119_2 1_555 1_555
C120_2 N13_2 1_555 1_555
H83_2 C120_2 1_555 1_555
O9_2 Cd3_2 1_555 1_555
O10_2 Cd3_2 1_555 1_555
O11_2 C47_2 1_555 1_555
O12_2 C47_2 1_555 1_555
C34_2 C35_2 1_555 1_555
C35_2 H21_2 1_555 1_555
C36_2 C35_2 1_555 1_555
H22_2 C36_2 1_555 1_555
C37_2 C36_2 1_555 1_555
C38_2 C37_2 1_555 1_555
H23_2 C38_2 1_555 1_555
C39_2 C34_2 1_555 1_555
H24_2 C39_2 1_555 1_555
C40_2 C41_2 1_555 1_555
C41_2 H25_2 1_555 1_555
C42_2 C41_2 1_555 1_555
H26_2 C42_2 1_555 1_555
C43_2 C37_2 1_555 1_555
C44_2 C43_2 1_555 1_555
H27_2 C44_2 1_555 1_555
C45_2 C40_2 1_555 1_555
H28_2 C45_2 1_555 1_555
C46_2 O9_2 1_555 1_555
C47_2 C40_2 1_555 1_555
Cd2A_2 N3 1_555 1_555
Cd1_3 N5 1_555 1_555
Cd2_2 N7 1_555 1_555
Cd4A_2 N9 1_555 1_555
Cd3_3 N11 1_555 1_555
Cd4_2 N13 1_555 1_555
O5_2 Cd1_2 1_555 1_555
O6_2 Cd1_2 1_555 1_555
N1_2 Cd1_2 1_555 1_555
N5_3 Cd1_2 1_555 1_555
O3A Cd2A 1_555 1_555
O4A Cd2A 1_555 1_555
N3_2 Cd2A 1_555 1_555
N6A Cd2A 1_555 1_555
N7A Cd2A 1_555 1_555
Cd1A O5A 1_555 1_555
Cd1A_2 N1A 1_555 1_555
Cd2_3 N6_2 1_555 1_555
O13_2 Cd3_2 1_555 1_555
O14_2 Cd3_2 1_555 1_555
N8_2 Cd3_2 1_555 1_555
N11_3 Cd3_2 1_555 1_555
O11A Cd4A 1_555 1_555
O12A Cd4A 1_555 1_555
N9_2 Cd4A 1_555 1_555
N12A Cd4A 1_555 1_555
N13A Cd4A 1_555 1_555
Cd3A O13A 1_555 1_555
Cd3A_2 N8A 1_555 1_555
Cd4_3 N12_2 1_555 1_555
O6 C32 1_555 1_555
O8 Cd2A 1_555 1_555
O14 C60 1_555 1_555
O16 Cd4A 1_555 1_555
C1 C18 1_555 1_555
C7 C9 1_555 1_555
C10 C11 1_555 1_555
C12 C19 1_555 1_555
C14 C15 1_555 1_555
C16 C17 1_555 1_555
C20 C32 1_555 1_555
C24 C25 1_555 1_555
C28 C29 1_555 1_555
C30 C31 1_555 1_555
C34 C46 1_555 1_555
C38 C39 1_555 1_555
C40 C47 1_555 1_555
C42 C43 1_555 1_555
C44 C45 1_555 1_555
C48 C60 1_555 1_555
C52 C53 1_555 1_555
C56 C57 1_555 1_555
C58 C59 1_555 1_555
C65 C66 1_555 1_555
C68 C69 1_555 1_555
C70 C71 1_555 1_555
C75 C76 1_555 1_555
C78 C79 1_555 1_555
C80 C81 1_555 1_555
C85 C86 1_555 1_555
C88 C89 1_555 1_555
C90 C121 1_555 1_555
C94 C95 1_555 1_555
C97 C98 1_555 1_555
C99 C100 1_555 1_555
C104 C105 1_555 1_555
C107 C108 1_555 1_555
C109 C110 1_555 1_555
C114 C115 1_555 1_555
C117 C118 1_555 1_555
C119 C120 1_555 1_555
C9B C7B 1_555 1_555
C75_2 C76_2 1_555 1_555
C78_2 C79_2 1_555 1_555
C80_2 C81_2 1_555 1_555
O6A Cd1A 1_555 1_555
O8A C33A 1_555 1_555
C24A C25A 1_555 1_555
C26A C33A 1_555 1_555
C28A C29A 1_555 1_555
C30A C31A 1_555 1_555
C65A C66A 1_555 1_555
C68A C69A 1_555 1_555
C70A C71A 1_555 1_555
C85_2 C86_2 1_555 1_555
C88_2 C89_2 1_555 1_555
C90_2 C121_2 1_555 1_555
O2_2 C18_2 1_555 1_555
O3_2 Cd2_3 1_555 1_555
O4_2 Cd2_3 1_555 1_555
C1_2 C18_2 1_555 1_555
C10_2 C11_2 1_555 1_555
C14_2 C15_2 1_555 1_555
C16_2 C17_2 1_555 1_555
C104_2 C105_2 1_555 1_555
C107_2 C108_2 1_555 1_555
C109_2 C110_2 1_555 1_555
O14A Cd3A 1_555 1_555
O16A C61A 1_555 1_555
C52A C53A 1_555 1_555
C54A C61A 1_555 1_555
C56A C57A 1_555 1_555
C58A C59A 1_555 1_555
C94A C95A 1_555 1_555
C97A C98A 1_555 1_555
C99A C100A 1_555 1_555
C114_2 C115_2 1_555 1_555
C117_2 C118_2 1_555 1_555
C119_2 C120_2 1_555 1_555
O10_2 C46_2 1_555 1_555
O11_2 Cd4_2 1_555 1_555
O12_2 Cd4_2 1_555 1_555
C34_2 C46_2 1_555 1_555
C38_2 C39_2 1_555 1_555
C42_2 C43_2 1_555 1_555
C44_2 C45_2 1_555 1_555

#END
