
#######################################################################
#
#                 Cambridge Crystallographic Data Centre
#                                CCDC 
#
#######################################################################
#
# If this CIF has been generated from an entry in the Cambridge 
# Structural Database, then it will include bibliographic, chemical, 
# crystal, experimental, refinement or atomic coordinate data resulting 
# from the CCDC's data processing and validation procedures.
#
#######################################################################

data_AYADOT
_symmetry_cell_setting           triclinic
_symmetry_space_group_name_H-M   'P -1'
_symmetry_Int_Tables_number      2
_space_group_name_Hall           '-P 1'
loop_
_symmetry_equiv_pos_site_id
_symmetry_equiv_pos_as_xyz
1 x,y,z
2 -x,-y,-z
_cell_length_a                   9.096(3)
_cell_length_b                   10.703(4)
_cell_length_c                   12.039(5)
_cell_angle_alpha                82.59(3)
_cell_angle_beta                 75.14(3)
_cell_angle_gamma                85.69(3)
_cell_volume                     1122.31
loop_
_atom_site_label
_atom_site_type_symbol
_atom_site_fract_x
_atom_site_fract_y
_atom_site_fract_z
Ca1 Ca 0.0000 1.0000 0.0000
Ca2 Ca 0.00315(4) 0.43720(3) 0.33599(3)
O1 O 0.2405(2) 1.03025(15) 0.02167(12)
H1 H 0.2711(30) 1.0349(26) 0.0821(18)
H2 H 0.3158(27) 1.0193(29) -0.0350(20)
O2 O 0.0884(2) 0.9901(2) -0.20255(13)
H3 H 0.0545(33) 1.0467(24) -0.2471(23)
H4 H 0.1848(21) 0.9850(33) -0.2298(28)
O3 O -0.25245(15) 0.46741(14) 0.41962(12)
H5 H -0.3361(24) 0.4683(28) 0.3989(25)
H6 H -0.2760(32) 0.4867(26) 0.4880(16)
O4 O -0.1274(2) 0.35849(14) 0.19938(12)
H7 H -0.2208(21) 0.3739(26) 0.2012(24)
H8 H -0.0897(35) 0.3190(28) 0.1399(21)
O5 O 0.0585(2) 0.21695(15) 0.32880(14)
H9 H 0.1412(24) 0.1768(27) 0.3245(26)
H10 H 0.0159(41) 0.1794(34) 0.2893(31)
N1 N 0.0524(2) 0.7706(2) 0.02294(15)
N2 N 0.0397(2) 0.69172(14) 0.10280(13)
N3 N 0.0258(2) 0.6120(2) 0.18009(14)
N4 N -0.0113(2) 0.37120(14) 0.55385(13)
N5 N -0.0348(2) 0.26949(14) 0.60624(13)
N6 N -0.0580(2) 0.1694(2) 0.6581(2)
N7 N 0.2964(2) 0.43548(14) 0.26824(13)
N8 N 0.3477(2) 0.46708(15) 0.35551(13)
N9 N 0.4973(2) 0.44763(14) 0.33191(13)
N10 N 0.5473(2) 0.40316(14) 0.22907(13)
N11 N 0.4460(2) 0.29601(14) -0.14165(14)
C1 C 0.4216(2) 0.3971(2) 0.19165(15)
C2 C 0.4267(2) 0.3583(2) 0.07795(15)
C3 C 0.3027(2) 0.3829(2) 0.0286(2)
H12 H 0.2123 0.4200 0.0688
C4 C 0.3174(2) 0.3506(2) -0.0817(2)
H13 H 0.2356 0.3674 -0.1153
C5 C 0.5647(2) 0.2704(2) -0.0938(2)
H14 H 0.6528 0.2315 -0.1354
C6 C 0.5595(2) 0.3002(2) 0.0151(2)
H15 H 0.6431 0.2819 0.0464
O1A O -0.2405(2) 0.96975(15) -0.02167(12)
H1A H -0.2711(30) 0.9651(26) -0.0821(18)
H2A H -0.3158(27) 0.9807(29) 0.0350(20)
O2A O -0.0884(2) 1.0099(2) 0.20255(13)
H3A H -0.0545(33) 0.9533(24) 0.2471(23)
H4A H -0.1848(21) 1.0150(33) 0.2298(28)
N1A N -0.0524(2) 1.2294(2) -0.02294(15)
N2A N -0.0397(2) 1.30828(14) -0.10280(13)
N3A N -0.0258(2) 1.3880(2) -0.18009(14)
Ca2A Ca -0.00315(4) 1.56280(3) -0.33599(3)
N4A N 0.0113(2) 0.62880(14) 0.44615(13)
N5A N 0.0348(2) 0.73051(14) 0.39376(13)
N6A N 0.0580(2) 0.8306(2) 0.3419(2)
O3A O 0.25245(15) 1.53259(14) -0.41962(12)
H5A H 0.3361(24) 1.5317(28) -0.3989(25)
H6A H 0.2760(32) 1.5133(26) -0.4880(16)
O4A O 0.1274(2) 1.64151(14) -0.19938(12)
H7A H 0.2208(21) 1.6261(26) -0.2012(24)
H8A H 0.0897(35) 1.6810(28) -0.1399(21)
O5A O -0.0585(2) 1.78305(15) -0.32880(14)
H9A H -0.1412(24) 1.8232(27) -0.3245(26)
H10A H -0.0159(41) 1.8206(34) -0.2893(31)
N7A N -0.2964(2) 1.56452(14) -0.26824(13)
N8A N -0.3477(2) 1.53292(15) -0.35551(13)
N9A N -0.4973(2) 1.55237(14) -0.33191(13)
N10A N -0.5473(2) 1.59684(14) -0.22907(13)
N11A N -0.4460(2) 1.70399(14) 0.14165(14)
C1A C -0.4216(2) 1.6029(2) -0.19165(15)
C2A C -0.4267(2) 1.6417(2) -0.07795(15)
C3A C -0.3027(2) 1.6171(2) -0.0286(2)
H12A H -0.2123 1.5800 -0.0688
C4A C -0.3174(2) 1.6494(2) 0.0817(2)
H13A H -0.2356 1.6326 0.1153
C5A C -0.5647(2) 1.7296(2) 0.0938(2)
H14A H -0.6528 1.7685 0.1354
C6A C -0.5595(2) 1.6998(2) -0.0151(2)
H15A H -0.6431 1.7181 -0.0464
Ca2A_2 Ca -0.00315(4) 0.56280(3) 0.66401(3)
N4_2 N -0.0113(2) 1.37120(14) -0.44615(13)
N4A_2 N 0.0113(2) 1.62880(14) -0.55385(13)
N12 N 0.4622(2) 0.23890(14) -0.35067(14)
H16 H 0.4620(46) 0.2535(40) -0.2814(42)
N13 N 0.5937(2) 0.05561(14) -0.73807(13)
N14 N 0.5419(2) 0.01902(15) -0.82335(13)
N15 N 0.3932(2) 0.04326(15) -0.80297(13)
N16 N 0.3448(2) 0.09603(14) -0.70442(13)
C7 C 0.4698(2) 0.1023(2) -0.66628(15)
C8 C 0.4686(2) 0.1518(2) -0.55802(15)
C9 C 0.6038(2) 0.1619(2) -0.5255(2)
H17 H 0.6973 0.1397 -0.5733
C10 C 0.5956(2) 0.2054(2) -0.4206(2)
H18 H 0.6850 0.2116 -0.3980
C11 C 0.3320(2) 0.2308(2) -0.3816(2)
H19 H 0.2404 0.2550 -0.3325
C12 C 0.3308(2) 0.1876(2) -0.4845(2)
H20 H 0.2395 0.1823 -0.5046
O6 O -0.0784(6) 0.0352(5) 0.4683(5)
H21 H -0.045(14) -0.0409(44) 0.4579(82)
H22 H -0.064(14) 0.0489(87) 0.5336(53)
H11? H 0.4536(50) 0.2847(43) -0.2162(45)
loop_
_geom_bond_atom_site_label_1
_geom_bond_atom_site_label_2
_geom_bond_site_symmetry_1
_geom_bond_site_symmetry_2
Ca1 O1 1_555 1_555
Ca2 O3 1_555 1_555
O1 H1 1_555 1_555
H2 O1 1_555 1_555
O2 Ca1 1_555 1_555
H3 O2 1_555 1_555
H4 O2 1_555 1_555
O3 H5 1_555 1_555
H6 O3 1_555 1_555
O4 Ca2 1_555 1_555
H7 O4 1_555 1_555
H8 O4 1_555 1_555
O5 Ca2 1_555 1_555
H9 O5 1_555 1_555
H10 O5 1_555 1_555
N1 Ca1 1_555 1_555
N2 N1 1_555 1_555
N3 Ca2 1_555 1_555
N4 Ca2 1_555 1_555
N5 N4 1_555 1_555
N6 N5 1_555 1_555
N7 Ca2 1_555 1_555
N8 N7 1_555 1_555
N9 N8 1_555 1_555
N10 N9 1_555 1_555
N11 C4 1_555 1_555
C1 N7 1_555 1_555
C2 C1 1_555 1_555
C3 C2 1_555 1_555
H12 C3 1_555 1_555
C4 C3 1_555 1_555
H13 C4 1_555 1_555
C5 N11 1_555 1_555
H14 C5 1_555 1_555
C6 C2 1_555 1_555
H15 C6 1_555 1_555
N12 H16 1_555 1_555
N13 N14 1_555 1_555
N14 N15 1_555 1_555
N15 N16 1_555 1_555
N16 C7 1_555 1_555
C7 N13 1_555 1_555
C8 C7 1_555 1_555
C9 C8 1_555 1_555
H17 C9 1_555 1_555
C10 N12 1_555 1_555
H18 C10 1_555 1_555
C11 N12 1_555 1_555
H19 C11 1_555 1_555
C12 C8 1_555 1_555
H20 C12 1_555 1_555
O6 H21 1_555 1_555
H22 O6 1_555 1_555
O1A Ca1 1_555 1_555
H1A O1A 1_555 1_555
H2A O1A 1_555 1_555
O2A Ca1 1_555 1_555
H3A O2A 1_555 1_555
H4A O2A 1_555 1_555
N1A Ca1 1_555 1_555
N2A N1A 1_555 1_555
N3A N2A 1_555 1_555
Ca2A N3A 1_555 1_555
N4A Ca2 1_555 1_555
N5A N4A 1_555 1_555
N6A N5A 1_555 1_555
O3A Ca2A 1_555 1_555
H5A O3A 1_555 1_555
H6A O3A 1_555 1_555
O4A Ca2A 1_555 1_555
H7A O4A 1_555 1_555
H8A O4A 1_555 1_555
O5A Ca2A 1_555 1_555
H9A O5A 1_555 1_555
H10A O5A 1_555 1_555
N7A Ca2A 1_555 1_555
N8A N7A 1_555 1_555
N9A N8A 1_555 1_555
N10A N9A 1_555 1_555
N11A C4A 1_555 1_555
C1A N7A 1_555 1_555
C2A C1A 1_555 1_555
C3A C2A 1_555 1_555
H12A C3A 1_555 1_555
C4A C3A 1_555 1_555
H13A C4A 1_555 1_555
C5A N11A 1_555 1_555
H14A C5A 1_555 1_555
C6A C2A 1_555 1_555
H15A C6A 1_555 1_555
Ca2A_2 N4 1_555 1_555
N4_2 Ca2A 1_555 1_555
N4A_2 Ca2A 1_555 1_555
N2 N3 1_555 1_555
N10 C1 1_555 1_555
C5 C6 1_555 1_555
C9 C10 1_555 1_555
C11 C12 1_555 1_555
N4A Ca2A_2 1_555 1_555
N10A C1A 1_555 1_555
C5A C6A 1_555 1_555

#END
