
#######################################################################
#
#                 Cambridge Crystallographic Data Centre
#                                CCDC 
#
#######################################################################
#
# If this CIF has been generated from an entry in the Cambridge 
# Structural Database, then it will include bibliographic, chemical, 
# crystal, experimental, refinement or atomic coordinate data resulting 
# from the CCDC's data processing and validation procedures.
#
#######################################################################

data_BACMOH10
_symmetry_cell_setting           orthorhombic
_symmetry_space_group_name_H-M   'P 21 21 21'
_symmetry_Int_Tables_number      19
_space_group_name_Hall           'P 2ac 2ab'
loop_
_symmetry_equiv_pos_site_id
_symmetry_equiv_pos_as_xyz
1 x,y,z
2 1/2+x,1/2-y,-z
3 -x,1/2+y,1/2-z
4 1/2-x,-y,1/2+z
_cell_length_a                   16.049(2)
_cell_length_b                   9.622(1)
_cell_length_c                   7.465(1)
_cell_angle_alpha                90
_cell_angle_beta                 90
_cell_angle_gamma                90
_cell_volume                     1152.77
loop_
_atom_site_label
_atom_site_type_symbol
_atom_site_fract_x
_atom_site_fract_y
_atom_site_fract_z
Cu1 Cu 0.16560 0.15830 0.25980
O1 O 0.24100 -0.18430 0.00320
O2 O 0.22970 0.03230 0.09880
O3 O -0.08130 -0.22810 0.12460
O4 O 0.00190 -0.29350 0.33670
C1 C 0.21260 -0.09340 0.09810
C2 C 0.13810 -0.13750 0.21110
N1 N 0.12690 -0.02400 0.35210
C3 C 0.06050 -0.16060 0.10360
C4 C -0.01000 -0.22900 0.19610
N2 N 0.22160 0.32380 0.15760
C5 C 0.19010 0.44740 0.12040
N3 N 0.25160 0.53570 0.06830
C6 C 0.32270 0.45970 0.07400
C7 C 0.30560 0.33120 0.12590
H1 H 0.15250 -0.22620 0.27370
H2 H 0.06660 -0.01710 0.38430
H3 H 0.15990 -0.04880 0.46110
H4 H 0.04070 -0.06780 0.06110
H5 H 0.07570 -0.21950 -0.00170
H6 H 0.12980 0.47230 0.12930
H7 H 0.24570 0.63550 0.03320
H8 H 0.37950 0.49530 0.04360
H9 H 0.34660 0.25360 0.13950
O1C O 0.25900 0.18430 0.50320
Cu1C Cu 0.33440 -0.15830 -0.24020
O3B O 0.08130 0.27190 0.37540
Cu1B Cu -0.16560 -0.34170 0.24020
O5 O 0.48340 0.50050 0.39600
O6 O 0.05560 0.20720 0.80380
loop_
_geom_bond_atom_site_label_1
_geom_bond_atom_site_label_2
_geom_bond_site_symmetry_1
_geom_bond_site_symmetry_2
Cu1 O2 1_555 1_555
O1 C1 1_555 1_555
O2 C1 1_555 1_555
O3 C4 1_555 1_555
O4 C4 1_555 1_555
C1 C2 1_555 1_555
C2 N1 1_555 1_555
N1 Cu1 1_555 1_555
C3 C2 1_555 1_555
C4 C3 1_555 1_555
N2 Cu1 1_555 1_555
C5 N2 1_555 1_555
N3 C5 1_555 1_555
C6 N3 1_555 1_555
C7 N2 1_555 1_555
H1 C2 1_555 1_555
H2 N1 1_555 1_555
H3 N1 1_555 1_555
H4 C3 1_555 1_555
H5 C3 1_555 1_555
H6 C5 1_555 1_555
H7 N3 1_555 1_555
H8 C6 1_555 1_555
H9 C7 1_555 1_555
O1C Cu1 1_555 1_555
Cu1C O1 1_555 1_555
O3B Cu1 1_555 1_555
Cu1B O3 1_555 1_555
C6 C7 1_555 1_555

#END
