
#######################################################################
#
#                 Cambridge Crystallographic Data Centre
#                                CCDC 
#
#######################################################################
#
# If this CIF has been generated from an entry in the Cambridge 
# Structural Database, then it will include bibliographic, chemical, 
# crystal, experimental, refinement or atomic coordinate data resulting 
# from the CCDC's data processing and validation procedures.
#
#######################################################################

data_BAHGUN02
_symmetry_cell_setting           monoclinic
_symmetry_space_group_name_H-M   'C c'
_symmetry_Int_Tables_number      9
_space_group_name_Hall           'C -2yc'
loop_
_symmetry_equiv_pos_site_id
_symmetry_equiv_pos_as_xyz
1 x,y,z
2 x,-y,1/2+z
3 1/2+x,1/2+y,z
4 1/2+x,1/2-y,1/2+z
_cell_length_a                   4.9410(2)
_cell_length_b                   25.0290(10)
_cell_length_c                   10.9600(4)
_cell_angle_alpha                90
_cell_angle_beta                 97.834(2)
_cell_angle_gamma                90
_cell_volume                     1342.75
loop_
_atom_site_label
_atom_site_type_symbol
_atom_site_fract_x
_atom_site_fract_y
_atom_site_fract_z
Cu1 Cu 0.50262(11) 0.11321(2) 0.44296(8)
N1 N 0.6586(11) 0.1741(2) 0.5497(5)
C1 C 0.9409(13) 0.3167(3) 0.7465(6)
O1 O 0.8214(9) 0.3293(2) 0.8375(4)
O2 O 1.1402(7) 0.34147(14) 0.7145(4)
C2 C 0.5527(14) 0.1890(3) 0.6519(6)
H1 H 0.4200(14) 0.1676(3) 0.6799(6)
C3 C 0.6364(13) 0.2353(3) 0.7163(7)
H2 H 0.5594(13) 0.2448(3) 0.7860(7)
C4 C 0.8350(13) 0.2672(3) 0.6759(6)
C5 C 0.9471(11) 0.2519(2) 0.5714(4)
H3 H 1.0826(11) 0.2723(2) 0.5428(4)
C6 C 0.8522(10) 0.2056(2) 0.5110(4)
H4 H 0.9252(10) 0.1957(2) 0.4405(4)
N2 N 0.3468(9) 0.0558(2) 0.3253(4)
C7 C -0.0055(10) -0.0663(2) 0.0744(5)
O3 O -0.2596(8) -0.0602(2) 0.0369(4)
O4 O 0.1449(7) -0.10337(13) 0.0483(3)
C8 C 0.1148(11) 0.0645(2) 0.2488(5)
H5 H 0.0310(11) 0.0977(2) 0.2504(5)
C9 C -0.0046(11) 0.0264(2) 0.1680(5)
H6 H -0.1676(11) 0.0339(2) 0.1179(5)
C10 C 0.1179(10) -0.0232(2) 0.1613(4)
C11 C 0.3587(10) -0.0323(2) 0.2394(5)
H7 H 0.4490(10) -0.0648(2) 0.2368(5)
C12 C 0.4648(11) 0.0068(2) 0.3212(5)
H8 H 0.6222(11) -0.0006(2) 0.3754(5)
O1C O 0.3214(9) 0.1707(2) 0.3375(4)
O3A O 0.7404(8) 0.0602(2) 0.5369(4)
O4A O 0.1449(7) 0.10337(13) 0.5483(3)
Cu1C Cu 1.00262(11) 0.38679(2) 0.94296(8)
Cu1A Cu -0.49738(11) -0.11321(2) -0.05704(8)
Cu1A_2 Cu 0.50262(11) -0.11321(2) -0.05704(8)
O5 O -0.3636(10) 0.1190(2) -0.0286(5)
H9 H -0.5008(10) 0.1311(2) -0.0756(5)
H10 H -0.3590(10) 0.1340(2) 0.0412(5)
O6 O 0.0971(11) 0.1429(3) -0.1350(6)
H11 H -0.0412(11) 0.1359(3) -0.0994(6)
H12 H 0.0840(11) 0.1760(3) -0.1518(6)
H13? H 0.0676(11) 0.1267(3) -0.2038(6)
loop_
_geom_bond_atom_site_label_1
_geom_bond_atom_site_label_2
_geom_bond_site_symmetry_1
_geom_bond_site_symmetry_2
Cu1 N1 1_555 1_555
N1 C2 1_555 1_555
C1 O1 1_555 1_555
O1 Cu1C 1_555 1_555
O2 C1 1_555 1_555
C2 H1 1_555 1_555
C3 C2 1_555 1_555
H2 C3 1_555 1_555
C4 C1 1_555 1_555
C5 C4 1_555 1_555
H3 C5 1_555 1_555
C6 N1 1_555 1_555
H4 C6 1_555 1_555
N2 Cu1 1_555 1_555
C7 O3 1_555 1_555
O3 Cu1A 1_555 1_555
O4 C7 1_555 1_555
C8 N2 1_555 1_555
H5 C8 1_555 1_555
C9 C8 1_555 1_555
H6 C9 1_555 1_555
C10 C7 1_555 1_555
C11 C10 1_555 1_555
H7 C11 1_555 1_555
C12 N2 1_555 1_555
H8 C12 1_555 1_555
O5 H9 1_555 1_555
H10 O5 1_555 1_555
O6 H11 1_555 1_555
H12 O6 1_555 1_555
O1C Cu1 1_555 1_555
O3A Cu1 1_555 1_555
O4A Cu1 1_555 1_555
Cu1A_2 O4 1_555 1_555
C3 C4 1_555 1_555
C5 C6 1_555 1_555
C9 C10 1_555 1_555
C11 C12 1_555 1_555

#END
