
#######################################################################
#
#                 Cambridge Crystallographic Data Centre
#                                CCDC 
#
#######################################################################
#
# If this CIF has been generated from an entry in the Cambridge 
# Structural Database, then it will include bibliographic, chemical, 
# crystal, experimental, refinement or atomic coordinate data resulting 
# from the CCDC's data processing and validation procedures.
#
#######################################################################

data_BEDYEQ
_symmetry_cell_setting           hexagonal
_symmetry_space_group_name_H-M   'P 6/m m m'
_symmetry_Int_Tables_number      191
_space_group_name_Hall           "-P 6 2'"
loop_
_symmetry_equiv_pos_site_id
_symmetry_equiv_pos_as_xyz
1 x,y,z
2 x-y,x,z
3 -y,x-y,z
4 -x,-y,z
5 -x+y,-x,z
6 y,-x+y,z
7 x-y,-y,-z
8 -x,-x+y,-z
9 y,x,-z
10 -y,-x,-z
11 -x+y,y,-z
12 x,x-y,-z
13 -x,-y,-z
14 -x+y,-x,-z
15 y,-x+y,-z
16 x,y,-z
17 x-y,x,-z
18 -y,x-y,-z
19 -x+y,y,z
20 x,x-y,z
21 -y,-x,z
22 y,x,z
23 x-y,-y,z
24 -x,-x+y,z
_cell_length_a                   41.968(7)
_cell_length_b                   41.968(7)
_cell_length_c                   17.143(2)
_cell_angle_alpha                90
_cell_angle_beta                 90
_cell_angle_gamma                120
_cell_volume                     26148.9
loop_
_atom_site_label
_atom_site_type_symbol
_atom_site_fract_x
_atom_site_fract_y
_atom_site_fract_z
Zr1 Zr 0.457975(13) 0.0000 0.10266(3)
Zr2 Zr 0.533821(9) 0.067643(18) 0.0000
Fe1 Fe 0.51200(7) 0.25600(3) 0.5000
O1 O 0.51645(6) 0.03289(11) 0.1031(3)
O2 O 0.47404(12) 0.03385(11) 0.0000
O3 O 0.51760(8) 0.09873(7) 0.07892(15)
O4 O 0.46905(9) 0.05532(8) 0.14348(18)
N1 N 0.50405(19) 0.25202(9) 0.3824(3)
N2 N 0.50293(19) 0.20432(14) 0.5000
C1 C 0.50226(17) 0.19348(13) 0.3581(2)
C2 C 0.50287(17) 0.18392(13) 0.4354(2)
C3 C 0.52665(14) 0.15019(12) 0.1919(2)
H1 H 0.5468 0.1564 0.1577
C4 C 0.49969(17) 0.23415(13) 0.2536(2)
H2 H 0.4981 0.2201 0.2089
C5 C 0.49592(14) 0.11662(12) 0.1876(2)
C6 C 0.49360(14) 0.08768(12) 0.1314(3)
C7 C 0.46701(16) 0.10779(14) 0.2381(3)
H3 H 0.4455 0.0842 0.2363
C8 C 0.50258(18) 0.22487(13) 0.3334(2)
C9 C 0.46991(18) 0.13396(16) 0.2913(3)
H4 H 0.4496 0.1283 0.3245
C10 C 0.50048(17) 0.16701(13) 0.2975(3)
C11 C 0.52848(16) 0.17569(13) 0.2472(3)
H5 H 0.5497 0.1995 0.2494
C12 C 0.5030(2) 0.15141(14) 0.4607(3)
H6 H 0.5031 0.1332 0.4280
O5 O 0.40541(11) 0.0000 0.0918(3)
O6 O 0.46148(12) 0.0000 0.2309(3)
Cl1 Cl 0.57704(14) 0.28852(7) 0.5000
Zr1J Zr 0.542025(13) 0.0000 -0.10266(3)
Zr1C Zr 0.542025(13) 0.0000 0.10266(3)
Zr1F Zr 0.457975(13) 0.0000 -0.10266(3)
Zr1A Zr 0.457975(13) 0.457975(13) 0.10266(3)
Zr1K Zr 0.457975(13) 0.457975(13) 0.89734(3)
Zr1F_2 Zr 0.457975(13) 0.0000 0.89734(3)
Zr2K Zr 0.533821(9) 0.466178(20) 0.0000
Zr2K_2 Zr 0.533821(9) 0.466178(20) 1.0000
Zr2_2 Zr 0.533821(9) 0.067643(18) 1.0000
O1J O 0.51644(13) 0.03289(11) -0.1031(3)
O1C O 0.48355(6) -0.03289(11) 0.1031(3)
O1F O 0.48356(13) -0.03289(11) -0.1031(3)
O2J O 0.55981(16) 0.03385(11) 0.0000
O2F O 0.44019(16) -0.03385(11) 0.0000
O2C O 0.52596(12) -0.03385(11) 0.0000
O3S O 0.51760(8) 0.41887(11) 0.07892(15)
O3K O 0.51760(8) 0.41887(11) 0.92108(15)
O3O O 0.51760(8) 0.09873(7) 0.92108(15)
O3J O 0.58113(11) 0.09873(7) -0.07892(15)
O3O_2 O 0.51760(8) 0.09873(7) -0.07892(15)
O3R O 0.58113(11) 0.09873(7) 0.07892(15)
O4S O 0.46905(9) 0.41373(12) 0.14348(18)
O4K O 0.46905(9) 0.41373(12) 0.85652(18)
O4O O 0.46905(9) 0.05532(8) 0.85652(18)
O4V O 0.41373(12) -0.05532(8) 0.14348(18)
O4J O 0.58627(12) 0.05532(8) -0.14348(18)
O4L O 0.53095(9) -0.05532(8) -0.14348(18)
N1O N 0.50405(19) 0.25202(9) 0.6176(3)
N2K N 0.50293(19) 0.29861(24) 0.5000
C1O C 0.50226(17) 0.19348(13) 0.6419(2)
C1K C 0.50226(17) 0.30878(21) 0.6419(2)
C1S C 0.50226(17) 0.30878(21) 0.3581(2)
C2O C 0.50287(17) 0.18392(13) 0.5646(2)
C2K C 0.50287(17) 0.31895(21) 0.5646(2)
C2S C 0.50287(17) 0.31895(21) 0.4354(2)
C3S C 0.52665(14) 0.37646(18) 0.1919(2)
C3K C 0.52665(14) 0.37646(18) 0.8081(2)
C3O C 0.52665(14) 0.15019(12) 0.8081(2)
H1S H 0.5468 0.3904 0.1577
H1K H 0.5468 0.3904 0.8423
H1O H 0.5468 0.1564 0.8423
C4S C 0.49969(17) 0.26554(21) 0.2536(2)
C4K C 0.49969(17) 0.26554(21) 0.7464(2)
C4O C 0.49969(17) 0.23415(13) 0.7464(2)
H2S H 0.4981 0.2780 0.2089
H2O H 0.4981 0.2201 0.7911
H2K H 0.4981 0.2780 0.7911
C5S C 0.49592(14) 0.37930(18) 0.1876(2)
C5K C 0.49592(14) 0.37930(18) 0.8124(2)
C5O C 0.49592(14) 0.11662(12) 0.8124(2)
C6S C 0.49360(14) 0.40592(18) 0.1314(3)
C6K C 0.49360(14) 0.40592(18) 0.8686(3)
C6O C 0.49360(14) 0.08768(12) 0.8686(3)
C7S C 0.46701(16) 0.35922(21) 0.2381(3)
C7K C 0.46701(16) 0.35922(21) 0.7619(3)
C7O C 0.46701(16) 0.10779(14) 0.7619(3)
H3S H 0.4455 0.3613 0.2363
H3K H 0.4455 0.3613 0.7637
H3O H 0.4455 0.0842 0.7637
C8O C 0.50258(18) 0.22487(13) 0.6666(2)
C8K C 0.50258(18) 0.27771(22) 0.6666(2)
C8S C 0.50258(18) 0.27771(22) 0.3334(2)
C9S C 0.46991(18) 0.33595(24) 0.2913(3)
C9K C 0.46991(18) 0.33595(24) 0.7087(3)
C9O C 0.46991(18) 0.13396(16) 0.7087(3)
H4S H 0.4496 0.3213 0.3245
H4K H 0.4496 0.3213 0.6755
H4O H 0.4496 0.1283 0.6755
C10S C 0.50048(17) 0.33347(21) 0.2975(3)
C10K C 0.50048(17) 0.33347(21) 0.7025(3)
C10O C 0.50048(17) 0.16701(13) 0.7025(3)
C11S C 0.52848(16) 0.35279(21) 0.2472(3)
C11K C 0.52848(16) 0.35279(21) 0.7528(3)
C11O C 0.52848(16) 0.17569(13) 0.7528(3)
H5S H 0.5497 0.3502 0.2494
H5K H 0.5497 0.3502 0.7506
H5O H 0.5497 0.1995 0.7506
C12S C 0.5030(2) 0.35159(24) 0.4607(3)
C12K C 0.5030(2) 0.35159(24) 0.5393(3)
C12O C 0.5030(2) 0.15141(14) 0.5393(3)
H6K H 0.5031 0.3699 0.5720
H6S H 0.5031 0.3699 0.4280
H6O H 0.5031 0.1332 0.5720
O5J O 0.59459(11) 0.0000 -0.0918(3)
O6J O 0.53852(12) 0.0000 -0.2309(3)
loop_
_geom_bond_atom_site_label_1
_geom_bond_atom_site_label_2
_geom_bond_site_symmetry_1
_geom_bond_site_symmetry_2
Zr1 O1 1_555 1_555
Zr2 O1 1_555 1_555
Fe1 N1 1_555 1_555
O1 Zr1C 1_555 1_555
O2 Zr1 1_555 1_555
O3 Zr2 1_555 1_555
O4 Zr1 1_555 1_555
N1 C8 1_555 1_555
N2 Fe1 1_555 1_555
C1 C2 1_555 1_555
C2 N2 1_555 1_555
C3 H1 1_555 1_555
C4 H2 1_555 1_555
C5 C3 1_555 1_555
C6 O3 1_555 1_555
C7 C5 1_555 1_555
H3 C7 1_555 1_555
C8 C1 1_555 1_555
C9 C7 1_555 1_555
H4 C9 1_555 1_555
C10 C1 1_555 1_555
C11 C3 1_555 1_555
H5 C11 1_555 1_555
C12 C2 1_555 1_555
H6 C12 1_555 1_555
O5 Zr1 1_555 1_555
O6 Zr1 1_555 1_555
Cl1 Fe1 1_555 1_555
Zr1J O1J 1_555 1_555
Zr1C O1C 1_555 1_555
Zr1F O2 1_555 1_555
Zr1A O4S 1_555 1_555
Zr1K O4K 1_555 1_555
Zr1F_2 O4O 1_555 1_555
Zr2K O3S 1_555 1_555
Zr2K_2 O3K 1_555 1_555
Zr2_2 O3O 1_555 1_555
O1J Zr2 1_555 1_555
O1C Zr1 1_555 1_555
O1F Zr1J 1_555 1_555
O2J Zr2 1_555 1_555
O2F Zr1 1_555 1_555
O2C Zr1J 1_555 1_555
O3S C6S 1_555 1_555
O3K C6K 1_555 1_555
O3O C6O 1_555 1_555
O3J Zr2 1_555 1_555
O3O_2 Zr2 1_555 1_555
O3R Zr2 1_555 1_555
O4S C6S 1_555 1_555
O4K C6K 1_555 1_555
O4O C6O 1_555 1_555
O4V Zr1 1_555 1_555
O4J Zr1J 1_555 1_555
O4L Zr1J 1_555 1_555
N1O Fe1 1_555 1_555
N2K Fe1 1_555 1_555
C1O C2O 1_555 1_555
C1K C2K 1_555 1_555
C1S C2S 1_555 1_555
C2O N2 1_555 1_555
C2K N2K 1_555 1_555
C2S N2K 1_555 1_555
C3S H1S 1_555 1_555
C3K H1K 1_555 1_555
C3O H1O 1_555 1_555
C4S C4 1_555 1_555
C4K C4O 1_555 1_555
C4O H2O 1_555 1_555
H2S C4S 1_555 1_555
H2K C4K 1_555 1_555
C5S C3S 1_555 1_555
C5K C3K 1_555 1_555
C5O C3O 1_555 1_555
C6S C5S 1_555 1_555
C6K C5K 1_555 1_555
C6O C5O 1_555 1_555
C7S C5S 1_555 1_555
C7K C5K 1_555 1_555
C7O C5O 1_555 1_555
H3S C7S 1_555 1_555
H3K C7K 1_555 1_555
H3O C7O 1_555 1_555
C8O N1O 1_555 1_555
C8K N1O 1_555 1_555
C8S N1 1_555 1_555
C9S C7S 1_555 1_555
C9K C7K 1_555 1_555
C9O C7O 1_555 1_555
H4S C9S 1_555 1_555
H4K C9K 1_555 1_555
H4O C9O 1_555 1_555
C10S C1S 1_555 1_555
C10K C1K 1_555 1_555
C10O C1O 1_555 1_555
C11S C3S 1_555 1_555
C11K C3K 1_555 1_555
C11O C3O 1_555 1_555
H5S C11S 1_555 1_555
H5K C11K 1_555 1_555
H5O C11O 1_555 1_555
C12S C2S 1_555 1_555
C12K C2K 1_555 1_555
C12O C12 1_555 1_555
H6K C12K 1_555 1_555
H6S C12S 1_555 1_555
H6O C12O 1_555 1_555
O5J Zr1J 1_555 1_555
O6J Zr1J 1_555 1_555
Zr2 O2 1_555 1_555
O4 C6 1_555 1_555
C4 C8 1_555 1_555
C5 C6 1_555 1_555
C9 C10 1_555 1_555
C10 C11 1_555 1_555
Zr1J O2J 1_555 1_555
Zr1C O2J 1_555 1_555
Zr1C O2C 1_555 1_555
Zr1F O1J 1_555 1_555
Zr1F O1F 1_555 1_555
Zr1F O2F 1_555 1_555
C1O C8O 1_555 1_555
C1K C8K 1_555 1_555
C1S C8S 1_555 1_555
C2O C12O 1_555 1_555
C4S C8S 1_555 1_555
C4K C8K 1_555 1_555
C4O C8O 1_555 1_555
C9S C10S 1_555 1_555
C9K C10K 1_555 1_555
C9O C10O 1_555 1_555
C10S C11S 1_555 1_555
C10K C11K 1_555 1_555
C10O C11O 1_555 1_555
C12S C12K 1_555 1_555

#END
