
#######################################################################
#
#                 Cambridge Crystallographic Data Centre
#                                CCDC 
#
#######################################################################
#
# If this CIF has been generated from an entry in the Cambridge 
# Structural Database, then it will include bibliographic, chemical, 
# crystal, experimental, refinement or atomic coordinate data resulting 
# from the CCDC's data processing and validation procedures.
#
#######################################################################

data_BELKEJ01
_symmetry_cell_setting           triclinic
_symmetry_space_group_name_H-M   'P -1'
_symmetry_Int_Tables_number      2
_space_group_name_Hall           '-P 1'
loop_
_symmetry_equiv_pos_site_id
_symmetry_equiv_pos_as_xyz
1 x,y,z
2 -x,-y,-z
_cell_length_a                   9.6214(15)
_cell_length_b                   10.2423(16)
_cell_length_c                   10.9393(17)
_cell_angle_alpha                70.584(3)
_cell_angle_beta                 66.008(3)
_cell_angle_gamma                63.084(3)
_cell_volume                     863.501
loop_
_atom_site_label
_atom_site_type_symbol
_atom_site_fract_x
_atom_site_fract_y
_atom_site_fract_z
C1 C 0.3338(5) 0.7488(5) 0.5776(4)
C2 C 0.2313(5) 0.8980(5) 0.6170(4)
C3 C 0.0623(5) 0.9555(5) 0.6397(5)
H1 H 0.0126 0.8995 0.6296
C4 C -0.0330(6) 1.0942(5) 0.6768(5)
H2 H -0.1476 1.1337 0.6910
C5 C 0.0386(7) 1.1747(5) 0.6933(5)
H3 H -0.0275 1.2685 0.7210
C6 C 0.2070(7) 1.1198(5) 0.6697(5)
H4 H 0.2557 1.1764 0.6801
C7 C 0.3034(6) 0.9819(5) 0.6310(4)
H5 H 0.4185 0.9445 0.6139
C8 C 0.4635(5) 0.3639(5) 0.7454(4)
C9 C 0.4430(5) 0.2855(5) 0.8896(4)
C10 C 0.3293(6) 0.2173(5) 0.9545(5)
H6 H 0.2648 0.2196 0.9067
C11 C 0.3094(7) 0.1452(6) 1.0899(5)
H7 H 0.2321 0.0978 1.1343
C12 C 0.4034(7) 0.1431(7) 1.1595(5)
H8 H 0.3898 0.0945 1.2518
C13 C 0.5150(7) 0.2106(7) 1.0957(6)
H9 H 0.5784 0.2087 1.1444
C14 C 0.5377(7) 0.2821(6) 0.9604(5)
H10 H 0.6164 0.3280 0.9166
C15 C 0.1424(5) 0.4331(5) 0.4129(4)
H11 H 0.2421 0.3856 0.3492
C16 C 0.0039(5) 0.5576(4) 0.5914(4)
H12 H 0.0031 0.6001 0.6569
Cu1 Cu 0.37154(6) 0.48737(6) 0.50267(5)
N1 N 0.1458(4) 0.4895(4) 0.5045(4)
O1 O 0.2620(4) 0.6805(3) 0.5626(3)
O2 O 0.4851(4) 0.7021(4) 0.5604(3)
O3 O 0.3624(4) 0.3805(4) 0.6904(3)
O4 O 0.5815(4) 0.4082(4) 0.6875(3)
C1A C -0.3338(5) 0.2512(5) 0.4224(4)
C2A C -0.2313(5) 0.1020(5) 0.3830(4)
C3A C -0.0623(5) 0.0445(5) 0.3603(5)
H1A H -0.0126 0.1005 0.3704
C4A C 0.0330(6) -0.0942(5) 0.3232(5)
H2A H 0.1476 -0.1337 0.3090
C5A C -0.0386(7) -0.1747(5) 0.3067(5)
H3A H 0.0275 -0.2685 0.2790
C6A C -0.2070(7) -0.1198(5) 0.3303(5)
H4A H -0.2557 -0.1764 0.3199
C7A C -0.3034(6) 0.0181(5) 0.3690(4)
H5A H -0.4185 0.0555 0.3861
C8A C -0.4635(5) 0.6361(5) 0.2546(4)
C9A C -0.4430(5) 0.7145(5) 0.1104(4)
C10A C -0.3293(6) 0.7827(5) 0.0455(5)
H6A H -0.2648 0.7804 0.0933
C11A C -0.3094(7) 0.8548(6) -0.0899(5)
H7A H -0.2321 0.9022 -0.1343
C12A C -0.4034(7) 0.8569(7) -0.1595(5)
H8A H -0.3898 0.9055 -0.2518
C13A C -0.5150(7) 0.7894(7) -0.0957(6)
H9A H -0.5784 0.7913 -0.1444
C14A C -0.5377(7) 0.7179(6) 0.0396(5)
H10A H -0.6164 0.6720 0.0834
C15A C -0.1424(5) 0.5669(5) 0.5871(4)
H11A H -0.2421 0.6144 0.6508
C16A C -0.0039(5) 0.4424(4) 0.4086(4)
H12A H -0.0031 0.3999 0.3431
Cu1A Cu -0.37154(6) 0.51263(6) 0.49733(5)
Cu1_2 Cu -0.62846(6) 0.48737(6) 0.50267(5)
Cu1A_2 Cu 0.62846(6) 0.51263(6) 0.49733(5)
N1A N -0.1458(4) 0.5105(4) 0.4955(4)
O1A O -0.2620(4) 0.3195(3) 0.4374(3)
O2A O -0.4851(4) 0.2979(4) 0.4396(3)
O2_2 O -0.5149(4) 0.7021(4) 0.5604(3)
O2A_2 O 0.5149(4) 0.2979(4) 0.4396(3)
O3A O -0.3624(4) 0.6195(4) 0.3096(3)
O4A O -0.5815(4) 0.5918(4) 0.3125(3)
O4_2 O -0.4185(4) 0.4082(4) 0.6875(3)
O4A_2 O 0.4185(4) 0.5918(4) 0.3125(3)
C17 C 0.1287(8) 0.5793(7) 0.9911(6)
O5 O 0.0959(6) 0.6033(5) 0.8935(5)
O6 O 0.1610(6) 0.5552(5) 1.0893(5)
C18 C 0.0000 1.0000 1.0000
O7 O 0.0202(8) 0.8906(5) 0.9784(5)
O7A O -0.0202(8) 1.1094(5) 1.0216(5)
loop_
_geom_bond_atom_site_label_1
_geom_bond_atom_site_label_2
_geom_bond_site_symmetry_1
_geom_bond_site_symmetry_2
C1 C2 1_555 1_555
C2 C3 1_555 1_555
C3 H1 1_555 1_555
C4 C3 1_555 1_555
H2 C4 1_555 1_555
C5 C4 1_555 1_555
H3 C5 1_555 1_555
C6 C5 1_555 1_555
H4 C6 1_555 1_555
C7 C2 1_555 1_555
H5 C7 1_555 1_555
C8 C9 1_555 1_555
C9 C10 1_555 1_555
C10 H6 1_555 1_555
C11 C10 1_555 1_555
H7 C11 1_555 1_555
C12 C11 1_555 1_555
H8 C12 1_555 1_555
C13 C12 1_555 1_555
H9 C13 1_555 1_555
C14 C9 1_555 1_555
H10 C14 1_555 1_555
C15 H11 1_555 1_555
C16 H12 1_555 1_555
C17 O5 1_555 1_555
C18 O7 1_555 1_555
Cu1 N1 1_555 1_555
N1 C15 1_555 1_555
O1 C1 1_555 1_555
O2 C1 1_555 1_555
O3 C8 1_555 1_555
O4 C8 1_555 1_555
O6 C17 1_555 1_555
C1A C2A 1_555 1_555
C2A C3A 1_555 1_555
C3A H1A 1_555 1_555
C4A C3A 1_555 1_555
H2A C4A 1_555 1_555
C5A C4A 1_555 1_555
H3A C5A 1_555 1_555
C6A C5A 1_555 1_555
H4A C6A 1_555 1_555
C7A C2A 1_555 1_555
H5A C7A 1_555 1_555
C8A C9A 1_555 1_555
C9A C10A 1_555 1_555
C10A H6A 1_555 1_555
C11A C10A 1_555 1_555
H7A C11A 1_555 1_555
C12A C11A 1_555 1_555
H8A C12A 1_555 1_555
C13A C12A 1_555 1_555
H9A C13A 1_555 1_555
C14A C9A 1_555 1_555
H10A C14A 1_555 1_555
C15A C16 1_555 1_555
H11A C15A 1_555 1_555
C16A C15 1_555 1_555
H12A C16A 1_555 1_555
Cu1A Cu1_2 1_555 1_555
Cu1_2 O2A 1_555 1_555
Cu1A_2 Cu1 1_555 1_555
N1A C15A 1_555 1_555
O1A C1A 1_555 1_555
O2A C1A 1_555 1_555
O2_2 Cu1A 1_555 1_555
O2A_2 Cu1 1_555 1_555
O3A C8A 1_555 1_555
O4A C8A 1_555 1_555
O4_2 Cu1A 1_555 1_555
O4A_2 Cu1 1_555 1_555
O7A C18 1_555 1_555
C6 C7 1_555 1_555
C13 C14 1_555 1_555
C16 N1 1_555 1_555
Cu1 O1 1_555 1_555
Cu1 O3 1_555 1_555
O2 Cu1A_2 1_555 1_555
O4 Cu1A_2 1_555 1_555
C6A C7A 1_555 1_555
C13A C14A 1_555 1_555
C16A N1A 1_555 1_555
Cu1A N1A 1_555 1_555
Cu1A O1A 1_555 1_555
Cu1A O3A 1_555 1_555
Cu1_2 O4A 1_555 1_555

#END
