
#######################################################################
#
#                 Cambridge Crystallographic Data Centre
#                                CCDC 
#
#######################################################################
#
# If this CIF has been generated from an entry in the Cambridge 
# Structural Database, then it will include bibliographic, chemical, 
# crystal, experimental, refinement or atomic coordinate data resulting 
# from the CCDC's data processing and validation procedures.
#
#######################################################################

data_BENZOL
_symmetry_cell_setting           triclinic
_symmetry_space_group_name_H-M   'P -1'
_symmetry_Int_Tables_number      2
_space_group_name_Hall           '-P 1'
loop_
_symmetry_equiv_pos_site_id
_symmetry_equiv_pos_as_xyz
1 x,y,z
2 -x,-y,-z
_cell_length_a                   9.781(2)
_cell_length_b                   11.007(2)
_cell_length_c                   11.382(2)
_cell_angle_alpha                80.46(3)
_cell_angle_beta                 82.42(3)
_cell_angle_gamma                81.98(3)
_cell_volume                     1189.17
loop_
_atom_site_label
_atom_site_type_symbol
_atom_site_fract_x
_atom_site_fract_y
_atom_site_fract_z
Sr1 Sr 0.92863(3) 0.33728(2) 0.99727(2)
C1 C 0.5796(3) 0.3931(3) 0.8582(2)
C2 C 0.4613(3) 0.3965(3) 0.7970(2)
C3 C 0.3292(3) 0.4161(3) 0.8629(3)
C4 C 0.4753(3) 0.3722(2) 0.6773(2)
C5 C 0.3561(3) 0.3639(3) 0.6196(2)
H1 H 0.2681 0.3745 0.6616
C6 C 0.3689(3) 0.3410(3) 0.5053(3)
H2 H 0.2894 0.3359 0.4705
C7 C 0.5007(3) 0.3245(2) 0.4372(2)
C8 C 0.6190(3) 0.3321(3) 0.4956(3)
H3 H 0.7071 0.3216 0.4538
C9 C 0.6065(3) 0.3541(3) 0.6099(3)
H4 H 0.6862 0.3574 0.6451
C10 C 0.5162(3) 0.3012(3) 0.3172(2)
C11 C 0.4003(3) 0.2924(3) 0.2588(3)
C12 C 0.6483(3) 0.2872(3) 0.2498(3)
C13 C 0.9802(3) 0.3469(2) 0.4643(2)
C14 C 0.9887(3) 0.2428(2) 0.5561(2)
C15 C 0.9876(3) 0.2690(2) 0.6742(2)
C16 C 0.9946(3) 0.1013(2) 0.4088(2)
H5 H 0.9914 0.1689 0.3477
C17 C 0.9946(2) 0.1218(2) 0.5285(2)
C18 C 1.0010(3) 0.0160(2) 0.6188(2)
H6 H 1.0021 0.0265 0.6981
N1 N 0.6769(3) 0.3912(3) 0.9051(2)
N2 N 0.2206(3) 0.4341(3) 0.9126(2)
N3 N 0.3046(3) 0.2859(3) 0.2133(3)
N4 N 0.7555(3) 0.2781(3) 0.1962(2)
N5 N 0.9860(3) 0.2923(2) 0.7687(2)
N6 N 0.9720(3) 0.4264(2) 0.3865(2)
O1 O 0.94559(18) 0.55238(16) 0.86221(16)
H7 H 0.9938 0.5496 0.7959
H8 H 0.8654 0.5893 0.8503
O2 O 0.8834(2) 0.12114(19) 0.9829(2)
H9 H 0.8143 0.1224 0.9464
H10 H 0.8838 0.0617 1.0383
O3 O 1.1136(2) 0.1811(2) 1.0902(2)
H11 H 1.1551 0.1166 1.0625
H12 H 1.1737 0.2175 1.1121
C13A C 1.0198(3) -0.3469(2) 0.5357(2)
C14A C 1.0113(3) -0.2428(2) 0.4439(2)
C15A C 1.0124(3) -0.2690(2) 0.3258(2)
C16A C 1.0054(3) -0.1013(2) 0.5912(2)
H5A H 1.0086 -0.1689 0.6523
C17A C 1.0054(2) -0.1218(2) 0.4715(2)
C18A C 0.9990(3) -0.0160(2) 0.3812(2)
H6A H 0.9979 -0.0265 0.3019
N5A N 1.0140(3) -0.2923(2) 0.2313(2)
N6A N 1.0280(3) -0.4264(2) 0.6135(2)
Sr1A Sr 0.07137(3) 0.66272(2) 1.00273(2)
C1A C 0.4204(3) 0.6069(3) 1.1418(2)
C2A C 0.5387(3) 0.6035(3) 1.2030(2)
C3A C 0.6708(3) 0.5839(3) 1.1371(3)
C4A C 0.5247(3) 0.6278(2) 1.3227(2)
C5A C 0.6439(3) 0.6361(3) 1.3804(2)
H1A H 0.7319 0.6255 1.3384
C6A C 0.6311(3) 0.6590(3) 1.4947(3)
H2A H 0.7106 0.6641 1.5295
C7A C 0.4993(3) 0.6755(2) 1.5628(2)
C8A C 0.3810(3) 0.6679(3) 1.5044(3)
H3A H 0.2929 0.6784 1.5462
C9A C 0.3935(3) 0.6459(3) 1.3901(3)
H4A H 0.3138 0.6426 1.3549
C10A C 0.4838(3) 0.6988(3) 1.6828(2)
C11A C 0.5997(3) 0.7076(3) 1.7412(3)
C12A C 0.3517(3) 0.7128(3) 1.7502(3)
N1A N 0.3231(3) 0.6088(3) 1.0949(2)
N2A N 0.7794(3) 0.5659(3) 1.0874(2)
N3A N 0.6954(3) 0.7141(3) 1.7867(3)
N4A N 0.2445(3) 0.7219(3) 1.8038(2)
O1A O 0.05441(18) 0.44762(16) 1.13779(16)
H7A H 0.0062 0.4504 1.2041
H8A H 0.1346 0.4107 1.1497
O2A O 0.1166(2) 0.87886(19) 1.0171(2)
H9A H 0.1857 0.8776 1.0536
H10A H 0.1162 0.9383 0.9617
O3A O -0.1136(2) 0.8189(2) 0.9098(2)
H11A H -0.1551 0.8834 0.9375
H12A H -0.1737 0.7825 0.8879
Sr1_2 Sr -0.07137(3) 0.33728(2) 0.99727(2)
Sr1_3 Sr 0.92863(3) 0.33728(2) -0.00273(2)
Sr1A_2 Sr 0.07137(3) 0.66272(2) 2.00273(2)
Sr1A_3 Sr 1.07137(3) -0.33728(2) 0.00273(2)
Sr1A_4 Sr 1.07137(3) 0.66272(2) 1.00273(2)
N4_2 N 0.7555(3) 0.2781(3) 1.1962(2)
N4A_2 N 0.2445(3) 0.7219(3) 0.8038(2)
N5A_2 N 0.0140(3) 0.7077(2) 1.2313(2)
O1_2 O -0.05441(18) 0.55238(16) 0.86221(16)
O1A_2 O 1.05441(18) 0.44762(16) 1.13779(16)
C19 C 0.6079(4) 0.0663(3) 0.7853(3)
C20 C 0.4870(3) 0.0546(3) 0.7348(3)
C21 C 0.3601(4) 0.0720(3) 0.8081(3)
C22 C 0.6227(3) 0.0084(3) 0.5458(3)
H13 H 0.7048 0.0138 0.5765
C23 C 0.4945(3) 0.0269(3) 0.6181(3)
C24 C 0.3717(3) 0.0169(3) 0.5668(3)
H14 H 0.2858 0.0280 0.6121
N7 N 0.7065(4) 0.0783(3) 0.8241(3)
N8 N 0.2570(4) 0.0849(4) 0.8660(3)
C19A C 0.3921(4) -0.0663(3) 0.2147(3)
C20A C 0.5130(3) -0.0546(3) 0.2652(3)
C21A C 0.6399(4) -0.0720(3) 0.1919(3)
C22A C 0.3773(3) -0.0084(3) 0.4542(3)
H13A H 0.2952 -0.0138 0.4235
C23A C 0.5055(3) -0.0269(3) 0.3819(3)
C24A C 0.6283(3) -0.0169(3) 0.4332(3)
H14A H 0.7142 -0.0280 0.3879
N7A N 0.2935(4) -0.0783(3) 0.1759(3)
N8A N 0.7430(4) -0.0849(4) 0.1340(3)
loop_
_geom_bond_atom_site_label_1
_geom_bond_atom_site_label_2
_geom_bond_site_symmetry_1
_geom_bond_site_symmetry_2
Sr1 N1 1_555 1_555
C1 C2 1_555 1_555
C2 C3 1_555 1_555
C3 N2 1_555 1_555
C4 C2 1_555 1_555
C5 C4 1_555 1_555
H1 C5 1_555 1_555
C6 C5 1_555 1_555
H2 C6 1_555 1_555
C7 C6 1_555 1_555
C8 C7 1_555 1_555
H3 C8 1_555 1_555
C9 C4 1_555 1_555
H4 C9 1_555 1_555
C10 C7 1_555 1_555
C11 C10 1_555 1_555
C12 C10 1_555 1_555
C13 C14 1_555 1_555
C14 C15 1_555 1_555
C15 N5 1_555 1_555
C16 H5 1_555 1_555
C17 C14 1_555 1_555
C18 C17 1_555 1_555
H6 C18 1_555 1_555
N1 C1 1_555 1_555
N2 Sr1A 1_555 1_555
N3 C11 1_555 1_555
N4 C12 1_555 1_555
N5 Sr1 1_555 1_555
N6 C13 1_555 1_555
O1 Sr1 1_555 1_555
H7 O1 1_555 1_555
H8 O1 1_555 1_555
O2 Sr1 1_555 1_555
H9 O2 1_555 1_555
H10 O2 1_555 1_555
O3 Sr1 1_555 1_555
H11 O3 1_555 1_555
H12 O3 1_555 1_555
C19 C20 1_555 1_555
C20 C21 1_555 1_555
C21 N8 1_555 1_555
C22 H13 1_555 1_555
C23 C20 1_555 1_555
C24 C23 1_555 1_555
H14 C24 1_555 1_555
N7 C19 1_555 1_555
C13A C14A 1_555 1_555
C14A C15A 1_555 1_555
C15A N5A 1_555 1_555
C16A C18 1_555 1_555
H5A C16A 1_555 1_555
C17A C14A 1_555 1_555
C18A C16 1_555 1_555
H6A C18A 1_555 1_555
N5A Sr1A_3 1_555 1_555
N6A C13A 1_555 1_555
Sr1A N1A 1_555 1_555
C1A C2A 1_555 1_555
C2A C3A 1_555 1_555
C3A N2A 1_555 1_555
C4A C2A 1_555 1_555
C5A C4A 1_555 1_555
H1A C5A 1_555 1_555
C6A C5A 1_555 1_555
H2A C6A 1_555 1_555
C7A C6A 1_555 1_555
C8A C7A 1_555 1_555
H3A C8A 1_555 1_555
C9A C4A 1_555 1_555
H4A C9A 1_555 1_555
C10A C7A 1_555 1_555
C11A C10A 1_555 1_555
C12A C10A 1_555 1_555
N1A C1A 1_555 1_555
N2A Sr1 1_555 1_555
N3A C11A 1_555 1_555
N4A C12A 1_555 1_555
O1A Sr1A 1_555 1_555
H7A O1A 1_555 1_555
H8A O1A 1_555 1_555
O2A Sr1A 1_555 1_555
H9A O2A 1_555 1_555
H10A O2A 1_555 1_555
O3A Sr1A 1_555 1_555
H11A O3A 1_555 1_555
H12A O3A 1_555 1_555
Sr1_2 O1A 1_555 1_555
Sr1_3 N4 1_555 1_555
Sr1A_2 N4A 1_555 1_555
Sr1A_4 O1 1_555 1_555
N4_2 Sr1 1_555 1_555
N4A_2 Sr1A 1_555 1_555
N5A_2 Sr1A 1_555 1_555
O1_2 Sr1A 1_555 1_555
O1A_2 Sr1 1_555 1_555
C19A C20A 1_555 1_555
C20A C21A 1_555 1_555
C21A N8A 1_555 1_555
C22A C24 1_555 1_555
H13A C22A 1_555 1_555
C23A C20A 1_555 1_555
C24A C22 1_555 1_555
H14A C24A 1_555 1_555
N7A C19A 1_555 1_555
C8 C9 1_555 1_555
C16 C17 1_555 1_555
C22 C23 1_555 1_555
C16A C17A 1_555 1_555
C17A C18A 1_555 1_555
C8A C9A 1_555 1_555
Sr1_2 O1_2 1_555 1_555
Sr1A_4 O1A_2 1_555 1_555
C22A C23A 1_555 1_555
C23A C24A 1_555 1_555

#END
