
#######################################################################
#
#                 Cambridge Crystallographic Data Centre
#                                CCDC 
#
#######################################################################
#
# If this CIF has been generated from an entry in the Cambridge 
# Structural Database, then it will include bibliographic, chemical, 
# crystal, experimental, refinement or atomic coordinate data resulting 
# from the CCDC's data processing and validation procedures.
#
#######################################################################

data_BEPVEZ
_symmetry_cell_setting           triclinic
_symmetry_space_group_name_H-M   'P -1'
_symmetry_Int_Tables_number      2
_space_group_name_Hall           '-P 1'
loop_
_symmetry_equiv_pos_site_id
_symmetry_equiv_pos_as_xyz
1 x,y,z
2 -x,-y,-z
_cell_length_a                   11.4507(6)
_cell_length_b                   11.6026(5)
_cell_length_c                   13.2025(7)
_cell_angle_alpha                65.360(5)
_cell_angle_beta                 71.368(5)
_cell_angle_gamma                71.461(4)
_cell_volume                     1475.62
loop_
_atom_site_label
_atom_site_type_symbol
_atom_site_fract_x
_atom_site_fract_y
_atom_site_fract_z
N1 N 0.2938(3) 0.1167(4) -0.3911(4)
C1 C 0.1089(6) 0.1230(8) -0.1103(6)
H1 H 0.1507 0.0478 -0.0571
H2 H 0.0196 0.1278 -0.0870
H3 H 0.1263 0.1996 -0.1120
Cu1 Cu -0.38203(5) -0.75598(6) 0.08878(5)
N2 N 0.2707(3) 0.1279(4) -0.2878(4)
H4 H 0.3248 0.1427 -0.2647
C2 C 0.1559(4) 0.1136(5) -0.2263(5)
Cu2 Cu -0.53619(5) -0.86368(6) 0.50565(5)
N3 N -0.1517(3) -0.1027(3) -0.1774(3)
C3 C 0.0989(4) 0.0910(5) -0.2913(5)
Cu3 Cu -0.30981(5) -0.95167(5) 0.80240(5)
N4 N -0.3855(3) -0.5261(4) 0.1307(4)
H5 H -0.4120 -0.5685 0.2016
C4 C 0.1878(4) 0.0951(5) -0.3939(5)
N5 N -0.3542(3) -0.5757(4) 0.0461(4)
C5 C 0.1783(5) 0.0744(7) -0.4933(6)
H6 H 0.2004 0.1454 -0.5614
H7 H 0.0934 0.0693 -0.4846
H8 H 0.2349 -0.0051 -0.4987
C6 C -0.0307(4) 0.0626(5) -0.2570(5)
H9 H -0.0845 0.1073 -0.2051
H10 H -0.0656 0.0986 -0.3245
N6 N -0.4451(4) -0.7927(4) 0.2510(4)
C7 C -0.0360(4) -0.0775(4) -0.2012(4)
N7 N -0.4538(4) -0.8773(4) 0.6214(4)
C8 C 0.0662(4) -0.1775(5) -0.1741(5)
H11 H 0.1455 -0.1599 -0.1910
N8 N -0.3319(4) -0.8900(5) 0.9231(4)
C9 C 0.0504(4) -0.3023(5) -0.1224(6)
H12 H 0.1188 -0.3703 -0.1039
C10 C -0.0668(4) -0.3272(5) -0.0979(6)
H13 H -0.0786 -0.4120 -0.0626
C11 C -0.1668(4) -0.2249(5) -0.1264(5)
C12 C -0.2983(4) -0.2414(5) -0.1083(6)
H14 H -0.3124 -0.2278 -0.1814
H15 H -0.3581 -0.1742 -0.0813
C13 C -0.3987(6) -0.3281(6) 0.1676(7)
H16 H -0.4764 -0.3421 0.2223
H17 H -0.4065 -0.2373 0.1229
H18 H -0.3315 -0.3566 0.2070
C14 C -0.3701(4) -0.4037(5) 0.0908(6)
C15 C -0.3258(4) -0.3713(5) -0.0254(5)
C16 C -0.3187(4) -0.4808(5) -0.0487(5)
C17 C -0.2754(5) -0.4985(6) -0.1611(5)
H19 H -0.1865 -0.5009 -0.1880
H20 H -0.3201 -0.4276 -0.2149
H21 H -0.2915 -0.5786 -0.1529
C18 C -0.4808(4) -0.8203(5) 0.3478(5)
C19 C -0.3994(4) -0.9033(4) 0.6902(4)
C20 C -0.3487(4) -0.8426(5) 0.9891(5)
N1_2 N -0.7062(3) -0.8833(4) 0.6089(4)
Cu1_2 Cu -0.38203(5) -0.75598(6) 1.08878(5)
Cu2_2 Cu 0.46381(5) 0.13632(6) -0.49435(5)
N3_2 N -0.1517(3) -1.1027(3) 0.8226(3)
Cu3_2 Cu -0.30981(5) 0.04833(5) -0.19760(5)
C20_2 C -0.3487(4) -0.8426(5) -0.0109(5)
C21 C 1.1051(15) -0.417(2) -0.3607(15)
H22 H 1.1296 -0.4845 -0.2922
H23 H 1.0252 -0.3630 -0.3375
C22 C 1.0870(15) -0.479(2) -0.431(2)
H24 H 1.0071 -0.4342 -0.4542
H25 H 1.0809 -0.5679 -0.3841
C23 C 1.190(2) -0.480(2) -0.5383(18)
H26 H 1.1891 -0.5484 -0.5616
H27 H 1.1730 -0.3978 -0.5997
C24 C 1.3189(14) -0.5003(17) -0.5189(17)
H28 H 1.3797 -0.4921 -0.5908
H29 H 1.3412 -0.5882 -0.4667
C25 C 1.3291(14) -0.4072(18) -0.471(2)
H30 H 1.3770 -0.4555 -0.4119
H31 H 1.3762 -0.3449 -0.5315
C26 C 1.205(2) -0.3342(15) -0.4222(17)
H32 H 1.1739 -0.2586 -0.4834
H33 H 1.2174 -0.3041 -0.3690
loop_
_geom_bond_atom_site_label_1
_geom_bond_atom_site_label_2
_geom_bond_site_symmetry_1
_geom_bond_site_symmetry_2
N1 N2 1_555 1_555
C1 H1 1_555 1_555
H2 C1 1_555 1_555
H3 C1 1_555 1_555
Cu1 N5 1_555 1_555
N2 H4 1_555 1_555
C2 C1 1_555 1_555
Cu2 N7 1_555 1_555
N3 C7 1_555 1_555
C3 C2 1_555 1_555
Cu3 N8 1_555 1_555
N4 H5 1_555 1_555
C4 N1 1_555 1_555
N5 N4 1_555 1_555
C5 C4 1_555 1_555
H6 C5 1_555 1_555
H7 C5 1_555 1_555
H8 C5 1_555 1_555
C6 C3 1_555 1_555
H9 C6 1_555 1_555
H10 C6 1_555 1_555
N6 Cu1 1_555 1_555
C7 C6 1_555 1_555
N7 C19 1_555 1_555
C8 C7 1_555 1_555
H11 C8 1_555 1_555
N8 C20 1_555 1_555
C9 C8 1_555 1_555
H12 C9 1_555 1_555
C10 C9 1_555 1_555
H13 C10 1_555 1_555
C11 N3 1_555 1_555
C12 C11 1_555 1_555
H14 C12 1_555 1_555
H15 C12 1_555 1_555
C13 H16 1_555 1_555
H17 C13 1_555 1_555
H18 C13 1_555 1_555
C14 N4 1_555 1_555
C15 C12 1_555 1_555
C16 N5 1_555 1_555
C17 C16 1_555 1_555
H19 C17 1_555 1_555
H20 C17 1_555 1_555
H21 C17 1_555 1_555
C18 Cu2 1_555 1_555
C19 Cu3 1_555 1_555
C20 Cu1_2 1_555 1_555
C21 H22 1_555 1_555
H23 C21 1_555 1_555
C22 C21 1_555 1_555
H24 C22 1_555 1_555
H25 C22 1_555 1_555
C23 C22 1_555 1_555
H26 C23 1_555 1_555
H27 C23 1_555 1_555
C24 C23 1_555 1_555
H28 C24 1_555 1_555
H29 C24 1_555 1_555
C25 C24 1_555 1_555
H30 C25 1_555 1_555
H31 C25 1_555 1_555
C26 C21 1_555 1_555
H32 C26 1_555 1_555
H33 C26 1_555 1_555
N1_2 Cu2 1_555 1_555
Cu2_2 N1 1_555 1_555
N3_2 Cu3 1_555 1_555
Cu3_2 N3 1_555 1_555
C20_2 Cu1 1_555 1_555
N2 C2 1_555 1_555
C3 C4 1_555 1_555
N6 C18 1_555 1_555
C10 C11 1_555 1_555
C13 C14 1_555 1_555
C14 C15 1_555 1_555
C15 C16 1_555 1_555
C25 C26 1_555 1_555

#END
