
#######################################################################
#
#                 Cambridge Crystallographic Data Centre
#                                CCDC 
#
#######################################################################
#
# If this CIF has been generated from an entry in the Cambridge 
# Structural Database, then it will include bibliographic, chemical, 
# crystal, experimental, refinement or atomic coordinate data resulting 
# from the CCDC's data processing and validation procedures.
#
#######################################################################

data_BEPVOJ01
_symmetry_cell_setting           triclinic
_symmetry_space_group_name_H-M   'P -1'
_symmetry_Int_Tables_number      2
_space_group_name_Hall           '-P 1'
loop_
_symmetry_equiv_pos_site_id
_symmetry_equiv_pos_as_xyz
1 x,y,z
2 -x,-y,-z
_cell_length_a                   11.4964(6)
_cell_length_b                   11.3571(6)
_cell_length_c                   12.9352(7)
_cell_angle_alpha                115.386(5)
_cell_angle_beta                 91.133(4)
_cell_angle_gamma                69.305(5)
_cell_volume                     1409.92
loop_
_atom_site_label
_atom_site_type_symbol
_atom_site_fract_x
_atom_site_fract_y
_atom_site_fract_z
Cu1 Cu 0.94121(2) 0.13681(2) 0.006150(19)
Cu2 Cu 1.12206(2) -0.17028(2) -0.405769(18)
N1 N 1.77134(13) 0.23323(15) -0.89940(13)
N2 N 1.34221(12) 0.21218(13) -0.69227(12)
N3 N 1.13214(13) 0.10228(13) -0.36806(13)
H1 H 1.1119 0.1329 -0.2949
N4 N 1.15212(13) -0.03115(14) -0.44813(13)
N5 N 1.02308(14) 0.26293(16) 0.11123(14)
N6 N 1.74915(14) 0.34773(16) -0.79807(13)
H2 H 1.8020 0.3880 -0.7746
N7 N 1.05697(16) -0.05615(15) -0.24261(13)
C1 C 1.17898(16) -0.03416(18) -0.54964(15)
C2 C 1.01185(17) 0.01223(18) -0.14773(16)
C3 C 1.66986(17) 0.20258(18) -0.90420(18)
C4 C 1.08326(16) 0.30210(16) 0.17761(15)
C5 C 1.17793(16) 0.09634(17) -0.53277(17)
C6 C 1.63572(18) 0.3933(2) -0.73677(17)
C7 C 1.14730(16) 0.18048(17) -0.41519(18)
C8 C 1.19981(17) 0.14064(19) -0.62260(18)
H3 H 1.1790 0.0824 -0.6948
H4 H 1.1422 0.2373 -0.5982
C9 C 1.58138(17) 0.30073(18) -0.80344(17)
C10 C 1.33104(16) 0.13112(18) -0.64534(16)
C11 C 1.2096(2) -0.1660(2) -0.66035(18)
H5 H 1.2980 -0.2218 -0.6747
H6 H 1.1876 -0.1422 -0.7229
H7 H 1.1628 -0.2188 -0.6547
C12 C 1.45566(16) 0.20777(18) -0.71918(17)
C13 C 1.45521(18) 0.3028(2) -0.77256(19)
H8 H 1.4170 0.2765 -0.8423
H9 H 1.4020 0.3987 -0.7189
C14 C 1.56286(19) 0.1224(2) -0.6987(2)
H10 H 1.6415 0.1199 -0.7179
C15 C 1.43558(19) 0.0441(2) -0.6223(2)
H11 H 1.4275 -0.0113 -0.5891
C16 C 1.6613(2) 0.0786(3) -1.0055(3)
H12 H 1.5909 0.1098 -1.0415
H13 H 1.6501 0.0149 -0.9798
H14 H 1.7373 0.0311 -1.0603
C17 C 1.1321(2) 0.3332(2) -0.3426(2)
H15 H 1.0474 0.3880 -0.3020
H16 H 1.1494 0.3701 -0.3922
H17 H 1.1898 0.3379 -0.2877
C18 C 1.5898(3) 0.5204(3) -0.6215(2)
H18 H 1.6586 0.5477 -0.5931
H19 H 1.5555 0.4987 -0.5680
H20 H 1.5257 0.5964 -0.6294
C19 C 1.5510(2) 0.0413(3) -0.6493(2)
H21 H 1.6223 -0.0163 -0.6340
Cu3 Cu 1.180766(18) 0.35734(2) 0.293108(18)
N8 N 1.16461(16) 0.53290(17) 0.42002(15)
C20 C 1.15191(18) 0.64370(18) 0.48951(17)
Cu1_2 Cu 1.94121(2) 0.13681(2) -0.993850(19)
Cu2_2 Cu 1.12206(2) 0.82972(2) 0.594231(18)
N1_2 N 0.77134(13) 0.23323(15) 0.10060(13)
N2_2 N 1.34221(12) 0.21218(13) 0.30773(12)
Cu3_2 Cu 1.180766(18) 0.35734(2) -0.706892(18)
C20_2 C 1.15191(18) -0.35630(18) -0.51049(17)
O1 O 0.8722(4) 0.7486(3) 0.1170(2)
O2 O 0.8435(4) 0.5039(5) 0.0065(7)
C21 C 0.7231(5) 0.6068(7) 0.0135(8)
H22 H 0.7187 0.6113 -0.0598
H23 H 0.7167 0.6985 0.0728
C22 C 0.6079(5) 0.5769(10) 0.0418(11)
H24 H 0.5989 0.5955 0.1215
H25 H 0.6212 0.4800 -0.0069
H26 H 0.5328 0.6368 0.0281
loop_
_geom_bond_atom_site_label_1
_geom_bond_atom_site_label_2
_geom_bond_site_symmetry_1
_geom_bond_site_symmetry_2
Cu1 N5 1_555 1_555
Cu2 N4 1_555 1_555
N1 N6 1_555 1_555
N2 C10 1_555 1_555
N3 H1 1_555 1_555
N4 N3 1_555 1_555
N5 C4 1_555 1_555
N6 H2 1_555 1_555
N7 Cu2 1_555 1_555
C1 N4 1_555 1_555
C2 Cu1 1_555 1_555
C3 N1 1_555 1_555
C4 Cu3 1_555 1_555
C5 C1 1_555 1_555
C6 N6 1_555 1_555
C7 N3 1_555 1_555
C8 C5 1_555 1_555
H3 C8 1_555 1_555
H4 C8 1_555 1_555
C9 C3 1_555 1_555
C10 C8 1_555 1_555
C11 C1 1_555 1_555
H5 C11 1_555 1_555
H6 C11 1_555 1_555
H7 C11 1_555 1_555
C12 N2 1_555 1_555
C13 C9 1_555 1_555
H8 C13 1_555 1_555
H9 C13 1_555 1_555
C14 C12 1_555 1_555
H10 C14 1_555 1_555
C15 C10 1_555 1_555
H11 C15 1_555 1_555
C16 C3 1_555 1_555
H12 C16 1_555 1_555
H13 C16 1_555 1_555
H14 C16 1_555 1_555
C17 C7 1_555 1_555
H15 C17 1_555 1_555
H16 C17 1_555 1_555
H17 C17 1_555 1_555
C18 C6 1_555 1_555
H18 C18 1_555 1_555
H19 C18 1_555 1_555
H20 C18 1_555 1_555
C19 C14 1_555 1_555
H21 C19 1_555 1_555
Cu3 N8 1_555 1_555
N8 C20 1_555 1_555
C20 Cu2_2 1_555 1_555
O2 C21 1_555 1_555
C21 H22 1_555 1_555
H23 C21 1_555 1_555
C22 C21 1_555 1_555
H24 C22 1_555 1_555
H25 C22 1_555 1_555
H26 C22 1_555 1_555
Cu1_2 N1 1_555 1_555
N1_2 Cu1 1_555 1_555
N2_2 Cu3 1_555 1_555
Cu3_2 N2 1_555 1_555
C20_2 Cu2 1_555 1_555
N7 C2 1_555 1_555
C5 C7 1_555 1_555
C6 C9 1_555 1_555
C12 C13 1_555 1_555
C15 C19 1_555 1_555

#END
