
#######################################################################
#
#                 Cambridge Crystallographic Data Centre
#                                CCDC 
#
#######################################################################
#
# If this CIF has been generated from an entry in the Cambridge 
# Structural Database, then it will include bibliographic, chemical, 
# crystal, experimental, refinement or atomic coordinate data resulting 
# from the CCDC's data processing and validation procedures.
#
#######################################################################

data_BEPWEA
_symmetry_cell_setting           triclinic
_symmetry_space_group_name_H-M   'P -1'
_symmetry_Int_Tables_number      2
_space_group_name_Hall           '-P 1'
loop_
_symmetry_equiv_pos_site_id
_symmetry_equiv_pos_as_xyz
1 x,y,z
2 -x,-y,-z
_cell_length_a                   12.7430(4)
_cell_length_b                   13.9644(4)
_cell_length_c                   14.7971(4)
_cell_angle_alpha                84.9842(13)
_cell_angle_beta                 83.4508(12)
_cell_angle_gamma                64.4417(11)
_cell_volume                     2357.81
loop_
_atom_site_label
_atom_site_type_symbol
_atom_site_fract_x
_atom_site_fract_y
_atom_site_fract_z
Cu1 Cu 0.88551(3) 0.46759(3) -0.00741(2)
O1 O 0.97673(17) 0.33854(15) 0.06524(14)
O2 O 0.88630(17) 0.36682(15) -0.09025(13)
O3 O 0.72069(17) 0.40608(15) 0.06639(13)
O4 O 0.90187(17) 0.56162(15) 0.07461(14)
O5 O 0.77956(17) 0.59512(15) -0.06510(13)
C1 C 0.9568(3) 0.2613(2) 0.0455(2)
C2 C 0.8786(2) 0.2842(2) -0.03226(19)
Cu2 Cu 0.61429(3) 0.53352(3) 0.00890(2)
C3 C 0.7528(2) 0.3179(2) 0.01265(19)
C4 C 0.8298(3) 0.6584(2) 0.0627(2)
C5 C 0.7476(2) 0.6835(2) -0.01163(19)
O6 O 0.9925(2) 0.17425(17) 0.08819(16)
H1 H 0.9023 0.2201 -0.0665
O7 O 0.59821(17) 0.43953(15) -0.07331(13)
O8 O 0.61345(17) 0.63413(14) 0.09121(13)
O9 O 0.52371(17) 0.66266(15) -0.06432(14)
H2 H 0.7497 0.2586 0.0517
C6 C 0.6697(3) 0.3434(2) -0.0612(2)
O10 O 0.82559(18) 0.73135(16) 0.10856(14)
H3 H 0.7506 0.7428 -0.0507
C7 C 0.6216(3) 0.7167(2) 0.0334(2)
C8 C 0.5449(3) 0.7393(2) -0.0452(2)
O11 O 0.67352(18) 0.27050(15) -0.10745(14)
H4 H 0.5972 0.7809 0.0676
O12 O 0.5099(2) 0.82620(16) -0.08833(15)
O4A O 1.09813(17) 0.43838(15) -0.07461(14)
Cu1A Cu 1.11449(3) 0.53241(3) 0.00741(2)
O7A O 0.40179(17) 0.56047(15) 0.07331(13)
Cu2A Cu 0.38571(3) 0.46648(3) -0.00890(2)
C9 C 0.5121(3) 0.2795(2) 0.5406(2)
C10 C 0.5874(2) 0.3060(2) 0.46329(19)
H5 H 0.6134 0.2522 0.4174
O13 O 0.41279(17) 0.35474(15) 0.56385(14)
O14 O 0.54915(19) 0.19002(16) 0.57887(15)
O15 O 0.52559(16) 0.40664(14) 0.42213(13)
C11 C 0.6954(2) 0.3022(2) 0.50540(19)
H6 H 0.7420 0.2304 0.5299
C12 C 0.7662(2) 0.3331(2) 0.4272(2)
O16 O 0.66030(17) 0.37639(14) 0.57450(13)
O17 O 0.75044(17) 0.42973(15) 0.42273(14)
O18 O 0.83082(18) 0.26669(15) 0.37069(14)
C13 C 0.0317(3) 0.2678(2) 0.5423(2)
C14 C 0.0994(2) 0.3007(2) 0.46367(19)
H7 H 0.1325 0.2447 0.4194
O19 O -0.07166(17) 0.33753(15) 0.56545(13)
O20 O 0.07769(19) 0.18006(15) 0.58288(15)
O21 O 0.02955(17) 0.39627(15) 0.42028(13)
C15 C 0.2000(2) 0.3128(2) 0.50436(19)
H8 H 0.2530 0.2443 0.5306
C16 C 0.2647(2) 0.3486(2) 0.42643(19)
O22 O 0.15495(17) 0.38923(15) 0.57207(13)
O23 O 0.24056(17) 0.44746(15) 0.41982(13)
O24 O 0.33385(18) 0.28339(16) 0.37010(14)
Cu3 Cu 0.38380(3) 0.48771(3) 0.49256(2)
Cu4 Cu 0.10985(3) 0.52603(3) 0.50706(2)
O15A O 0.47441(16) 0.59336(14) 0.57787(13)
O16A O 0.33970(17) 0.62361(14) 0.42550(13)
O17A O 0.24956(17) 0.57027(15) 0.57727(14)
O19A O 0.07166(17) 0.66247(15) 0.43455(13)
O21A O -0.02955(17) 0.60373(15) 0.57972(13)
Cu3A Cu 0.61620(3) 0.51229(3) 0.50744(2)
Cu4A Cu -0.10985(3) 0.47397(3) 0.49294(2)
Cu4A_2 Cu 0.89015(3) 0.47397(3) 0.49294(2)
Li1 Li 0.1967(5) 0.0344(4) 0.5792(4)
O25 O 0.2746(3) -0.00523(19) 0.46020(18)
O26 O 0.1168(3) -0.0530(2) 0.6308(3)
H9 H 0.135(4) -0.1181(10) 0.632(4)
H10 H 0.0441(10) -0.031(3) 0.632(4)
Li2 Li 0.5307(5) 0.4275(4) 0.2928(3)
O27 O 0.4176(2) 0.39436(17) 0.24404(15)
H11 H 0.406(3) 0.3469(19) 0.2751(17)
H12 H 0.436(3) 0.374(2) 0.1915(9)
O28 O 0.67647(19) 0.33659(18) 0.22692(15)
H13 H 0.692(3) 0.363(3) 0.1779(13)
H14 H 0.733(2) 0.320(3) 0.2565(18)
O29 O 0.49689(18) 0.58008(16) 0.27958(14)
H15 H 0.454(2) 0.599(3) 0.3267(13)
H16 H 0.5607(14) 0.577(3) 0.291(2)
Li3 Li 0.4685(5) 0.6813(4) 0.1722(4)
O30 O 0.4410(3) 0.80991(19) 0.23133(18)
H17 H 0.426(4) 0.8705(15) 0.211(2)
H18 H 0.447(4) 0.811(3) 0.2860(9)
Li4 Li 0.0305(5) 0.4227(4) 0.2921(4)
O31 O -0.0817(2) 0.38464(17) 0.24674(15)
H19 H -0.066(3) 0.364(2) 0.1950(9)
H20 H -0.098(3) 0.342(2) 0.2805(17)
O32 O -0.00268(19) 0.57528(16) 0.27988(14)
H21 H -0.043(2) 0.593(3) 0.3291(13)
H22 H 0.0623(13) 0.570(3) 0.289(2)
O33 O 0.17696(19) 0.33752(17) 0.22635(15)
H23 H 0.193(3) 0.365(3) 0.1777(13)
H24 H 0.234(2) 0.320(3) 0.2562(18)
Li5 Li 0.7935(5) 0.3368(4) 0.6508(4)
O34 O 0.78466(19) 0.41983(16) 0.75098(14)
H25 H 0.801(3) 0.406(2) 0.8047(10)
H26 H 0.728(2) 0.4785(15) 0.753(2)
O35 O 0.8188(2) 0.20232(19) 0.72102(18)
H27 H 0.818(4) 0.149(2) 0.701(2)
H28 H 0.776(3) 0.218(3) 0.7682(17)
Li6 Li 0.9690(5) 0.6769(4) 0.1723(4)
Li7 Li 1.0109(14) 0.0330(11) 0.0803(11)
O36 O 0.8950(5) 0.0150(4) 0.1671(5)
O37 O 0.3247(2) 0.0068(2) 0.65935(18)
H29 H 0.3949(14) -0.003(3) 0.656(3)
H30 H 0.325(3) -0.037(3) 0.702(2)
Li8 Li 0.2865(4) 0.3434(4) 0.6518(4)
O38 O 0.28202(19) 0.42513(16) 0.75085(14)
H31 H 0.299(3) 0.404(2) 0.8033(10)
H32 H 0.225(2) 0.4830(15) 0.753(2)
O39 O 0.2945(3) 0.21246(19) 0.71432(17)
H33 H 0.309(4) 0.1500(13) 0.707(2)
H34 H 0.275(4) 0.220(3) 0.7695(9)
O40 O 0.9660(2) 0.80421(18) 0.22841(16)
H35 H 0.945(3) 0.811(3) 0.2837(8)
H36 H 0.926(3) 0.8609(17) 0.203(2)
O41 O 1.2399(6) -0.0613(5) 0.0385(6)
O42 O 0.6041(3) 0.9763(3) -0.1914(2)
H37 H 0.624(4) 0.958(4) -0.2450(13)
H38 H 0.666(2) 0.970(4) -0.170(3)
O43 O 0.3385(7) 1.0505(4) -0.0710(6)
O44 O 0.4319(3) 0.0683(2) 0.3656(2)
H39 H 0.386(3) 0.048(3) 0.397(3)
H40 H 0.399(3) 0.1348(8) 0.368(3)
O45 O 0.6616(2) 0.14372(19) 0.2021(2)
H41 H 0.604(2) 0.156(3) 0.176(3)
H42 H 0.667(3) 0.2003(17) 0.206(3)
O46 O 1.1570(2) 0.14666(18) 0.20711(19)
H43 H 1.161(3) 0.2038(17) 0.208(3)
H44 H 1.103(3) 0.157(3) 0.176(3)
O47 O 0.1238(2) 1.0006(2) 0.3366(2)
H45 H 0.184(2) 0.992(3) 0.359(3)
H46 H 0.117(3) 1.049(3) 0.297(2)
O48 O 0.7979(11) -0.0351(8) 0.1102(10)
O49? O 0.4039(14) 1.0144(7) -0.0071(6)
O50? O 0.9968(6) -0.0003(4) 0.0443(4)
O51? O 1.1836(5) -0.0528(4) 0.0981(4)
H47? H 0.252(3) -0.002(3) 0.5151(10)
H48? H 0.324(3) -0.0663(15) 0.450(2)
Li9? Li 0.5059(12) 0.9660(10) -0.0803(10)
loop_
_geom_bond_atom_site_label_1
_geom_bond_atom_site_label_2
_geom_bond_site_symmetry_1
_geom_bond_site_symmetry_2
Cu1 O1 1_555 1_555
O1 C1 1_555 1_555
O2 Cu1 1_555 1_555
O3 Cu1 1_555 1_555
O4 Cu1 1_555 1_555
O5 Cu1 1_555 1_555
C1 C2 1_555 1_555
C2 O2 1_555 1_555
Cu2 O3 1_555 1_555
C3 O3 1_555 1_555
C4 O4 1_555 1_555
C5 O5 1_555 1_555
O6 C1 1_555 1_555
H1 C2 1_555 1_555
O7 Cu2 1_555 1_555
O8 Cu2 1_555 1_555
O9 Cu2 1_555 1_555
H2 C3 1_555 1_555
C6 C3 1_555 1_555
O10 C4 1_555 1_555
H3 C5 1_555 1_555
C7 C5 1_555 1_555
C8 O9 1_555 1_555
O11 C6 1_555 1_555
H4 C7 1_555 1_555
O12 C8 1_555 1_555
C9 C10 1_555 1_555
C10 H5 1_555 1_555
O13 C9 1_555 1_555
O14 C9 1_555 1_555
O15 C10 1_555 1_555
C11 C10 1_555 1_555
H6 C11 1_555 1_555
C12 C11 1_555 1_555
O16 C11 1_555 1_555
O17 C12 1_555 1_555
O18 C12 1_555 1_555
C13 C14 1_555 1_555
C14 H7 1_555 1_555
O19 C13 1_555 1_555
O20 C13 1_555 1_555
O21 C14 1_555 1_555
C15 C14 1_555 1_555
H8 C15 1_555 1_555
C16 C15 1_555 1_555
O22 C15 1_555 1_555
O23 C16 1_555 1_555
O24 C16 1_555 1_555
Cu3 O13 1_555 1_555
Cu4 O21 1_555 1_555
O26 H9 1_555 1_555
H10 O26 1_555 1_555
O27 H11 1_555 1_555
H12 O27 1_555 1_555
O28 H13 1_555 1_555
H14 O28 1_555 1_555
O29 H15 1_555 1_555
H16 O29 1_555 1_555
O30 H17 1_555 1_555
H18 O30 1_555 1_555
O31 H19 1_555 1_555
H20 O31 1_555 1_555
O32 H21 1_555 1_555
H22 O32 1_555 1_555
O33 H23 1_555 1_555
H24 O33 1_555 1_555
O34 H25 1_555 1_555
H26 O34 1_555 1_555
O35 H27 1_555 1_555
H28 O35 1_555 1_555
O37 H29 1_555 1_555
H30 O37 1_555 1_555
O38 H31 1_555 1_555
H32 O38 1_555 1_555
O39 H33 1_555 1_555
H34 O39 1_555 1_555
O40 H35 1_555 1_555
H36 O40 1_555 1_555
O42 H37 1_555 1_555
H38 O42 1_555 1_555
O44 H39 1_555 1_555
H40 O44 1_555 1_555
O45 H41 1_555 1_555
H42 O45 1_555 1_555
O46 H43 1_555 1_555
H44 O46 1_555 1_555
O47 H45 1_555 1_555
H46 O47 1_555 1_555
O4A Cu1 1_555 1_555
Cu1A O4 1_555 1_555
O7A Cu2 1_555 1_555
Cu2A O7 1_555 1_555
O15A Cu3 1_555 1_555
O16A Cu3 1_555 1_555
O17A Cu3 1_555 1_555
O19A Cu4 1_555 1_555
O21A Cu4 1_555 1_555
Cu3A O15 1_555 1_555
Cu4A O19 1_555 1_555
Cu4A_2 O17 1_555 1_555
O5 Cu2 1_555 1_555
C2 C3 1_555 1_555
C4 C5 1_555 1_555
O7 C6 1_555 1_555
O8 C7 1_555 1_555
C7 C8 1_555 1_555
O15 Cu3 1_555 1_555
O16 Cu3A 1_555 1_555
O17 Cu3A 1_555 1_555
O21 Cu4A 1_555 1_555
O22 Cu4 1_555 1_555
O23 Cu3 1_555 1_555
O23 Cu4 1_555 1_555
Cu4 O17A 1_555 1_555
O4A Cu1A 1_555 1_555
O7A Cu2A 1_555 1_555
O15A Cu3A 1_555 1_555
O21A Cu4A 1_555 1_555

#END
