
#######################################################################
#
#                 Cambridge Crystallographic Data Centre
#                                CCDC 
#
#######################################################################
#
# If this CIF has been generated from an entry in the Cambridge 
# Structural Database, then it will include bibliographic, chemical, 
# crystal, experimental, refinement or atomic coordinate data resulting 
# from the CCDC's data processing and validation procedures.
#
#######################################################################

data_BEXQIF
_symmetry_cell_setting           orthorhombic
_symmetry_space_group_name_H-M   'P 21 21 21'
_symmetry_Int_Tables_number      19
_space_group_name_Hall           'P 2ac 2ab'
loop_
_symmetry_equiv_pos_site_id
_symmetry_equiv_pos_as_xyz
1 x,y,z
2 1/2-x,-y,1/2+z
3 -x,1/2+y,1/2-z
4 1/2+x,1/2-y,-z
_cell_length_a                   13.9104(4)
_cell_length_b                   17.0365(2)
_cell_length_c                   20.8150(5)
_cell_angle_alpha                90
_cell_angle_beta                 90
_cell_angle_gamma                90
_cell_volume                     4932.83
loop_
_atom_site_label
_atom_site_type_symbol
_atom_site_fract_x
_atom_site_fract_y
_atom_site_fract_z
Fe1 Fe -0.12352(2) 0.199745(17) 0.075632(16)
Fe2 Fe 0.03537(2) 0.199408(18) 0.416915(17)
N1 N -0.17311(15) 0.20676(12) 0.17315(10)
C1 C -0.19272(18) 0.21020(13) 0.22631(13)
N2 N -0.10558(17) 0.21424(12) 0.37401(11)
C2 C -0.15729(19) 0.21308(13) 0.33118(13)
N3 N -0.22353(17) 0.21207(14) 0.28611(11)
N4 N 0.01973(15) 0.18791(11) 0.11774(10)
C3 C 0.07102(17) 0.18347(12) 0.16069(13)
N5 N 0.09199(16) 0.19166(12) 0.32048(11)
C4 C 0.10862(18) 0.18641(13) 0.26648(13)
N6 N 0.13617(16) 0.17915(11) 0.20635(10)
N7 N -0.06698(15) 0.20053(12) -0.02246(10)
C5 C -0.00662(19) 0.23392(14) -0.04822(12)
N8 N 0.22537(15) 0.28599(10) -0.05257(10)
C6 C 0.1449(2) 0.27872(13) -0.06426(11)
N9 N 0.05494(16) 0.27385(13) -0.08183(12)
N10 N -0.09907(16) 0.32390(11) 0.07184(11)
C7 C -0.05685(19) 0.38031(13) 0.06110(12)
N11 N -0.01641(17) 0.57625(11) 0.07670(11)
C8 C -0.01478(18) 0.51070(13) 0.06415(12)
N12 N -0.00122(17) 0.43880(11) 0.04500(11)
N13 N 0.17723(18) 0.18470(12) 0.45800(11)
C9 C 0.2603(2) 0.18577(13) 0.45857(12)
N14 N 0.46581(16) 0.28496(11) 0.48826(10)
C10 C 0.40882(19) 0.23831(15) 0.47478(12)
N15 N 0.35395(17) 0.17986(11) 0.45737(11)
N16 N -0.06097(17) -0.17730(11) 0.08589(11)
C11 C -0.10489(19) -0.12076(13) 0.08995(13)
N17 N -0.13552(16) 0.07615(10) 0.07064(10)
C12 C -0.14274(18) 0.01017(13) 0.08163(13)
N18 N -0.16422(17) -0.06195(11) 0.09684(12)
N8C N -0.27463(15) 0.21401(10) 0.05257(10)
N11B N 0.01641(17) 0.07625(11) 0.42330(11)
N14C N -0.03419(16) 0.21504(11) 0.51174(10)
N16B N 0.06097(17) 0.32270(11) 0.41411(11)
Fe1C Fe 0.37648(2) 0.300255(17) -0.075632(16)
Fe2B Fe -0.03537(2) 0.699408(18) 0.083085(17)
Fe2C Fe 0.53537(2) 0.300592(18) 0.583085(17)
Fe2B_2 Fe -0.03537(2) -0.300592(18) 0.083085(17)
P1 P 0.26244(5) 0.59984(3) 0.65895(3)
C13 C 0.36700(18) 0.56453(12) 0.69972(11)
C14 C 0.36380(19) 0.49361(13) 0.73352(12)
H1 H 0.3074 0.4622 0.7325
C15 C 0.44247(18) 0.46955(14) 0.76821(13)
H2 H 0.4403 0.4213 0.7911
C16 C 0.52432(19) 0.51475(14) 0.77011(12)
H3 H 0.5781 0.4978 0.7945
C17 C 0.52866(19) 0.58538(14) 0.73630(13)
H4 H 0.5855 0.6162 0.7371
C18 C 0.44975(18) 0.61007(13) 0.70172(13)
H5 H 0.4520 0.6585 0.6791
C19 C 0.19261(19) 0.51863(13) 0.62926(11)
C20 C 0.0930(2) 0.51956(15) 0.63216(13)
H6 H 0.0606 0.5615 0.6531
C21 C 0.0407(2) 0.45905(16) 0.60441(14)
H7 H -0.0276 0.4595 0.6061
C22 C 0.0881(2) 0.39819(15) 0.57433(14)
H8 H 0.0521 0.3569 0.5553
C23 C 0.1874(2) 0.39640(15) 0.57143(14)
H9 H 0.2191 0.3539 0.5509
C24 C 0.2406(2) 0.45700(13) 0.59867(12)
H10 H 0.3088 0.4565 0.5965
C25 C 0.19382(18) 0.65865(13) 0.71369(12)
C26 C 0.1349(2) 0.71872(14) 0.69048(13)
H11 H 0.1292 0.7274 0.6456
C27 C 0.0848(2) 0.76563(16) 0.73360(15)
H12 H 0.0442 0.8063 0.7180
C28 C 0.0936(2) 0.75355(15) 0.79879(15)
H13 H 0.0599 0.7864 0.8280
C29 C 0.1512(2) 0.69377(15) 0.82168(13)
H14 H 0.1563 0.6850 0.8666
C30 C 0.2015(2) 0.64656(14) 0.77930(13)
H15 H 0.2415 0.6058 0.7953
C31 C 0.29512(19) 0.65758(13) 0.59070(11)
H16 H 0.3333 0.7028 0.6047
H17 H 0.2369 0.6761 0.5690
H18 H 0.3331 0.6256 0.5609
P2 P 0.35877(5) -0.06159(3) 0.15887(3)
C32 C 0.47502(18) -0.01648(12) 0.15713(12)
C33 C 0.50958(19) 0.02514(14) 0.20980(13)
H19 H 0.4723 0.0283 0.2480
C34 C 0.59798(19) 0.06197(14) 0.20674(13)
H20 H 0.6216 0.0903 0.2427
C35 C 0.65170(19) 0.05737(14) 0.15125(13)
H21 H 0.7122 0.0831 0.1491
C36 C 0.6186(2) 0.01566(15) 0.09857(13)
H22 H 0.6563 0.0128 0.0606
C37 C 0.5302(2) -0.02195(14) 0.10134(12)
H23 H 0.5074 -0.0512 0.0656
C38 C 0.27954(18) -0.01076(13) 0.10512(11)
C39 C 0.1921(2) -0.04626(15) 0.08870(13)
H24 H 0.1776 -0.0975 0.1039
C40 C 0.1272(2) -0.00690(17) 0.05057(14)
H25 H 0.0680 -0.0311 0.0394
C41 C 0.1480(2) 0.06801(17) 0.02844(13)
H26 H 0.1025 0.0956 0.0030
C42 C 0.2349(2) 0.10238(16) 0.04343(13)
H27 H 0.2496 0.1531 0.0273
C43 C 0.3010(2) 0.06333(14) 0.08192(13)
H28 H 0.3607 0.0874 0.0923
C44 C 0.31392(18) -0.05334(13) 0.23893(12)
C45 C 0.3237(2) -0.11356(14) 0.28402(13)
H29 H 0.3498 -0.1627 0.2713
C46 C 0.2961(2) -0.10223(15) 0.34607(14)
H30 H 0.3019 -0.1439 0.3761
C47 C 0.2594(2) -0.03035(14) 0.36595(13)
H31 H 0.2416 -0.0226 0.4095
C48 C 0.2491(2) 0.02973(15) 0.32207(12)
H32 H 0.2236 0.0788 0.3355
C49 C 0.27580(18) 0.01902(14) 0.25857(12)
H33 H 0.2683 0.0605 0.2285
C50 C 0.3692(2) -0.16201(13) 0.13351(13)
H34 H 0.4130 -0.1900 0.1624
H35 H 0.3946 -0.1638 0.0896
H36 H 0.3058 -0.1870 0.1346
loop_
_geom_bond_atom_site_label_1
_geom_bond_atom_site_label_2
_geom_bond_site_symmetry_1
_geom_bond_site_symmetry_2
Fe1 N1 1_555 1_555
Fe2 N2 1_555 1_555
N1 C1 1_555 1_555
C1 N3 1_555 1_555
N2 C2 1_555 1_555
C2 N3 1_555 1_555
N4 Fe1 1_555 1_555
C3 N4 1_555 1_555
N5 Fe2 1_555 1_555
C4 N5 1_555 1_555
N6 C3 1_555 1_555
N7 Fe1 1_555 1_555
C5 N7 1_555 1_555
N8 C6 1_555 1_555
C6 N9 1_555 1_555
N9 C5 1_555 1_555
N10 Fe1 1_555 1_555
C7 N10 1_555 1_555
N11 C8 1_555 1_555
C8 N12 1_555 1_555
N12 C7 1_555 1_555
N13 Fe2 1_555 1_555
C9 N13 1_555 1_555
N14 C10 1_555 1_555
C10 N15 1_555 1_555
N15 C9 1_555 1_555
N16 C11 1_555 1_555
C11 N18 1_555 1_555
N17 Fe1 1_555 1_555
C12 N17 1_555 1_555
N18 C12 1_555 1_555
P1 C13 1_555 1_555
C13 C14 1_555 1_555
C14 H1 1_555 1_555
C15 C14 1_555 1_555
H2 C15 1_555 1_555
C16 C15 1_555 1_555
H3 C16 1_555 1_555
C17 C16 1_555 1_555
H4 C17 1_555 1_555
C18 C13 1_555 1_555
H5 C18 1_555 1_555
C19 P1 1_555 1_555
C20 C19 1_555 1_555
H6 C20 1_555 1_555
C21 C20 1_555 1_555
H7 C21 1_555 1_555
C22 C21 1_555 1_555
H8 C22 1_555 1_555
C23 C22 1_555 1_555
H9 C23 1_555 1_555
C24 C19 1_555 1_555
H10 C24 1_555 1_555
C25 P1 1_555 1_555
C26 C25 1_555 1_555
H11 C26 1_555 1_555
C27 C26 1_555 1_555
H12 C27 1_555 1_555
C28 C27 1_555 1_555
H13 C28 1_555 1_555
C29 C28 1_555 1_555
H14 C29 1_555 1_555
C30 C25 1_555 1_555
H15 C30 1_555 1_555
C31 P1 1_555 1_555
H16 C31 1_555 1_555
H17 C31 1_555 1_555
H18 C31 1_555 1_555
P2 C32 1_555 1_555
C32 C33 1_555 1_555
C33 H19 1_555 1_555
C34 C33 1_555 1_555
H20 C34 1_555 1_555
C35 C34 1_555 1_555
H21 C35 1_555 1_555
C36 C35 1_555 1_555
H22 C36 1_555 1_555
C37 C32 1_555 1_555
H23 C37 1_555 1_555
C38 P2 1_555 1_555
C39 C38 1_555 1_555
H24 C39 1_555 1_555
C40 C39 1_555 1_555
H25 C40 1_555 1_555
C41 C40 1_555 1_555
H26 C41 1_555 1_555
C42 C41 1_555 1_555
H27 C42 1_555 1_555
C43 C38 1_555 1_555
H28 C43 1_555 1_555
C44 P2 1_555 1_555
C45 C44 1_555 1_555
H29 C45 1_555 1_555
C46 C45 1_555 1_555
H30 C46 1_555 1_555
C47 C46 1_555 1_555
H31 C47 1_555 1_555
C48 C47 1_555 1_555
H32 C48 1_555 1_555
C49 C44 1_555 1_555
H33 C49 1_555 1_555
C50 P2 1_555 1_555
H34 C50 1_555 1_555
H35 C50 1_555 1_555
H36 C50 1_555 1_555
N8C Fe1 1_555 1_555
N11B Fe2 1_555 1_555
N14C Fe2 1_555 1_555
N16B Fe2 1_555 1_555
Fe1C N8 1_555 1_555
Fe2B N11 1_555 1_555
Fe2C N14 1_555 1_555
Fe2B_2 N16 1_555 1_555
C4 N6 1_555 1_555
C17 C18 1_555 1_555
C23 C24 1_555 1_555
C29 C30 1_555 1_555
C36 C37 1_555 1_555
C42 C43 1_555 1_555
C48 C49 1_555 1_555

#END
