
#######################################################################
#
#                 Cambridge Crystallographic Data Centre
#                                CCDC 
#
#######################################################################
#
# If this CIF has been generated from an entry in the Cambridge 
# Structural Database, then it will include bibliographic, chemical, 
# crystal, experimental, refinement or atomic coordinate data resulting 
# from the CCDC's data processing and validation procedures.
#
#######################################################################

data_BEXRIG
_symmetry_cell_setting           orthorhombic
_symmetry_space_group_name_H-M   'P 21 21 21'
_symmetry_Int_Tables_number      19
_space_group_name_Hall           'P 2ac 2ab'
loop_
_symmetry_equiv_pos_site_id
_symmetry_equiv_pos_as_xyz
1 x,y,z
2 1/2-x,-y,1/2+z
3 1/2+x,1/2-y,-z
4 -x,1/2+y,1/2-z
_cell_length_a                   14.1192(1)
_cell_length_b                   16.6545(1)
_cell_length_c                   21.5833(2)
_cell_angle_alpha                90
_cell_angle_beta                 90
_cell_angle_gamma                90
_cell_volume                     5075.27
loop_
_atom_site_label
_atom_site_type_symbol
_atom_site_fract_x
_atom_site_fract_y
_atom_site_fract_z
Ni1 Ni -0.12588(2) 0.268984(19) 0.923332(15)
Ni2 Ni 0.03689(2) 0.270026(19) 0.598682(15)
N1 N -0.17172(16) 0.24661(12) 0.83444(11)
C1 C -0.18708(19) 0.24443(15) 0.78232(14)
N2 N -0.09124(17) 0.26021(14) 0.64386(11)
C2 C -0.1452(2) 0.25198(15) 0.68262(13)
N3 N -0.21241(18) 0.24196(18) 0.72372(11)
N4 N 0.00951(16) 0.28265(13) 0.88231(11)
C3 C 0.06061(19) 0.29096(14) 0.84102(14)
N5 N 0.09470(16) 0.28591(13) 0.68718(12)
C4 C 0.10436(19) 0.29129(14) 0.73988(14)
N6 N 0.12621(18) 0.30044(14) 0.79905(11)
N7 N -0.07035(17) 0.28747(13) 1.01218(11)
C5 C -0.0039(2) 0.27688(16) 1.04147(12)
N8 N 0.23122(16) 0.24300(12) 1.05110(10)
C6 C 0.1526(2) 0.25339(14) 1.06152(12)
N9 N 0.06498(17) 0.26501(18) 1.08064(12)
N10 N -0.14614(16) 0.39063(13) 0.91399(11)
C7 C -0.15452(19) 0.45899(16) 0.90747(13)
N11 N -0.06731(17) 0.64787(13) 0.89451(12)
C8 C -0.1140(2) 0.59187(15) 0.89712(14)
N12 N -0.17723(18) 0.53420(13) 0.89886(15)
N13 N 0.16972(17) 0.28185(13) 0.55690(10)
C9 C 0.2500(2) 0.29044(15) 0.55047(13)
N14 N 0.46217(17) 0.24945(12) 0.48260(10)
C10 C 0.4005(2) 0.27342(18) 0.51205(13)
N15 N 0.3407(2) 0.30698(18) 0.55055(15)
N16 N -0.02160(16) -0.10679(12) 0.91585(11)
C11 C -0.0476(2) -0.04901(15) 0.94128(13)
N17 N -0.10464(16) 0.14770(13) 0.93890(11)
C12 C -0.09026(19) 0.08249(16) 0.95352(13)
N18 N -0.07468(17) 0.01057(12) 0.97607(11)
N8B N -0.26878(16) 0.25700(12) 0.94890(10)
N11C N 0.06731(17) 0.14787(13) 0.60549(12)
N14B N -0.03783(17) 0.25055(12) 0.51740(10)
N16C N 0.02160(16) 0.39321(12) 0.58415(11)
Ni1B Ni 0.37412(2) 0.231016(19) 1.076668(15)
Ni2C Ni -0.03689(2) 0.770026(19) 0.901318(15)
Ni2B Ni 0.53689(2) 0.229974(19) 0.401318(15)
Ni2C_2 Ni -0.03689(2) -0.229974(19) 0.901318(15)
P1 P 0.12866(5) 0.46554(4) 0.31308(3)
C13 C 0.02092(19) 0.52338(14) 0.31523(13)
C14 C -0.0166(2) 0.55307(15) 0.26021(13)
H1 H 0.0163 0.5454 0.2223
C15 C -0.1024(2) 0.59390(16) 0.26095(14)
H2 H -0.1278 0.6152 0.2236
C16 C -0.1506(2) 0.60342(16) 0.31609(15)
H3 H -0.2096 0.6308 0.3166
C17 C -0.1135(2) 0.57343(17) 0.37048(14)
H4 H -0.1477 0.5799 0.4080
C18 C -0.0272(2) 0.53397(16) 0.37119(13)
H5 H -0.0013 0.5145 0.4089
C19 C 0.17596(19) 0.47699(15) 0.23672(13)
C20 C 0.2223(2) 0.54865(15) 0.22238(13)
H6 H 0.2358 0.5863 0.2542
C21 C 0.2484(2) 0.56501(16) 0.16217(14)
H7 H 0.2809 0.6134 0.1528
C22 C 0.2274(2) 0.51124(16) 0.11549(14)
H8 H 0.2437 0.5233 0.0738
C23 C 0.1826(2) 0.44005(17) 0.12962(14)
H9 H 0.1695 0.4027 0.0975
C24 C 0.1568(2) 0.42226(17) 0.18945(14)
H10 H 0.1259 0.3729 0.1986
C25 C 0.21252(19) 0.50182(16) 0.36873(13)
C26 C 0.2051(2) 0.57812(16) 0.39488(14)
H11 H 0.1524 0.6114 0.3854
C27 C 0.2748(2) 0.60520(18) 0.43473(14)
H12 H 0.2697 0.6570 0.4528
C28 C 0.3516(3) 0.5573(2) 0.44822(15)
H13 H 0.3997 0.5768 0.4751
C29 C 0.3593(2) 0.4811(2) 0.42302(15)
H14 H 0.4120 0.4482 0.4331
C30 C 0.2903(2) 0.45334(18) 0.38331(14)
H15 H 0.2955 0.4012 0.3658
C31 C 0.1017(2) 0.36189(16) 0.32800(14)
H16 H 0.0529 0.3440 0.2981
H17 H 0.1594 0.3296 0.3204
C32 C 0.0662(2) 0.34447(18) 0.39374(16)
H18 H 0.1135 0.3625 0.4239
H19 H 0.0558 0.2866 0.3986
H20 H 0.0065 0.3731 0.4008
P2 P 0.23062(5) 0.08082(4) 0.84678(3)
C33 C 0.2971(2) -0.00336(15) 0.87640(12)
C34 C 0.3922(2) 0.00426(17) 0.88889(14)
H21 H 0.4254 0.0511 0.8764
C35 C 0.4395(2) -0.05704(18) 0.91999(15)
H22 H 0.5055 -0.0527 0.9282
C36 C 0.3900(2) -0.12422(18) 0.93885(15)
H23 H 0.4218 -0.1653 0.9613
C37 C 0.2954(2) -0.13236(16) 0.92556(15)
H24 H 0.2627 -0.1796 0.9378
C38 C 0.2474(2) -0.07232(15) 0.89459(14)
H25 H 0.1818 -0.0777 0.8857
C39 C 0.29888(19) 0.14269(15) 0.79514(13)
C40 C 0.2837(2) 0.13859(18) 0.73170(14)
H26 H 0.2407 0.1003 0.7151
C41 C 0.3322(2) 0.19130(19) 0.69250(16)
H27 H 0.3215 0.1893 0.6491
C42 C 0.3952(2) 0.24595(17) 0.71655(16)
H28 H 0.4274 0.2820 0.6897
C43 C 0.4118(2) 0.24864(16) 0.77908(16)
H29 H 0.4563 0.2860 0.7952
C44 C 0.3642(2) 0.19746(16) 0.81901(15)
H30 H 0.3760 0.1996 0.8623
C45 C 0.1270(2) 0.04461(14) 0.80754(12)
C46 C 0.1348(2) -0.02110(15) 0.76757(13)
H31 H 0.1940 -0.0473 0.7625
C47 C 0.0565(2) -0.04792(17) 0.73540(14)
H32 H 0.0617 -0.0930 0.7086
C48 C -0.0286(2) -0.00968(16) 0.74206(14)
H33 H -0.0820 -0.0279 0.7192
C49 C -0.0380(2) 0.05577(16) 0.78201(14)
H34 H -0.0977 0.0814 0.7869
C50 C 0.0400(2) 0.08286(15) 0.81424(13)
H35 H 0.0343 0.1278 0.8411
C51 C 0.1978(2) 0.13988(15) 0.91347(12)
H36 H 0.2553 0.1644 0.9317
H37 H 0.1550 0.1838 0.9003
C52 C 0.1481(2) 0.08853(17) 0.96260(14)
H38 H 0.1040 0.0515 0.9423
H39 H 0.1131 0.1235 0.9911
H40 H 0.1954 0.0578 0.9858
loop_
_geom_bond_atom_site_label_1
_geom_bond_atom_site_label_2
_geom_bond_site_symmetry_1
_geom_bond_site_symmetry_2
Ni1 N1 1_555 1_555
Ni2 N2 1_555 1_555
N1 C1 1_555 1_555
C1 N3 1_555 1_555
N2 C2 1_555 1_555
C2 N3 1_555 1_555
N4 Ni1 1_555 1_555
C3 N4 1_555 1_555
N5 Ni2 1_555 1_555
C4 N5 1_555 1_555
N6 C3 1_555 1_555
N7 Ni1 1_555 1_555
C5 N7 1_555 1_555
N8 C6 1_555 1_555
C6 N9 1_555 1_555
N9 C5 1_555 1_555
N10 Ni1 1_555 1_555
C7 N10 1_555 1_555
N11 C8 1_555 1_555
C8 N12 1_555 1_555
N12 C7 1_555 1_555
N13 Ni2 1_555 1_555
C9 N13 1_555 1_555
N14 C10 1_555 1_555
C10 N15 1_555 1_555
N15 C9 1_555 1_555
N16 C11 1_555 1_555
C11 N18 1_555 1_555
N17 Ni1 1_555 1_555
C12 N17 1_555 1_555
N18 C12 1_555 1_555
P1 C13 1_555 1_555
C13 C14 1_555 1_555
C14 H1 1_555 1_555
C15 C14 1_555 1_555
H2 C15 1_555 1_555
C16 C15 1_555 1_555
H3 C16 1_555 1_555
C17 C16 1_555 1_555
H4 C17 1_555 1_555
C18 C13 1_555 1_555
H5 C18 1_555 1_555
C19 P1 1_555 1_555
C20 C19 1_555 1_555
H6 C20 1_555 1_555
C21 C20 1_555 1_555
H7 C21 1_555 1_555
C22 C21 1_555 1_555
H8 C22 1_555 1_555
C23 C22 1_555 1_555
H9 C23 1_555 1_555
C24 C19 1_555 1_555
H10 C24 1_555 1_555
C25 P1 1_555 1_555
C26 C25 1_555 1_555
H11 C26 1_555 1_555
C27 C26 1_555 1_555
H12 C27 1_555 1_555
C28 C27 1_555 1_555
H13 C28 1_555 1_555
C29 C28 1_555 1_555
H14 C29 1_555 1_555
C30 C25 1_555 1_555
H15 C30 1_555 1_555
C31 P1 1_555 1_555
H16 C31 1_555 1_555
H17 C31 1_555 1_555
C32 C31 1_555 1_555
H18 C32 1_555 1_555
H19 C32 1_555 1_555
H20 C32 1_555 1_555
P2 C33 1_555 1_555
C33 C34 1_555 1_555
C34 H21 1_555 1_555
C35 C34 1_555 1_555
H22 C35 1_555 1_555
C36 C35 1_555 1_555
H23 C36 1_555 1_555
C37 C36 1_555 1_555
H24 C37 1_555 1_555
C38 C33 1_555 1_555
H25 C38 1_555 1_555
C39 P2 1_555 1_555
C40 C39 1_555 1_555
H26 C40 1_555 1_555
C41 C40 1_555 1_555
H27 C41 1_555 1_555
C42 C41 1_555 1_555
H28 C42 1_555 1_555
C43 C42 1_555 1_555
H29 C43 1_555 1_555
C44 C39 1_555 1_555
H30 C44 1_555 1_555
C45 P2 1_555 1_555
C46 C45 1_555 1_555
H31 C46 1_555 1_555
C47 C46 1_555 1_555
H32 C47 1_555 1_555
C48 C47 1_555 1_555
H33 C48 1_555 1_555
C49 C48 1_555 1_555
H34 C49 1_555 1_555
C50 C45 1_555 1_555
H35 C50 1_555 1_555
C51 P2 1_555 1_555
H36 C51 1_555 1_555
H37 C51 1_555 1_555
C52 C51 1_555 1_555
H38 C52 1_555 1_555
H39 C52 1_555 1_555
H40 C52 1_555 1_555
N8B Ni1 1_555 1_555
N11C Ni2 1_555 1_555
N14B Ni2 1_555 1_555
N16C Ni2 1_555 1_555
Ni1B N8 1_555 1_555
Ni2C N11 1_555 1_555
Ni2B N14 1_555 1_555
Ni2C_2 N16 1_555 1_555
C4 N6 1_555 1_555
C17 C18 1_555 1_555
C23 C24 1_555 1_555
C29 C30 1_555 1_555
C37 C38 1_555 1_555
C43 C44 1_555 1_555
C49 C50 1_555 1_555

#END
