
#######################################################################
#
#                 Cambridge Crystallographic Data Centre
#                                CCDC 
#
#######################################################################
#
# If this CIF has been generated from an entry in the Cambridge 
# Structural Database, then it will include bibliographic, chemical, 
# crystal, experimental, refinement or atomic coordinate data resulting 
# from the CCDC's data processing and validation procedures.
#
#######################################################################

data_BEXREC
_symmetry_cell_setting           orthorhombic
_symmetry_space_group_name_H-M   'P 21 21 21'
_symmetry_Int_Tables_number      19
_space_group_name_Hall           'P 2ac 2ab'
loop_
_symmetry_equiv_pos_site_id
_symmetry_equiv_pos_as_xyz
1 x,y,z
2 1/2-x,-y,1/2+z
3 1/2+x,1/2-y,-z
4 -x,1/2+y,1/2-z
_cell_length_a                   14.2228(2)
_cell_length_b                   16.7050(1)
_cell_length_c                   21.6020(3)
_cell_angle_alpha                90
_cell_angle_beta                 90
_cell_angle_gamma                90
_cell_volume                     5132.46
loop_
_atom_site_label
_atom_site_type_symbol
_atom_site_fract_x
_atom_site_fract_y
_atom_site_fract_z
Co1 Co -0.12924(2) 0.26820(2) 0.925217(15)
Co2 Co 0.03565(2) 0.26935(2) 0.598475(15)
N1 N -0.17347(15) 0.24429(13) 0.83416(11)
C1 C -0.18872(18) 0.24251(16) 0.78211(13)
N2 N -0.09495(17) 0.25904(14) 0.64324(11)
C2 C -0.14821(19) 0.25117(15) 0.68230(13)
N3 N -0.21429(18) 0.24062(19) 0.72374(11)
N4 N 0.00883(16) 0.28340(13) 0.88437(11)
C3 C 0.05906(19) 0.29146(14) 0.84271(13)
N5 N 0.09219(16) 0.28553(13) 0.68925(11)
C4 C 0.10233(18) 0.29083(15) 0.74187(14)
N6 N 0.12444(17) 0.30035(14) 0.80063(11)
N7 N -0.07557(18) 0.28746(14) 1.01630(11)
C5 C -0.0080(2) 0.27891(16) 1.04450(12)
N8 N 0.22527(16) 0.24495(12) 1.05076(10)
C6 C 0.1477(2) 0.25642(16) 1.06257(12)
N9 N 0.06192(17) 0.2698(2) 1.08267(11)
N10 N -0.15057(16) 0.39110(13) 0.91565(11)
C7 C -0.15833(19) 0.45925(17) 0.90907(13)
N11 N -0.06813(17) 0.64602(13) 0.89535(12)
C8 C -0.1164(2) 0.59080(16) 0.89800(14)
N12 N -0.17976(18) 0.53411(14) 0.89998(15)
N13 N 0.17091(17) 0.28285(14) 0.55724(11)
C9 C 0.2506(2) 0.29144(16) 0.55193(14)
N14 N 0.46090(16) 0.25128(13) 0.48445(10)
C10 C 0.39991(19) 0.27500(18) 0.51427(13)
N15 N 0.34108(19) 0.30786(18) 0.55262(15)
N16 N -0.01966(17) -0.10573(13) 0.91673(11)
C11 C -0.04615(19) -0.04933(15) 0.94268(13)
N17 N -0.10629(16) 0.14592(13) 0.94157(11)
C12 C -0.09053(19) 0.08088(17) 0.95613(13)
N18 N -0.07383(17) 0.00918(13) 0.97836(11)
N8B N -0.27473(16) 0.25505(12) 0.94924(10)
N11C N 0.06813(17) 0.14602(13) 0.60465(12)
N14B N -0.03910(16) 0.24872(13) 0.51555(10)
N16C N 0.01966(17) 0.39427(13) 0.58327(11)
Co1B Co 0.37076(2) 0.23180(2) 1.074783(15)
Co2C Co -0.03565(2) 0.76935(2) 0.901525(15)
Co2B Co 0.53565(2) 0.23065(2) 0.401525(15)
Co2C_2 Co -0.03565(2) -0.23065(2) 0.901525(15)
P1 P 0.12786(5) 0.46670(4) 0.31264(3)
C13 C 0.02129(19) 0.52465(15) 0.31480(13)
C14 C -0.01619(19) 0.55443(15) 0.26014(13)
H1 H 0.0163 0.5468 0.2222
C15 C -0.1012(2) 0.59531(16) 0.26091(14)
H2 H -0.1266 0.6163 0.2236
C16 C -0.1487(2) 0.60531(17) 0.31593(15)
H3 H -0.2071 0.6328 0.3165
C17 C -0.1114(2) 0.57533(17) 0.37035(14)
H4 H -0.1448 0.5823 0.4081
C18 C -0.0261(2) 0.53523(16) 0.37068(13)
H5 H -0.0004 0.5154 0.4083
C19 C 0.17566(19) 0.47860(15) 0.23668(12)
C20 C 0.2238(2) 0.54912(16) 0.22306(13)
H6 H 0.2379 0.5861 0.2552
C21 C 0.2510(2) 0.56539(17) 0.16312(13)
H7 H 0.2841 0.6134 0.1541
C22 C 0.2302(2) 0.51200(17) 0.11611(14)
H8 H 0.2476 0.5239 0.0747
C23 C 0.1843(2) 0.44179(17) 0.12946(14)
H9 H 0.1714 0.4047 0.0972
C24 C 0.1567(2) 0.42448(17) 0.18913(14)
H10 H 0.1249 0.3758 0.1979
C25 C 0.21113(19) 0.50188(16) 0.36838(12)
C26 C 0.2045(2) 0.57781(17) 0.39450(14)
H11 H 0.1525 0.6113 0.3849
C27 C 0.2738(2) 0.60437(19) 0.43457(14)
H12 H 0.2690 0.6558 0.4530
C28 C 0.3498(2) 0.5563(2) 0.44770(15)
H13 H 0.3978 0.5753 0.4745
C29 C 0.3570(2) 0.4803(2) 0.42231(15)
H14 H 0.4094 0.4473 0.4319
C30 C 0.2877(2) 0.45304(19) 0.38304(15)
H15 H 0.2919 0.4008 0.3659
C31 C 0.1003(2) 0.36357(16) 0.32688(14)
H16 H 0.0514 0.3465 0.2970
H17 H 0.1572 0.3310 0.3189
C32 C 0.0653(2) 0.34559(18) 0.39271(15)
H18 H 0.1115 0.3651 0.4229
H19 H 0.0572 0.2877 0.3977
H20 H 0.0050 0.3725 0.3995
P2 P 0.22949(5) 0.08071(4) 0.84630(3)
C33 C 0.2958(2) -0.00283(16) 0.87569(13)
C34 C 0.3911(2) 0.00496(17) 0.88777(14)
H21 H 0.4240 0.0516 0.8750
C35 C 0.4382(2) -0.05580(19) 0.91860(15)
H22 H 0.5036 -0.0511 0.9267
C36 C 0.3898(2) -0.12314(19) 0.93751(15)
H23 H 0.4221 -0.1640 0.9595
C37 C 0.2952(2) -0.13204(17) 0.92490(15)
H24 H 0.2630 -0.1792 0.9373
C38 C 0.2477(2) -0.07189(16) 0.89418(13)
H25 H 0.1825 -0.0774 0.8856
C39 C 0.29678(19) 0.14195(15) 0.79406(13)
C40 C 0.2828(2) 0.13657(18) 0.73097(14)
H26 H 0.2409 0.0977 0.7147
C41 C 0.3303(2) 0.1881(2) 0.69137(16)
H27 H 0.3202 0.1848 0.6480
C42 C 0.3922(2) 0.24439(18) 0.71478(15)
H28 H 0.4239 0.2800 0.6876
C43 C 0.4077(2) 0.24869(17) 0.77746(16)
H29 H 0.4511 0.2867 0.7935
C44 C 0.3603(2) 0.19761(17) 0.81761(15)
H30 H 0.3712 0.2007 0.8609
C45 C 0.12648(19) 0.04423(14) 0.80730(12)
C46 C 0.1345(2) -0.02129(16) 0.76731(13)
H31 H 0.1932 -0.0476 0.7625
C47 C 0.0570(2) -0.04741(17) 0.73503(14)
H32 H 0.0624 -0.0920 0.7080
C48 C -0.0281(2) -0.00964(17) 0.74157(13)
H33 H -0.0810 -0.0278 0.7187
C49 C -0.0373(2) 0.05497(16) 0.78139(14)
H34 H -0.0965 0.0804 0.7864
C50 C 0.0404(2) 0.08233(15) 0.81389(13)
H35 H 0.0347 0.1272 0.8407
C51 C 0.19691(19) 0.13969(15) 0.91263(12)
H36 H 0.2541 0.1640 0.9309
H37 H 0.1549 0.1837 0.8993
C52 C 0.1470(2) 0.08947(17) 0.96182(14)
H38 H 0.1011 0.0541 0.9418
H39 H 0.1145 0.1249 0.9909
H40 H 0.1933 0.0572 0.9842
loop_
_geom_bond_atom_site_label_1
_geom_bond_atom_site_label_2
_geom_bond_site_symmetry_1
_geom_bond_site_symmetry_2
Co1 N1 1_555 1_555
Co2 N2 1_555 1_555
N1 C1 1_555 1_555
C1 N3 1_555 1_555
N2 C2 1_555 1_555
C2 N3 1_555 1_555
N4 Co1 1_555 1_555
C3 N4 1_555 1_555
N5 Co2 1_555 1_555
C4 N5 1_555 1_555
N6 C3 1_555 1_555
N7 Co1 1_555 1_555
C5 N7 1_555 1_555
N8 C6 1_555 1_555
C6 N9 1_555 1_555
N9 C5 1_555 1_555
N10 Co1 1_555 1_555
C7 N10 1_555 1_555
N11 C8 1_555 1_555
C8 N12 1_555 1_555
N12 C7 1_555 1_555
N13 Co2 1_555 1_555
C9 N13 1_555 1_555
N14 C10 1_555 1_555
C10 N15 1_555 1_555
N15 C9 1_555 1_555
N16 C11 1_555 1_555
C11 N18 1_555 1_555
N17 Co1 1_555 1_555
C12 N17 1_555 1_555
N18 C12 1_555 1_555
P1 C13 1_555 1_555
C13 C14 1_555 1_555
C14 H1 1_555 1_555
C15 C14 1_555 1_555
H2 C15 1_555 1_555
C16 C15 1_555 1_555
H3 C16 1_555 1_555
C17 C16 1_555 1_555
H4 C17 1_555 1_555
C18 C13 1_555 1_555
H5 C18 1_555 1_555
C19 P1 1_555 1_555
C20 C19 1_555 1_555
H6 C20 1_555 1_555
C21 C20 1_555 1_555
H7 C21 1_555 1_555
C22 C21 1_555 1_555
H8 C22 1_555 1_555
C23 C22 1_555 1_555
H9 C23 1_555 1_555
C24 C19 1_555 1_555
H10 C24 1_555 1_555
C25 P1 1_555 1_555
C26 C25 1_555 1_555
H11 C26 1_555 1_555
C27 C26 1_555 1_555
H12 C27 1_555 1_555
C28 C27 1_555 1_555
H13 C28 1_555 1_555
C29 C28 1_555 1_555
H14 C29 1_555 1_555
C30 C25 1_555 1_555
H15 C30 1_555 1_555
C31 P1 1_555 1_555
H16 C31 1_555 1_555
H17 C31 1_555 1_555
C32 C31 1_555 1_555
H18 C32 1_555 1_555
H19 C32 1_555 1_555
H20 C32 1_555 1_555
P2 C33 1_555 1_555
C33 C34 1_555 1_555
C34 H21 1_555 1_555
C35 C34 1_555 1_555
H22 C35 1_555 1_555
C36 C35 1_555 1_555
H23 C36 1_555 1_555
C37 C36 1_555 1_555
H24 C37 1_555 1_555
C38 C33 1_555 1_555
H25 C38 1_555 1_555
C39 P2 1_555 1_555
C40 C39 1_555 1_555
H26 C40 1_555 1_555
C41 C40 1_555 1_555
H27 C41 1_555 1_555
C42 C41 1_555 1_555
H28 C42 1_555 1_555
C43 C42 1_555 1_555
H29 C43 1_555 1_555
C44 C39 1_555 1_555
H30 C44 1_555 1_555
C45 P2 1_555 1_555
C46 C45 1_555 1_555
H31 C46 1_555 1_555
C47 C46 1_555 1_555
H32 C47 1_555 1_555
C48 C47 1_555 1_555
H33 C48 1_555 1_555
C49 C48 1_555 1_555
H34 C49 1_555 1_555
C50 C45 1_555 1_555
H35 C50 1_555 1_555
C51 P2 1_555 1_555
H36 C51 1_555 1_555
H37 C51 1_555 1_555
C52 C51 1_555 1_555
H38 C52 1_555 1_555
H39 C52 1_555 1_555
H40 C52 1_555 1_555
N8B Co1 1_555 1_555
N11C Co2 1_555 1_555
N14B Co2 1_555 1_555
N16C Co2 1_555 1_555
Co1B N8 1_555 1_555
Co2C N11 1_555 1_555
Co2B N14 1_555 1_555
Co2C_2 N16 1_555 1_555
C4 N6 1_555 1_555
C17 C18 1_555 1_555
C23 C24 1_555 1_555
C29 C30 1_555 1_555
C37 C38 1_555 1_555
C43 C44 1_555 1_555
C49 C50 1_555 1_555

#END
