
#######################################################################
#
#                 Cambridge Crystallographic Data Centre
#                                CCDC 
#
#######################################################################
#
# If this CIF has been generated from an entry in the Cambridge 
# Structural Database, then it will include bibliographic, chemical, 
# crystal, experimental, refinement or atomic coordinate data resulting 
# from the CCDC's data processing and validation procedures.
#
#######################################################################

data_BEYKEX
_symmetry_cell_setting           monoclinic
_symmetry_space_group_name_H-M   'P 21/c'
_symmetry_Int_Tables_number      14
_space_group_name_Hall           '-P 2ybc'
loop_
_symmetry_equiv_pos_site_id
_symmetry_equiv_pos_as_xyz
1 x,y,z
2 -x,1/2+y,1/2-z
3 -x,-y,-z
4 x,1/2-y,1/2+z
_cell_length_a                   11.4801(5)
_cell_length_b                   21.0566(14)
_cell_length_c                   14.7227(10)
_cell_angle_alpha                90
_cell_angle_beta                 110.471(4)
_cell_angle_gamma                90
_cell_volume                     3334.2
loop_
_atom_site_label
_atom_site_type_symbol
_atom_site_fract_x
_atom_site_fract_y
_atom_site_fract_z
U1 U 0.10649(2) 0.471199(12) 0.87469(2)
U2 U 0.39099(2) 0.245483(12) 0.95595(2)
S1 S 0.15639(17) 0.17825(9) 1.05570(14)
S2 S -0.38692(17) 0.32739(10) 0.67792(14)
O1 O -0.0569(4) 0.4714(2) 0.8182(4)
O2 O 0.2679(4) 0.4660(2) 0.9371(4)
O3 O 0.3798(5) 0.1676(3) 0.9112(4)
O4 O 0.4001(5) 0.3229(2) 1.0030(4)
O5 O 0.0742(5) 0.4233(2) 1.0082(4)
O6 O -0.1137(5) 0.4425(2) 1.0182(4)
O7 O -0.4061(5) 0.2576(2) 0.9604(4)
O8 O -0.3430(6) 0.1650(3) 0.9189(6)
O9 O 0.2559(4) 0.2168(3) 1.0437(4)
O10 O 0.1227(5) 0.1248(3) 0.9912(4)
O11 O 0.1856(5) 0.1609(2) 1.1569(4)
O12 O 0.1040(5) 0.3602(2) 0.8396(4)
O13 O 0.1877(4) 0.2642(3) 0.8498(4)
O14 O -0.0731(5) 0.0734(3) 0.7119(4)
O15 O -0.2781(5) 0.0870(3) 0.6580(4)
O16 O -0.4863(5) 0.2872(3) 0.6152(4)
O17 O -0.4092(5) 0.3419(3) 0.7668(4)
O18 O -0.3655(5) 0.3831(3) 0.6295(5)
O19 O 0.1404(6) 0.4573(3) 0.7223(4)
H1 H 0.1296 0.4224 0.6781
H2 H 0.1280 0.4907 0.6740
O20 O 0.3931(5) 0.2859(4) 0.8010(4)
H3 H 0.3116 0.2923 0.7600
H4 H 0.4442 0.3090 0.7917
C1 C -0.0304(7) 0.4054(3) 1.0121(5)
C2 C -0.3237(6) 0.2193(4) 0.9473(5)
C3 C -0.0542(6) 0.3361(3) 1.0076(5)
C4 C -0.1735(7) 0.3117(3) 0.9846(5)
H5 H -0.2406 0.3392 0.9729
C5 C -0.1935(6) 0.2461(3) 0.9787(5)
C6 C -0.0936(7) 0.2049(3) 0.9977(6)
H6 H -0.1067 0.1612 0.9924
C7 C 0.0275(7) 0.2296(4) 1.0251(5)
C8 C 0.0465(7) 0.2949(4) 1.0286(5)
H7 H 0.1267 0.3110 1.0450
C9 C 0.0964(6) 0.3017(3) 0.8250(5)
C10 C -0.1702(8) 0.1081(4) 0.6964(6)
C11 C -0.0299(6) 0.2719(3) 0.7777(5)
C12 C -0.0386(7) 0.2061(3) 0.7601(5)
H8 H 0.0331 0.1815 0.7761
C13 C -0.1529(6) 0.1784(3) 0.7193(5)
C14 C -0.2603(6) 0.2156(3) 0.6941(5)
H9 H -0.3378 0.1965 0.6667
C15 C -0.2525(6) 0.2806(4) 0.7093(5)
C16 C -0.1350(7) 0.3094(4) 0.7514(5)
H10 H -0.1285 0.3530 0.7614
U1A U -0.10649(2) -0.028801(12) 0.62531(2)
U1B U -0.10649(2) 0.528801(12) 1.12531(2)
U2_2 U -0.60901(2) 0.245483(12) 0.95595(2)
U2C U -0.60901(2) 0.254517(12) 0.45595(2)
O6B O 0.1137(5) 0.5575(2) 0.9818(4)
O7_2 O 0.5939(5) 0.2576(2) 0.9604(4)
O14A O 0.0731(5) 0.5734(3) 0.7881(4)
O16C O 0.5137(5) 0.2128(3) 1.1152(4)
O21 O 0.1674(6) 0.0650(3) 0.8373(6)
H11 H 0.1796 0.0916 0.8820
H12 H 0.0849 0.0525 0.8102
O22 O -0.4214(9) 0.0815(5) 0.4634(7)
H13 H -0.4693 0.1080 0.4868
H14 H -0.3914 0.0543 0.5086
O23 O -0.2159(8) 0.4557(4) 0.5448(6)
H15 H -0.2610 0.4285 0.5666
H16 H -0.1697 0.4746 0.6032
O24 O 0.0964(6) 0.5444(3) 0.5855(5)
N1 N -0.4997(11) 0.0731(6) 0.8182(9)
H17 H -0.4794 0.1026 0.8568
N2 N -0.5672(8) 0.0009(4) 0.6685(7)
H18 H -0.5827 -0.0306 0.6303
C17 C -0.6009(17) 0.0350(8) 0.8104(15)
H19 H -0.6645 0.0614 0.8207
H20 H -0.5754 0.0040 0.8623
C18 C -0.6597(10) -0.0006(6) 0.7141(10)
H21 H -0.6792 -0.0440 0.7255
H22 H -0.7354 0.0204 0.6737
C19 C -0.3998(13) 0.0307(6) 0.8177(9)
H23 H -0.3727 0.0053 0.8764
H24 H -0.3294 0.0552 0.8152
C20 C -0.4467(14) -0.0112(9) 0.7315(11)
H25 H -0.3908 -0.0077 0.6953
H26 H -0.4431 -0.0548 0.7538
C21 C -0.5400(15) 0.1132(6) 0.7236(9)
H27 H -0.6141 0.1375 0.7181
H28 H -0.4745 0.1428 0.7253
C22 C -0.5659(16) 0.0698(7) 0.6387(10)
H29 H -0.5028 0.0756 0.6097
H30 H -0.6458 0.0805 0.5905
loop_
_geom_bond_atom_site_label_1
_geom_bond_atom_site_label_2
_geom_bond_site_symmetry_1
_geom_bond_site_symmetry_2
U1 O1 1_555 1_555
U2 O3 1_555 1_555
S1 O9 1_555 1_555
S2 O16 1_555 1_555
O2 U1 1_555 1_555
O4 U2 1_555 1_555
O5 U1 1_555 1_555
O6 C1 1_555 1_555
O7 C2 1_555 1_555
O8 C2 1_555 1_555
O9 U2 1_555 1_555
O10 S1 1_555 1_555
O11 S1 1_555 1_555
O12 U1 1_555 1_555
O13 U2 1_555 1_555
O14 C10 1_555 1_555
O15 C10 1_555 1_555
O16 U2C 1_555 1_555
O17 S2 1_555 1_555
O18 S2 1_555 1_555
O19 U1 1_555 1_555
H1 O19 1_555 1_555
H2 O19 1_555 1_555
O20 U2 1_555 1_555
H3 O20 1_555 1_555
H4 O20 1_555 1_555
C1 O5 1_555 1_555
C2 C5 1_555 1_555
C3 C1 1_555 1_555
C4 C3 1_555 1_555
H5 C4 1_555 1_555
C5 C4 1_555 1_555
C6 C5 1_555 1_555
H6 C6 1_555 1_555
C7 S1 1_555 1_555
C8 C3 1_555 1_555
H7 C8 1_555 1_555
C9 O12 1_555 1_555
C10 C13 1_555 1_555
C11 C9 1_555 1_555
C12 C11 1_555 1_555
H8 C12 1_555 1_555
C13 C12 1_555 1_555
C14 C13 1_555 1_555
H9 C14 1_555 1_555
C15 S2 1_555 1_555
C16 C11 1_555 1_555
H10 C16 1_555 1_555
O21 H11 1_555 1_555
H12 O21 1_555 1_555
O22 H13 1_555 1_555
H14 O22 1_555 1_555
O23 H15 1_555 1_555
H16 O23 1_555 1_555
N1 H17 1_555 1_555
N2 H18 1_555 1_555
C17 N1 1_555 1_555
H19 C17 1_555 1_555
H20 C17 1_555 1_555
C18 N2 1_555 1_555
H21 C18 1_555 1_555
H22 C18 1_555 1_555
C19 N1 1_555 1_555
H23 C19 1_555 1_555
H24 C19 1_555 1_555
C20 N2 1_555 1_555
H25 C20 1_555 1_555
H26 C20 1_555 1_555
C21 N1 1_555 1_555
H27 C21 1_555 1_555
H28 C21 1_555 1_555
C22 N2 1_555 1_555
H29 C22 1_555 1_555
H30 C22 1_555 1_555
U1A O14 1_555 1_555
U1B O6 1_555 1_555
U2_2 O7 1_555 1_555
O6B U1 1_555 1_555
O7_2 U2 1_555 1_555
O14A U1 1_555 1_555
O16C U2 1_555 1_555
O13 C9 1_555 1_555
C6 C7 1_555 1_555
C7 C8 1_555 1_555
C14 C15 1_555 1_555
C15 C16 1_555 1_555
C17 C18 1_555 1_555
C19 C20 1_555 1_555
C21 C22 1_555 1_555

#END
