
#######################################################################
#
#                 Cambridge Crystallographic Data Centre
#                                CCDC 
#
#######################################################################
#
# If this CIF has been generated from an entry in the Cambridge 
# Structural Database, then it will include bibliographic, chemical, 
# crystal, experimental, refinement or atomic coordinate data resulting 
# from the CCDC's data processing and validation procedures.
#
#######################################################################

data_BEZDUH
_symmetry_cell_setting           triclinic
_symmetry_space_group_name_H-M   'P -1'
_symmetry_Int_Tables_number      2
_space_group_name_Hall           '-P 1'
loop_
_symmetry_equiv_pos_site_id
_symmetry_equiv_pos_as_xyz
1 x,y,z
2 -x,-y,-z
_cell_length_a                   7.5739(3)
_cell_length_b                   8.5028(4)
_cell_length_c                   15.4945(7)
_cell_angle_alpha                99.5680(10)
_cell_angle_beta                 103.0090(10)
_cell_angle_gamma                90.6710(10)
_cell_volume                     957.447
loop_
_atom_site_label
_atom_site_type_symbol
_atom_site_fract_x
_atom_site_fract_y
_atom_site_fract_z
Ag1 Ag 0.34830(3) 0.51598(2) 0.214251(14)
Ag2 Ag 0.56246(3) 0.63745(3) 0.093164(16)
Ag3 Ag 0.07020(3) 0.35245(3) 0.289768(15)
Mn1 Mn 0.0000 0.0000 0.0000
Mn2 Mn 0.5000 1.0000 0.5000
N3 N 0.1962(3) 0.2028(3) 0.07170(15)
N4 N 0.2206(3) 0.8358(3) 0.02778(14)
N5 N 0.0805(3) 0.0265(2) -0.13325(13)
N6 N 0.1794(3) 0.0409(3) -0.29439(13)
N7 N 0.4514(4) -0.0677(4) -0.2401(2)
N8 N 0.4428(3) 0.8027(3) 0.38128(14)
N9 N 0.3593(3) 0.1676(3) 0.41271(14)
O1 O 0.7568(2) 1.0524(2) 0.46922(13)
C3 C 0.2385(4) -0.0218(3) -0.14695(16)
H2 H 0.3183 -0.0611 -0.1015
C4 C 0.2898(4) -0.0157(3) -0.22792(17)
C5 C 0.0217(4) 0.0910(4) -0.27917(17)
H3 H -0.0578 0.1318 -0.3241
C6 C -0.0290(3) 0.0851(3) -0.20013(16)
H4 H -0.1406 0.1222 -0.1927
C7 C 0.3428(4) 0.7613(3) 0.04567(17)
C8 C 0.7692(4) 0.5241(4) 0.1638(2)
C9 C 0.4125(4) 0.7028(3) 0.32088(17)
C10 C 0.2596(4) 0.3161(3) 0.11787(18)
C11 C 0.2583(4) 0.2368(3) 0.37017(17)
N10 N 0.8726(4) 0.4627(4) 0.2088(2)
H5 H 0.480(6) -0.067(5) -0.290(3)
H6 H 0.527(6) -0.096(5) -0.199(3)
H7 H 0.777(5) 1.016(4) 0.425(3)
H8 H 0.802(5) 1.135(5) 0.491(3)
Ag1A Ag -0.34830(3) -0.51598(2) -0.214251(14)
Ag2A Ag -0.56246(3) -0.63745(3) -0.093164(16)
Ag3A Ag -0.07020(3) -0.35245(3) -0.289768(15)
N3A N -0.1962(3) -0.2028(3) -0.07170(15)
N4A N -0.2206(3) -0.8358(3) -0.02778(14)
N5A N -0.0805(3) -0.0265(2) 0.13325(13)
N6A N -0.1794(3) -0.0409(3) 0.29439(13)
N7A N -0.4514(4) 0.0677(4) 0.2401(2)
N8A N -0.4428(3) -0.8027(3) -0.38128(14)
N9A N -0.3593(3) -0.1676(3) -0.41271(14)
C3A C -0.2385(4) 0.0218(3) 0.14695(16)
H2A H -0.3183 0.0611 0.1015
C4A C -0.2898(4) 0.0157(3) 0.22792(17)
C5A C -0.0217(4) -0.0910(4) 0.27917(17)
H3A H 0.0578 -0.1318 0.3241
C6A C 0.0290(3) -0.0851(3) 0.20013(16)
H4A H 0.1406 -0.1222 0.1927
C7A C -0.3428(4) -0.7613(3) -0.04567(17)
C8A C -0.7692(4) -0.5241(4) -0.1638(2)
C9A C -0.4125(4) -0.7028(3) -0.32088(17)
C10A C -0.2596(4) -0.3161(3) -0.11787(18)
C11A C -0.2583(4) -0.2368(3) -0.37017(17)
N10A N -0.8726(4) -0.4627(4) -0.2088(2)
H5A H -0.480(6) 0.067(5) 0.290(3)
H6A H -0.527(6) 0.096(5) 0.199(3)
O1A O 0.2432(2) 0.9476(2) 0.53078(13)
H7A H 0.223(5) 0.984(4) 0.575(3)
H8A H 0.198(5) 0.865(5) 0.509(3)
Ag3_2 Ag 1.07020(3) 0.35245(3) 0.289768(15)
Ag3A_2 Ag -1.07020(3) -0.35245(3) -0.289768(15)
Mn1_2 Mn 0.0000 -1.0000 0.0000
Mn1_3 Mn 0.0000 1.0000 0.0000
Mn2_2 Mn -0.5000 -1.0000 -0.5000
Mn2_3 Mn -0.5000 0.0000 -0.5000
Mn2_4 Mn 0.5000 0.0000 0.5000
N4_2 N 0.2206(3) -0.1642(3) 0.02778(14)
N4A_2 N -0.2206(3) 0.1642(3) -0.02778(14)
N8A_2 N 0.5572(3) 1.1973(3) 0.61872(14)
N9_2 N 0.3593(3) 1.1676(3) 0.41271(14)
N9A_2 N 0.6407(3) 0.8324(3) 0.58729(14)
N10_2 N -0.1274(4) 0.4627(4) 0.2088(2)
N10A_2 N 0.1274(4) -0.4627(4) -0.2088(2)
N1 N 0.6727(8) 0.4385(8) 0.4330(5)
N2 N 0.9152(6) 0.3581(3) 0.5049(3)
C1 C 0.8249(7) 0.4659(5) 0.4608(4)
C2 C 1.0860(7) 0.3912(4) 0.5436(3)
H1 H 1.1506 0.3180 0.5751
N1A N 1.3273(8) 0.5615(8) 0.5670(5)
N2A N 1.0848(6) 0.6419(3) 0.4951(3)
C1A C 1.1751(7) 0.5341(5) 0.5392(4)
C2A C 0.9140(7) 0.6088(4) 0.4564(3)
H1A H 0.8494 0.6820 0.4249
loop_
_geom_bond_atom_site_label_1
_geom_bond_atom_site_label_2
_geom_bond_site_symmetry_1
_geom_bond_site_symmetry_2
N1 C1 1_555 1_555
N2 C1 1_555 1_555
C1 C2A 1_555 1_555
C2 N2 1_555 1_555
H1 C2 1_555 1_555
Ag1 Ag2 1_555 1_555
Ag2 C7 1_555 1_555
Ag3 Ag1 1_555 1_555
Mn1 N3 1_555 1_555
Mn2 N8 1_555 1_555
N3 C10 1_555 1_555
N4 C7 1_555 1_555
N5 Mn1 1_555 1_555
N6 C4 1_555 1_555
N7 C4 1_555 1_555
N8 C9 1_555 1_555
N9 C11 1_555 1_555
O1 Mn2 1_555 1_555
C3 N5 1_555 1_555
H2 C3 1_555 1_555
C4 C3 1_555 1_555
C5 N6 1_555 1_555
H3 C5 1_555 1_555
C6 N5 1_555 1_555
H4 C6 1_555 1_555
C8 Ag2 1_555 1_555
C9 Ag1 1_555 1_555
C10 Ag1 1_555 1_555
C11 Ag3 1_555 1_555
N10 C8 1_555 1_555
H5 N7 1_555 1_555
H6 N7 1_555 1_555
H7 O1 1_555 1_555
H8 O1 1_555 1_555
N1A C1A 1_555 1_555
N2A C1A 1_555 1_555
C1A C2 1_555 1_555
C2A N2A 1_555 1_555
H1A C2A 1_555 1_555
Ag1A Ag2A 1_555 1_555
Ag2A C7A 1_555 1_555
Ag3A Ag1A 1_555 1_555
N3A Mn1 1_555 1_555
N4A C7A 1_555 1_555
N5A Mn1 1_555 1_555
N6A C4A 1_555 1_555
N7A C4A 1_555 1_555
N8A C9A 1_555 1_555
N9A C11A 1_555 1_555
C3A N5A 1_555 1_555
H2A C3A 1_555 1_555
C4A C3A 1_555 1_555
C5A N6A 1_555 1_555
H3A C5A 1_555 1_555
C6A N5A 1_555 1_555
H4A C6A 1_555 1_555
C8A Ag2A 1_555 1_555
C9A Ag1A 1_555 1_555
C10A Ag1A 1_555 1_555
C11A Ag3A 1_555 1_555
N10A C8A 1_555 1_555
H5A N7A 1_555 1_555
H6A N7A 1_555 1_555
O1A Mn2 1_555 1_555
H7A O1A 1_555 1_555
H8A O1A 1_555 1_555
Ag3_2 N10 1_555 1_555
Ag3A_2 N10A 1_555 1_555
Mn1_2 N4A 1_555 1_555
Mn1_3 N4 1_555 1_555
Mn2_2 N8A 1_555 1_555
Mn2_3 N9A 1_555 1_555
Mn2_4 N9 1_555 1_555
N4_2 Mn1 1_555 1_555
N4A_2 Mn1 1_555 1_555
N8A_2 Mn2 1_555 1_555
N9_2 Mn2 1_555 1_555
N9A_2 Mn2 1_555 1_555
N10_2 Ag3 1_555 1_555
N10A_2 Ag3A 1_555 1_555
C5 C6 1_555 1_555
N3A C10A 1_555 1_555
C5A C6A 1_555 1_555

#END
