
#######################################################################
#
#                 Cambridge Crystallographic Data Centre
#                                CCDC 
#
#######################################################################
#
# If this CIF has been generated from an entry in the Cambridge 
# Structural Database, then it will include bibliographic, chemical, 
# crystal, experimental, refinement or atomic coordinate data resulting 
# from the CCDC's data processing and validation procedures.
#
#######################################################################

data_BIFKEI
_symmetry_cell_setting           triclinic
_symmetry_space_group_name_H-M   'P -1'
_symmetry_Int_Tables_number      2
_space_group_name_Hall           '-P 1'
loop_
_symmetry_equiv_pos_site_id
_symmetry_equiv_pos_as_xyz
1 x,y,z
2 -x,-y,-z
_cell_length_a                   12.287(8)
_cell_length_b                   12.916(8)
_cell_length_c                   18.199(12)
_cell_angle_alpha                86.733(8)
_cell_angle_beta                 70.443(8)
_cell_angle_gamma                80.146(8)
_cell_volume                     2681.39
loop_
_atom_site_label
_atom_site_type_symbol
_atom_site_fract_x
_atom_site_fract_y
_atom_site_fract_z
N1 N 0.6986(5) 0.5854(9) 0.1010(6)
C1 C 0.7744(9) 0.6585(7) 0.0849(10)
H1 H 0.7457 0.7281 0.1003
C2 C 0.8931(8) 0.6277(9) 0.0456(10)
H2 H 0.9438 0.6766 0.0348
C3 C 0.9360(5) 0.5237(10) 0.0225(7)
C4 C 0.8602(8) 0.4505(8) 0.0387(10)
H3 H 0.8889 0.3810 0.0232
C5 C 0.7415(8) 0.4814(9) 0.0780(10)
H4 H 0.6908 0.4325 0.0888
N2 N 0.3986(10) 0.8338(9) 0.3988(6)
C6 C 0.4839(12) 0.8940(13) 0.3593(4)
H5 H 0.5153 0.8910 0.3052
C7 C 0.5224(12) 0.9586(13) 0.4007(6)
H6 H 0.5795 0.9989 0.3742
C8 C 0.4755(11) 0.9631(12) 0.4815(6)
C9 C 0.3902(14) 0.9029(15) 0.5211(4)
H7 H 0.3588 0.9059 0.5752
C10 C 0.3517(13) 0.8382(13) 0.4797(6)
H8 H 0.2946 0.7979 0.5062
N3 N 0.2208(10) 0.6531(11) 0.4089(8)
C11 C 0.1053(12) 0.7020(9) 0.4408(11)
H9 H 0.0865 0.7746 0.4380
C12 C 0.0180(9) 0.6422(11) 0.4769(13)
H10 H -0.0593 0.6749 0.4983
C13 C 0.0461(9) 0.5336(11) 0.4812(10)
C14 C 0.1616(10) 0.4848(9) 0.4492(10)
H11 H 0.1804 0.4121 0.4520
C15 C 0.2489(7) 0.5445(11) 0.4131(9)
H12 H 0.3262 0.5118 0.3917
N4 N 0.1892(9) 0.8595(8) 0.2561(6)
N5 N 0.2354(8) 0.8559(8) 0.3181(6)
C16 C 0.1749(12) 0.9431(10) 0.3678(7)
H13 H 0.1878 0.9596 0.4130
C17 C 0.0912(11) 1.0005(9) 0.3364(8)
C18 C 0.1000(9) 0.9488(9) 0.2674(7)
H14 H 0.0553 0.9698 0.2352
N6 N 0.4883(7) 0.6526(9) 0.0689(4)
N7 N 0.3763(6) 0.7061(8) 0.0707(4)
C19 C 0.3695(7) 0.7028(9) -0.0054(5)
H15 H 0.3057 0.7318 -0.0206
C20 C 0.4772(9) 0.6473(10) -0.0543(4)
C21 C 0.5506(6) 0.6163(9) -0.0083(5)
H16 H 0.6263 0.5788 -0.0258
Cu1 Cu 0.52930(12) 0.63145(16) 0.16146(9)
Cu2 Cu 0.27572(14) 0.77738(16) 0.16254(10)
Cu3 Cu 0.35559(15) 0.74572(17) 0.32479(10)
O1 O 0.3643(7) 0.6823(8) 0.2230(5)
H17 H 0.3260 0.6200 0.2370
N8 N 0.4876(9) 0.6408(9) 0.3235(6)
N9 N 0.5554(10) 0.5819(12) 0.2603(7)
N10 N 0.1738(10) 0.8528(12) 0.1025(7)
S1 S 0.5357(4) 0.8945(4) 0.1206(3)
S2 S 0.1591(5) 0.5306(6) 0.1998(3)
C22 C 0.6419(13) 0.5193(17) 0.2730(11)
H18 H 0.7075 0.4878 0.2335
C23 C 0.6247(12) 0.504(3) 0.3567(12)
C24 C 0.528(3) 0.585(3) 0.3861(14)
H19 H 0.4927 0.6011 0.4387
C25 C 0.2048(15) 0.934(2) 0.0662(17)
H20 H 0.2697 0.9571 0.0710
C26 C 0.1461(17) 0.993(3) 0.0176(14)
H21 H 0.1777 1.0474 -0.0137
C27 C 0.0365(12) 0.9664(18) 0.0187(11)
C28 C 0.002(2) 0.891(2) 0.0684(13)
H22 H -0.0751 0.8793 0.0831
C29 C 0.0823(17) 0.826(2) 0.1000(12)
H23 H 0.0656 0.7598 0.1195
Cl1 Cl 0.5110(4) 0.6315(5) -0.1508(2)
Cl2 Cl -0.0070(10) 1.0994(9) 0.3822(7)
Cl3 Cl 0.7006(6) 0.4417(8) 0.4043(4)
F1 F 0.461(2) 1.0439(14) 0.2208(11)
O2 O 0.5547(11) 0.8108(10) 0.1766(7)
O3 O 0.6302(13) 0.8846(14) 0.0453(8)
O4 O 0.4207(15) 0.9198(15) 0.1143(10)
O5 O 0.2032(15) 0.4721(18) 0.1316(9)
O6 O 0.1255(17) 0.6469(15) 0.1916(12)
O7 O 0.2451(15) 0.5052(18) 0.2504(9)
F2 F 0.663(2) 1.003(2) 0.1698(17)
F3 F 0.5304(19) 1.1000(17) 0.1108(13)
C30 C 0.555(2) 0.9955(17) 0.1493(16)
C31 C 0.0372(15) 0.432(2) 0.2679(12)
F4 F -0.049(2) 0.479(4) 0.2254(16)
F5 F -0.0186(17) 0.5225(19) 0.3258(10)
F6 F 0.005(2) 0.3246(16) 0.2570(16)
N1A N 1.3014(5) 0.4146(9) -0.1010(6)
C1A C 1.2256(9) 0.3415(7) -0.0849(10)
H1A H 1.2543 0.2719 -0.1003
C2A C 1.1069(8) 0.3723(9) -0.0456(10)
H2A H 1.0562 0.3234 -0.0348
C3A C 1.0640(5) 0.4763(10) -0.0225(7)
C4A C 1.1398(8) 0.5495(8) -0.0387(10)
H3A H 1.1111 0.6190 -0.0232
C5A C 1.2585(8) 0.5186(9) -0.0780(10)
H4A H 1.3092 0.5675 -0.0888
N2A N 0.6014(10) 1.1662(9) 0.6012(6)
C6A C 0.5161(12) 1.1060(13) 0.6407(4)
H5A H 0.4847 1.1090 0.6948
C7A C 0.4776(12) 1.0414(13) 0.5993(6)
H6A H 0.4205 1.0011 0.6258
C8A C 0.5245(11) 1.0369(12) 0.5185(6)
C9A C 0.6098(14) 1.0971(15) 0.4789(4)
H7A H 0.6412 1.0941 0.4248
C10A C 0.6483(13) 1.1618(13) 0.5203(6)
H8A H 0.7054 1.2021 0.4938
N3A N -0.2208(10) 0.3469(11) 0.5911(8)
C11A C -0.1053(12) 0.2980(9) 0.5592(11)
H9A H -0.0865 0.2254 0.5620
C12A C -0.0180(9) 0.3578(11) 0.5231(13)
H10A H 0.0593 0.3251 0.5017
C13A C -0.0461(9) 0.4664(11) 0.5188(10)
C14A C -0.1616(10) 0.5152(9) 0.5508(10)
H11A H -0.1804 0.5879 0.5480
C15A C -0.2489(7) 0.4555(11) 0.5869(9)
H12A H -0.3262 0.4882 0.6083
N10A N -0.1738(10) 1.1472(12) -0.1025(7)
C25A C -0.2048(15) 1.066(2) -0.0662(17)
H20A H -0.2697 1.0429 -0.0710
C26A C -0.1461(17) 1.007(3) -0.0176(14)
H21A H -0.1777 0.9526 0.0137
C27A C -0.0365(12) 1.0336(18) -0.0187(11)
C28A C -0.002(2) 1.109(2) -0.0684(13)
H22A H 0.0751 1.1207 -0.0831
C29A C -0.0823(17) 1.174(2) -0.1000(12)
H23A H -0.0656 1.2402 -0.1195
N4A N -0.1892(9) 0.1405(8) 0.7439(6)
N5A N -0.2354(8) 0.1441(8) 0.6819(6)
C16A C -0.1749(12) 0.0569(10) 0.6322(7)
H13A H -0.1878 0.0404 0.5870
C17A C -0.0912(11) -0.0005(9) 0.6636(8)
C18A C -0.1000(9) 0.0512(9) 0.7326(7)
H14A H -0.0553 0.0302 0.7648
N6A N -0.4883(7) 0.3474(9) 0.9311(4)
N7A N -0.3763(6) 0.2939(8) 0.9293(4)
C19A C -0.3695(7) 0.2972(9) 1.0054(5)
H15A H -0.3057 0.2682 1.0206
C20A C -0.4772(9) 0.3527(10) 1.0543(4)
C21A C -0.5506(6) 0.3837(9) 1.0083(5)
H16A H -0.6263 0.4212 1.0258
Cu1A Cu -0.52930(12) 0.36855(16) 0.83854(9)
Cu2A Cu -0.27572(14) 0.22262(16) 0.83746(10)
Cu3A Cu -0.35559(15) 0.25428(17) 0.67521(10)
O1A O -0.3643(7) 0.3177(8) 0.7770(5)
H17A H -0.3260 0.3800 0.7630
N8A N -0.4876(9) 0.3592(9) 0.6765(6)
N9A N -0.5554(10) 0.4181(12) 0.7397(7)
S1A S -0.5357(4) 0.1055(4) 0.8794(3)
S2A S -0.1591(5) 0.4694(6) 0.8002(3)
C22A C -0.6419(13) 0.4807(17) 0.7270(11)
H18A H -0.7075 0.5122 0.7665
C23A C -0.6247(12) 0.496(3) 0.6433(12)
C24A C -0.528(3) 0.415(3) 0.6139(14)
H19A H -0.4927 0.3989 0.5613
Cl1A Cl -0.5110(4) 0.3685(5) 1.1508(2)
Cl2A Cl 0.0070(10) -0.0994(9) 0.6178(7)
Cl3A Cl -0.7006(6) 0.5583(8) 0.5957(4)
F1A F -0.461(2) -0.0439(14) 0.7792(11)
O2A O -0.5547(11) 0.1892(10) 0.8234(7)
O3A O -0.6302(13) 0.1154(14) 0.9547(8)
O4A O -0.4207(15) 0.0802(15) 0.8857(10)
O5A O -0.2032(15) 0.5279(18) 0.8684(9)
O6A O -0.1255(17) 0.3531(15) 0.8084(12)
O7A O -0.2451(15) 0.4948(18) 0.7496(9)
F2A F -0.663(2) -0.003(2) 0.8302(17)
F3A F -0.5304(19) -0.1000(17) 0.8892(13)
C30A C -0.555(2) 0.0045(17) 0.8507(16)
C31A C -0.0372(15) 0.568(2) 0.7321(12)
F4A F 0.049(2) 0.521(4) 0.7746(16)
F5A F 0.0186(17) 0.4775(19) 0.6742(10)
F6A F -0.005(2) 0.6754(16) 0.7430(16)
N1A_2 N -0.6986(5) 0.4146(9) 0.8990(6)
N2A_2 N -0.3986(10) 0.1662(9) 0.6012(6)
Cu1A_2 Cu 1.47070(12) 0.36855(16) -0.16146(9)
Cu2A_2 Cu -0.27572(14) 1.22262(16) -0.16254(10)
Cu3A_2 Cu 0.64441(15) 1.25428(17) 0.67521(10)
N10A_2 N -0.1738(10) 0.1472(12) 0.8975(7)
loop_
_geom_bond_atom_site_label_1
_geom_bond_atom_site_label_2
_geom_bond_site_symmetry_1
_geom_bond_site_symmetry_2
N1 C1 1_555 1_555
C1 H1 1_555 1_555
C2 C1 1_555 1_555
H2 C2 1_555 1_555
C3 C2 1_555 1_555
C4 C3 1_555 1_555
H3 C4 1_555 1_555
C5 N1 1_555 1_555
H4 C5 1_555 1_555
N2 C6 1_555 1_555
C6 H5 1_555 1_555
C7 C6 1_555 1_555
H6 C7 1_555 1_555
C8 C7 1_555 1_555
C9 C8 1_555 1_555
H7 C9 1_555 1_555
C10 N2 1_555 1_555
H8 C10 1_555 1_555
N3 C11 1_555 1_555
C11 H9 1_555 1_555
C12 C11 1_555 1_555
H10 C12 1_555 1_555
C13 C12 1_555 1_555
C14 C13 1_555 1_555
H11 C14 1_555 1_555
C15 N3 1_555 1_555
H12 C15 1_555 1_555
N4 N5 1_555 1_555
N5 C16 1_555 1_555
C16 H13 1_555 1_555
C17 C16 1_555 1_555
C18 N4 1_555 1_555
H14 C18 1_555 1_555
N6 N7 1_555 1_555
N7 C19 1_555 1_555
C19 H15 1_555 1_555
C20 C19 1_555 1_555
C21 N6 1_555 1_555
H16 C21 1_555 1_555
Cu1 N1 1_555 1_555
Cu2 N4 1_555 1_555
Cu3 N2 1_555 1_555
O1 Cu1 1_555 1_555
H17 O1 1_555 1_555
N8 Cu3 1_555 1_555
N9 Cu1 1_555 1_555
N10 Cu2 1_555 1_555
S1 O2 1_555 1_555
S2 O5 1_555 1_555
C22 N9 1_555 1_555
H18 C22 1_555 1_555
C23 C22 1_555 1_555
C24 N8 1_555 1_555
H19 C24 1_555 1_555
C25 N10 1_555 1_555
H20 C25 1_555 1_555
C26 C25 1_555 1_555
H21 C26 1_555 1_555
C27 C26 1_555 1_555
C28 C27 1_555 1_555
H22 C28 1_555 1_555
C29 N10 1_555 1_555
H23 C29 1_555 1_555
Cl1 C20 1_555 1_555
Cl2 C17 1_555 1_555
Cl3 C23 1_555 1_555
F1 C30 1_555 1_555
O2 Cu1 1_555 1_555
O3 S1 1_555 1_555
O4 Cu2 1_555 1_555
O6 Cu2 1_555 1_555
O7 S2 1_555 1_555
F2 C30 1_555 1_555
F3 C30 1_555 1_555
C30 S1 1_555 1_555
C31 S2 1_555 1_555
F4 C31 1_555 1_555
F5 C31 1_555 1_555
F6 C31 1_555 1_555
N1A C1A 1_555 1_555
C1A H1A 1_555 1_555
C2A C1A 1_555 1_555
H2A C2A 1_555 1_555
C3A C3 1_555 1_555
C4A C3A 1_555 1_555
H3A C4A 1_555 1_555
C5A N1A 1_555 1_555
H4A C5A 1_555 1_555
N2A C6A 1_555 1_555
C6A H5A 1_555 1_555
C7A C6A 1_555 1_555
H6A C7A 1_555 1_555
C8A C8 1_555 1_555
C9A C8A 1_555 1_555
H7A C9A 1_555 1_555
C10A N2A 1_555 1_555
H8A C10A 1_555 1_555
N3A C11A 1_555 1_555
C11A H9A 1_555 1_555
C12A C11A 1_555 1_555
H10A C12A 1_555 1_555
C13A C13 1_555 1_555
C14A C13A 1_555 1_555
H11A C14A 1_555 1_555
C15A N3A 1_555 1_555
H12A C15A 1_555 1_555
N10A C25A 1_555 1_555
C25A H20A 1_555 1_555
C26A C25A 1_555 1_555
H21A C26A 1_555 1_555
C27A C27 1_555 1_555
C28A C27A 1_555 1_555
H22A C28A 1_555 1_555
C29A N10A 1_555 1_555
H23A C29A 1_555 1_555
N4A N5A 1_555 1_555
N5A C16A 1_555 1_555
C16A H13A 1_555 1_555
C17A C16A 1_555 1_555
C18A N4A 1_555 1_555
H14A C18A 1_555 1_555
N6A N7A 1_555 1_555
N7A C19A 1_555 1_555
C19A H15A 1_555 1_555
C20A C19A 1_555 1_555
C21A N6A 1_555 1_555
H16A C21A 1_555 1_555
Cu1A N6A 1_555 1_555
Cu2A N4A 1_555 1_555
Cu3A N3A 1_555 1_555
O1A Cu1A 1_555 1_555
H17A O1A 1_555 1_555
N8A Cu3A 1_555 1_555
N9A Cu1A 1_555 1_555
S1A O2A 1_555 1_555
S2A O5A 1_555 1_555
C22A N9A 1_555 1_555
H18A C22A 1_555 1_555
C23A C22A 1_555 1_555
C24A N8A 1_555 1_555
H19A C24A 1_555 1_555
Cl1A C20A 1_555 1_555
Cl2A C17A 1_555 1_555
Cl3A C23A 1_555 1_555
F1A C30A 1_555 1_555
O2A Cu1A 1_555 1_555
O3A S1A 1_555 1_555
O4A Cu2A 1_555 1_555
O6A Cu2A 1_555 1_555
O7A S2A 1_555 1_555
F2A C30A 1_555 1_555
F3A C30A 1_555 1_555
C30A S1A 1_555 1_555
C31A S2A 1_555 1_555
F4A C31A 1_555 1_555
F5A C31A 1_555 1_555
F6A C31A 1_555 1_555
N1A_2 Cu1A 1_555 1_555
N2A_2 Cu3A 1_555 1_555
Cu1A_2 N1A 1_555 1_555
Cu2A_2 N10A 1_555 1_555
Cu3A_2 N2A 1_555 1_555
N10A_2 Cu2A 1_555 1_555
C4 C5 1_555 1_555
C9 C10 1_555 1_555
N3 Cu3 1_555 1_555
C14 C15 1_555 1_555
N5 Cu3 1_555 1_555
C17 C18 1_555 1_555
N6 Cu1 1_555 1_555
N7 Cu2 1_555 1_555
C20 C21 1_555 1_555
Cu2 O1 1_555 1_555
Cu3 O1 1_555 1_555
N8 N9 1_555 1_555
S1 O4 1_555 1_555
S2 O6 1_555 1_555
C23 C24 1_555 1_555
C28 C29 1_555 1_555
C2A C3A 1_555 1_555
C4A C5A 1_555 1_555
C7A C8A 1_555 1_555
C9A C10A 1_555 1_555
C12A C13A 1_555 1_555
C14A C15A 1_555 1_555
C26A C27A 1_555 1_555
C28A C29A 1_555 1_555
N5A Cu3A 1_555 1_555
C17A C18A 1_555 1_555
N7A Cu2A 1_555 1_555
C20A C21A 1_555 1_555
Cu2A O1A 1_555 1_555
Cu3A O1A 1_555 1_555
N8A N9A 1_555 1_555
S1A O4A 1_555 1_555
S2A O6A 1_555 1_555
C23A C24A 1_555 1_555

#END
