
#######################################################################
#
#                 Cambridge Crystallographic Data Centre
#                                CCDC 
#
#######################################################################
#
# If this CIF has been generated from an entry in the Cambridge 
# Structural Database, then it will include bibliographic, chemical, 
# crystal, experimental, refinement or atomic coordinate data resulting 
# from the CCDC's data processing and validation procedures.
#
#######################################################################

data_BIMDOR
_symmetry_cell_setting           rhombohedral
_symmetry_space_group_name_H-M   'R -3'
_symmetry_Int_Tables_number      148
_space_group_name_Hall           '-R 3'
loop_
_symmetry_equiv_pos_site_id
_symmetry_equiv_pos_as_xyz
1 x,y,z
2 -y,x-y,z
3 -x+y,-x,z
4 1/3+x,2/3+y,2/3+z
5 1/3-y,2/3+x-y,2/3+z
6 1/3-x+y,2/3-x,2/3+z
7 2/3+x,1/3+y,1/3+z
8 2/3-y,1/3+x-y,1/3+z
9 2/3-x+y,1/3-x,1/3+z
10 -x,-y,-z
11 y,-x+y,-z
12 x-y,x,-z
13 2/3-x,1/3-y,1/3-z
14 2/3+y,1/3-x+y,1/3-z
15 2/3+x-y,1/3+x,1/3-z
16 1/3-x,2/3-y,2/3-z
17 1/3+y,2/3-x+y,2/3-z
18 1/3+x-y,2/3+x,2/3-z
_cell_length_a                   41.663(7)
_cell_length_b                   41.663(7)
_cell_length_c                   7.843(2)
_cell_angle_alpha                90
_cell_angle_beta                 90
_cell_angle_gamma                120
_cell_volume                     11790
loop_
_atom_site_label
_atom_site_type_symbol
_atom_site_fract_x
_atom_site_fract_y
_atom_site_fract_z
N1 N 0.1155(5) 0.5583(4) 0.3468(19)
C7 C 0.1097(6) 0.5895(6) 0.3575(27)
N2 N 0.0641(4) 0.6080(4) 0.3116(15)
C8 C 0.0753(6) 0.5767(5) 0.3058(24)
H7 H 0.1397(5) 0.5662(5) 0.348(18)
H8 H 0.1057(35) 0.5460(23) 0.2504(88)
H9 H 0.1047(33) 0.5433(20) 0.4353(98)
H10 H 0.1129(6) 0.5985(6) 0.4738(27)
H11 H 0.1270(6) 0.6095(6) 0.2845(27)
H12 H 0.0401(7) 0.5980(6) 0.290(13)
H13 H 0.0771(21) 0.6252(15) 0.2337(89)
H14 H 0.0690(27) 0.6184(20) 0.4146(42)
H15 H 0.0586(6) 0.5562(5) 0.3782(24)
H16 H 0.0726(6) 0.5675(5) 0.1901(24)
Zn1 Zn 0.1420(1) 0.7608(1) 0.6869(2)
Zn2 Zn 0.1455(1) 0.7175(1) 0.2882(2)
Zn3 Zn 0.0635(1) 0.7952(1) 0.1526(2)
P1 P 0.1079(1) 0.7652(1) 0.3329(4)
P2 P 0.1187(1) 0.6769(1) 0.6377(4)
P3 P 0.2158(1) 0.7796(1) 0.4876(5)
O1 O 0.1056(3) 0.7289(2) 0.2878(12)
O2 O 0.1212(3) 0.7779(2) 0.5127(10)
O3 O 0.0710(2) 0.7632(3) 0.3059(12)
C1 C 0.1410(3) 0.8006(3) 0.1900(15)
C2 C 0.1288(4) 0.7900(4) 0.0063(16)
O4 O 0.1490(3) 0.7816(3) 0.9144(11)
O5 O 0.1002(3) 0.7894(3) -0.0401(12)
O6 O 0.1108(2) 0.7075(2) 0.6789(11)
O7 O 0.0270(3) 0.7771(3) -0.0277(11)
O8 O 0.1376(3) 0.6826(2) 0.4681(11)
C3 C 0.1491(4) 0.6757(4) 0.7960(16)
C4 C 0.1349(4) 0.6760(4) 0.9749(18)
O9 O 0.1554(3) 0.7030(3) 0.0654(12)
O10 O 0.0170(3) 0.7876(3) 0.3513(11)
O11 O 0.1918(2) 0.7646(2) 0.3277(11)
O12 O 0.1924(3) 0.7711(3) 0.6482(12)
O13 O 0.0894(3) 0.8471(3) 0.2015(13)
C5 C 0.2407(5) 0.7547(6) 0.5082(24)
C6 C 0.2651(11) 0.7604(11) 0.3205(65)
H1 H 0.1428(3) 0.8242(3) 0.2158(15)
H2 H 0.1653(3) 0.8033(5) 0.2063(15)
H3 H 0.1508(4) 0.6535(4) 0.7811(16)
H4 H 0.1737(4) 0.6970(4) 0.7820(16)
H5 H 0.2576(5) 0.7643(6) 0.6040(24)
H6 H 0.2235(5) 0.7286(6) 0.5279(24)
O7E O 0.0834(4) 0.6397(3) 0.6390(11)
O13O O 0.2439(3) 0.8196(3) 0.4652(13)
O4_2 O 0.1490(3) 0.7816(3) -0.0856(11)
C2_2 C 0.1288(4) 0.7900(4) 1.0063(16)
P2G P -0.0102(1) 0.7751(1) -0.0290(4)
O9_2 O 0.1554(3) 0.7030(3) 1.0654(12)
O10E O 0.1039(4) 0.6497(3) 1.0180(11)
C4_2 C 0.1349(4) 0.6760(4) -0.0251(18)
C4G C -0.0093(4) 0.7922(6) 0.3082(18)
P3O P 0.1175(1) 0.8871(1) 0.1791(5)
loop_
_geom_bond_atom_site_label_1
_geom_bond_atom_site_label_2
_geom_bond_site_symmetry_1
_geom_bond_site_symmetry_2
Zn1 O2 1_555 1_555
Zn2 O1 1_555 1_555
Zn3 O3 1_555 1_555
P1 O1 1_555 1_555
P2 O6 1_555 1_555
P3 O11 1_555 1_555
O2 P1 1_555 1_555
O3 P1 1_555 1_555
C1 P1 1_555 1_555
C2 C1 1_555 1_555
O4 Zn1 1_555 1_555
O5 Zn3 1_555 1_555
O6 Zn1 1_555 1_555
O7 Zn3 1_555 1_555
O8 Zn2 1_555 1_555
C3 P2 1_555 1_555
C4 C3 1_555 1_555
O9 Zn2 1_555 1_555
O10 Zn3 1_555 1_555
O11 Zn2 1_555 1_555
O12 Zn1 1_555 1_555
O13 Zn3 1_555 1_555
C5 P3 1_555 1_555
C6 C5 1_555 1_555
N1 C7 1_555 1_555
C7 C8 1_555 1_555
N2 C8 1_555 1_555
C8 H15 1_555 1_555
H1 C1 1_555 1_555
H2 C1 1_555 1_555
H3 C3 1_555 1_555
H4 C3 1_555 1_555
H5 C5 1_555 1_555
H6 C5 1_555 1_555
H7 N1 1_555 1_555
H8 N1 1_555 1_555
H9 N1 1_555 1_555
H10 C7 1_555 1_555
H11 C7 1_555 1_555
H12 N2 1_555 1_555
H13 N2 1_555 1_555
H14 N2 1_555 1_555
H16 C8 1_555 1_555
O7E P2 1_555 1_555
O13O P3 1_555 1_555
O4_2 C2 1_555 1_555
C2_2 O4 1_555 1_555
P2G O7 1_555 1_555
O9_2 C4 1_555 1_555
O10E C4 1_555 1_555
C4_2 O9 1_555 1_555
C4G O10 1_555 1_555
P3O O13 1_555 1_555
P2 O8 1_555 1_555
P3 O12 1_555 1_555
C2 O5 1_555 1_555

#END
