
#######################################################################
#
#                 Cambridge Crystallographic Data Centre
#                                CCDC 
#
#######################################################################
#
# If this CIF has been generated from an entry in the Cambridge 
# Structural Database, then it will include bibliographic, chemical, 
# crystal, experimental, refinement or atomic coordinate data resulting 
# from the CCDC's data processing and validation procedures.
#
#######################################################################

data_BIQHEQ
_symmetry_cell_setting           orthorhombic
_symmetry_space_group_name_H-M   'P b a m'
_symmetry_Int_Tables_number      55
_space_group_name_Hall           '-P 2 2ab'
loop_
_symmetry_equiv_pos_site_id
_symmetry_equiv_pos_as_xyz
1 x,y,z
2 -x,-y,z
3 1/2+x,1/2-y,-z
4 1/2-x,1/2+y,-z
5 -x,-y,-z
6 x,y,-z
7 1/2-x,1/2+y,z
8 1/2+x,1/2-y,z
_cell_length_a                   15.8354(5)
_cell_length_b                   17.5204(6)
_cell_length_c                   11.4998(3)
_cell_angle_alpha                90
_cell_angle_beta                 90
_cell_angle_gamma                90
_cell_volume                     3190.53
loop_
_atom_site_label
_atom_site_type_symbol
_atom_site_fract_x
_atom_site_fract_y
_atom_site_fract_z
C1 C 0.1980(2) 0.3936(2) 0.1700(3)
C2 C 0.2543(3) 0.2943(3) 0.0000
C3 C 0.3101(3) 0.4334(3) 0.0000
C4 C 0.1528(3) 0.4932(3) 0.0000
C5 C 0.0864(3) 0.3479(3) 0.0000
C6 C 0.1385(2) 0.7294(2) 0.2532(3)
H1 H 0.1682 0.7671 0.2136
C7 C 0.1353(3) 0.7333(2) 0.3732(3)
H2 H 0.1620 0.7730 0.4122
C8 C 0.0588(3) 0.6229(3) 0.2509(3)
H3 H 0.0316 0.5842 0.2100
C9 C 0.0524(3) 0.6227(3) 0.3704(3)
H4 H 0.0209 0.5851 0.4076
C10 C 0.0924(2) 0.6783(2) 0.4348(3)
C11 C 0.5370(3) 0.5548(2) -0.2514(3)
H5 H 0.5639 0.5939 -0.2111
C12 C 0.5382(3) 0.5572(2) -0.3714(3)
H6 H 0.5648 0.5974 -0.4092
C13 C 0.5000 0.5000 -0.4357(4)
N1 N 0.1971(2) 0.3969(2) 0.2705(3)
N2 N 0.2959(3) 0.2407(3) 0.0000
N3 N 0.3784(3) 0.4552(3) 0.0000
N4 N 0.1316(3) 0.5561(3) 0.0000
N5 N 0.0192(3) 0.3231(2) 0.0000
N6 N 0.10127(18) 0.67439(18) 0.1907(2)
N7 N 0.5000 0.5000 -0.1903(3)
O1 O 0.4476(2) 0.6123(2) 0.0000
H7 H 0.4073 0.6140 0.0680
Fe1 Fe 0.19827(4) 0.39143(4) 0.0000
Zn1 Zn 0.10795(4) 0.66730(3) 0.0000
Zn2 Zn 0.5000 0.5000 0.0000
C6E C 0.1385(2) 0.7294(2) 0.7468(3)
H1E H 0.1682 0.7671 0.7864
C7E C 0.1353(3) 0.7333(2) 0.6268(3)
H2E H 0.1620 0.7730 0.5878
C8E C 0.0588(3) 0.6229(3) 0.7491(3)
H3E H 0.0316 0.5842 0.7900
C9E C 0.0524(3) 0.6227(3) 0.6296(3)
H4E H 0.0209 0.5851 0.5924
C10E C 0.0924(2) 0.6783(2) 0.5652(3)
N6E N 0.10127(18) 0.67439(18) 0.8093(2)
C11A C 0.4630(3) 0.4452(2) -0.2514(3)
H5A H 0.4361 0.4061 -0.2111
C12A C 0.4618(3) 0.4428(2) -0.3714(3)
H6A H 0.4352 0.4026 -0.4092
C11D C 0.4630(3) 0.4452(2) -0.7486(3)
H5D H 0.4361 0.4061 -0.7889
C12D C 0.4618(3) 0.4428(2) -0.6286(3)
H6D H 0.4352 0.4026 -0.5908
C13D C 0.5000 0.5000 -0.5643(4)
N7D N 0.5000 0.5000 -0.8097(3)
C11E C 0.5370(3) 0.5548(2) -0.7486(3)
H5E H 0.5639 0.5939 -0.7889
C12E C 0.5382(3) 0.5572(2) -0.6286(3)
H6E H 0.5648 0.5974 -0.5908
H7E H 0.4073 0.6140 -0.0680
C1A C -0.1980(2) 0.6064(2) 0.1700(3)
C2A C -0.2543(3) 0.7057(3) 0.0000
C3A C -0.3101(3) 0.5666(3) 0.0000
C4A C -0.1528(3) 0.5068(3) 0.0000
C5A C -0.0864(3) 0.6521(3) 0.0000
C6A C -0.1385(2) 0.2706(2) 0.2532(3)
H1A H -0.1682 0.2329 0.2136
C7A C -0.1353(3) 0.2667(2) 0.3732(3)
H2A H -0.1620 0.2270 0.4122
C8A C -0.0588(3) 0.3771(3) 0.2509(3)
H3A H -0.0316 0.4158 0.2100
C9A C -0.0524(3) 0.3773(3) 0.3704(3)
H4A H -0.0209 0.4149 0.4076
C10A C -0.0924(2) 0.3217(2) 0.4348(3)
N1A N -0.1971(2) 0.6031(2) 0.2705(3)
N2A N -0.2959(3) 0.7593(3) 0.0000
N3A N -0.3784(3) 0.5448(3) 0.0000
N4A N -0.1316(3) 0.4439(3) 0.0000
N5A N -0.0192(3) 0.6769(2) 0.0000
N6A N -0.10127(18) 0.32561(18) 0.1907(2)
Fe1A Fe -0.19827(4) 0.60857(4) 0.0000
Zn1A Zn -0.10795(4) 0.33270(3) 0.0000
C6D C -0.1385(2) 0.2706(2) 0.7468(3)
H1D H -0.1682 0.2329 0.7864
C7D C -0.1353(3) 0.2667(2) 0.6268(3)
H2D H -0.1620 0.2270 0.5878
C8D C -0.0588(3) 0.3771(3) 0.7491(3)
H3D H -0.0316 0.4158 0.7900
C9D C -0.0524(3) 0.3773(3) 0.6296(3)
H4D H -0.0209 0.4149 0.5924
C10D C -0.0924(2) 0.3217(2) 0.5652(3)
N6D N -0.10127(18) 0.32561(18) 0.8093(2)
O1A O 0.5524(2) 0.3877(2) 0.0000
H7A H 0.5927 0.3860 0.0680
H7D H 0.5927 0.3860 -0.0680
C1E C 0.1980(2) 0.3936(2) -0.1700(3)
N1E N 0.1971(2) 0.3969(2) -0.2705(3)
C1D C -0.1980(2) 0.6064(2) -0.1700(3)
N1D N -0.1971(2) 0.6031(2) -0.2705(3)
N2B N -0.2041(3) 0.2593(3) 0.0000
N2C N 0.2041(3) 0.7407(3) 0.0000
N3A_2 N 0.6216(3) 0.5448(3) 0.0000
N6D_2 N -0.10127(18) 0.32561(18) -0.1907(2)
N6E_2 N 0.10127(18) 0.67439(18) -0.1907(2)
N7D_2 N 0.5000 0.5000 0.1903(3)
Zn1_2 Zn 0.10795(4) 0.66730(3) 1.0000
Zn1A_2 Zn -0.10795(4) 0.33270(3) 1.0000
Zn1B Zn -0.39205(4) 0.83270(3) 0.0000
Zn1C Zn 0.39205(4) 0.16730(3) 0.0000
Zn2_2 Zn -0.5000 0.5000 0.0000
Zn2_3 Zn 0.5000 0.5000 -1.0000
C14 C 0.6237(4) 0.2948(3) 0.2531(4)
H8 H 0.5991 0.2546 0.2127
C15 C 0.6308(3) 0.2885(3) 0.3728(3)
H9 H 0.6123 0.2445 0.4102
C16 C 0.6871(3) 0.4094(3) 0.2528(4)
H10 H 0.7084 0.4510 0.2123
C17 C 0.6959(3) 0.4084(3) 0.3714(4)
H11 H 0.7226 0.4488 0.4088
C18 C 0.6651(2) 0.3472(2) 0.4361(3)
N8 N 0.6498(3) 0.3544(3) 0.1928(3)
C14E C 0.6237(4) 0.2948(3) 0.7469(4)
H8E H 0.5991 0.2546 0.7873
C15E C 0.6308(3) 0.2885(3) 0.6272(3)
H9E H 0.6123 0.2445 0.5898
C16E C 0.6871(3) 0.4094(3) 0.7472(4)
H10E H 0.7084 0.4510 0.7877
C17E C 0.6959(3) 0.4084(3) 0.6286(4)
H11E H 0.7226 0.4488 0.5912
C18E C 0.6651(2) 0.3472(2) 0.5639(3)
N8E N 0.6498(3) 0.3544(3) 0.8072(3)
O2 O 0.2750(3) 0.3881(3) 0.5000
H12 H 0.2447 0.3891 0.4339
H12E H 0.2447 0.3891 0.5661
O3 O 0.1073(6) 0.4639(8) 0.5000
H13 H 0.1283 0.4481 0.4427
H13E H 0.1283 0.4481 0.5573
loop_
_geom_bond_atom_site_label_1
_geom_bond_atom_site_label_2
_geom_bond_site_symmetry_1
_geom_bond_site_symmetry_2
C1 N1 1_555 1_555
C2 N2 1_555 1_555
C3 N3 1_555 1_555
C4 N4 1_555 1_555
C5 N5 1_555 1_555
C6 H1 1_555 1_555
C7 C6 1_555 1_555
H2 C7 1_555 1_555
C8 H3 1_555 1_555
C9 C8 1_555 1_555
H4 C9 1_555 1_555
C10 C7 1_555 1_555
C11 H5 1_555 1_555
C12 C11 1_555 1_555
H6 C12 1_555 1_555
C13 C12 1_555 1_555
N2 Zn1C 1_555 1_555
N3 Zn2 1_555 1_555
N4 Zn1 1_555 1_555
N5 Zn1A 1_555 1_555
N6 C6 1_555 1_555
N7 C11 1_555 1_555
O1 H7 1_555 1_555
Fe1 C1 1_555 1_555
Zn1 N6 1_555 1_555
Zn2 N7 1_555 1_555
C14 H8 1_555 1_555
C15 C14 1_555 1_555
H9 C15 1_555 1_555
C16 H10 1_555 1_555
C17 C16 1_555 1_555
H11 C17 1_555 1_555
C18 C15 1_555 1_555
N8 C14 1_555 1_555
O2 H12 1_555 1_555
O3 H13 1_555 1_555
C6E H1E 1_555 1_555
C7E C6E 1_555 1_555
H2E C7E 1_555 1_555
C8E H3E 1_555 1_555
C9E C8E 1_555 1_555
H4E C9E 1_555 1_555
C10E C10 1_555 1_555
N6E C6E 1_555 1_555
C11A N7 1_555 1_555
H5A C11A 1_555 1_555
C12A C13 1_555 1_555
H6A C12A 1_555 1_555
C11D H5D 1_555 1_555
C12D C11D 1_555 1_555
H6D C12D 1_555 1_555
C13D C13 1_555 1_555
N7D C11D 1_555 1_555
C11E N7D 1_555 1_555
H5E C11E 1_555 1_555
C12E C13D 1_555 1_555
H6E C12E 1_555 1_555
H7E O1 1_555 1_555
C1A N1A 1_555 1_555
C2A N2A 1_555 1_555
C3A N3A 1_555 1_555
C4A N4A 1_555 1_555
C5A N5A 1_555 1_555
C6A H1A 1_555 1_555
C7A C6A 1_555 1_555
H2A C7A 1_555 1_555
C8A H3A 1_555 1_555
C9A C8A 1_555 1_555
H4A C9A 1_555 1_555
C10A C7A 1_555 1_555
N2A Zn1B 1_555 1_555
N3A Zn2_2 1_555 1_555
N4A Zn1A 1_555 1_555
N5A Zn1 1_555 1_555
N6A C6A 1_555 1_555
Fe1A C1A 1_555 1_555
Zn1A N6A 1_555 1_555
C6D H1D 1_555 1_555
C7D C6D 1_555 1_555
H2D C7D 1_555 1_555
C8D H3D 1_555 1_555
C9D C8D 1_555 1_555
H4D C9D 1_555 1_555
C10D C10A 1_555 1_555
N6D C6D 1_555 1_555
O1A Zn2 1_555 1_555
H7A O1A 1_555 1_555
H7D O1A 1_555 1_555
C1E Fe1 1_555 1_555
N1E C1E 1_555 1_555
C1D Fe1A 1_555 1_555
N1D C1D 1_555 1_555
N2B Zn1A 1_555 1_555
N2C Zn1 1_555 1_555
N3A_2 Zn2 1_555 1_555
N6D_2 Zn1A 1_555 1_555
N6E_2 Zn1 1_555 1_555
N7D_2 Zn2 1_555 1_555
Zn1_2 N6E 1_555 1_555
Zn1A_2 N6D 1_555 1_555
Zn2_3 N7D 1_555 1_555
C14E H8E 1_555 1_555
C15E C14E 1_555 1_555
H9E C15E 1_555 1_555
C16E H10E 1_555 1_555
C17E C16E 1_555 1_555
H11E C17E 1_555 1_555
C18E C18 1_555 1_555
N8E C14E 1_555 1_555
H12E O2 1_555 1_555
H13E O3 1_555 1_555
C2 Fe1 1_555 1_555
C3 Fe1 1_555 1_555
C4 Fe1 1_555 1_555
C5 Fe1 1_555 1_555
C8 N6 1_555 1_555
C9 C10 1_555 1_555
O1 Zn2 1_555 1_555
C16 N8 1_555 1_555
C17 C18 1_555 1_555
C7E C10E 1_555 1_555
C8E N6E 1_555 1_555
C9E C10E 1_555 1_555
C11A C12A 1_555 1_555
C12D C13D 1_555 1_555
C11E C12E 1_555 1_555
C2A Fe1A 1_555 1_555
C3A Fe1A 1_555 1_555
C4A Fe1A 1_555 1_555
C5A Fe1A 1_555 1_555
C8A N6A 1_555 1_555
C9A C10A 1_555 1_555
C7D C10D 1_555 1_555
C8D N6D 1_555 1_555
C9D C10D 1_555 1_555
C15E C18E 1_555 1_555
C16E N8E 1_555 1_555
C17E C18E 1_555 1_555

#END
