
#######################################################################
#
#                 Cambridge Crystallographic Data Centre
#                                CCDC 
#
#######################################################################
#
# If this CIF has been generated from an entry in the Cambridge 
# Structural Database, then it will include bibliographic, chemical, 
# crystal, experimental, refinement or atomic coordinate data resulting 
# from the CCDC's data processing and validation procedures.
#
#######################################################################

data_BIZLUT
_symmetry_cell_setting           triclinic
_symmetry_space_group_name_H-M   'P -1'
_symmetry_Int_Tables_number      2
_space_group_name_Hall           '-P 1'
loop_
_symmetry_equiv_pos_site_id
_symmetry_equiv_pos_as_xyz
1 x,y,z
2 -x,-y,-z
_cell_length_a                   24.0921(6)
_cell_length_b                   24.1914(6)
_cell_length_c                   24.3992(6)
_cell_angle_alpha                85.807(2)
_cell_angle_beta                 61.404(3)
_cell_angle_gamma                61.029(3)
_cell_volume                     10687.6
loop_
_atom_site_label
_atom_site_type_symbol
_atom_site_fract_x
_atom_site_fract_y
_atom_site_fract_z
S1 S -0.0791(2) 1.0336(2) 0.4268(2)
O25 O -0.1383(7) 1.0344(7) 0.4835(5)
O26 O -0.0058(6) 0.9865(7) 0.4158(8)
O27 O -0.0892(8) 1.0972(5) 0.4175(7)
C121 C -0.0777(7) 1.0036(6) 0.3583(5)
F1 F -0.1321(9) 1.0474(7) 0.3511(8)
F2 F -0.0779(11) 0.9496(6) 0.3644(8)
F3 F -0.0142(9) 0.9919(11) 0.3059(5)
S2 S 0.0458(3) 0.8548(2) 0.1421(2)
O28 O -0.0184(5) 0.8853(5) 0.1334(6)
O29 O 0.0327(6) 0.8324(5) 0.2006(4)
O30 O 0.1135(6) 0.8096(6) 0.0862(5)
C122 C 0.0576(5) 0.9230(4) 0.1512(5)
F4 F 0.0786(7) 0.9430(5) 0.0969(4)
F5 F -0.0070(5) 0.9709(4) 0.1960(5)
F6 F 0.1071(6) 0.9053(6) 0.1679(6)
S3 S 0.1391(3) 1.0258(3) -0.0103(2)
O31 O 0.0620(4) 1.0745(6) 0.0275(6)
O32 O 0.1779(7) 1.0108(7) 0.0250(6)
O33 O 0.1519(9) 0.9690(6) -0.0417(7)
C123 C 0.1801(6) 1.0623(6) -0.0740(5)
F7 F 0.1546(9) 1.0713(8) -0.1135(6)
F8 F 0.1634(10) 1.1191(6) -0.0496(7)
F9 F 0.2527(6) 1.0251(8) -0.1070(7)
S4 S -0.5572(3) 1.8485(3) 0.4955(3)
O34 O -0.5809(8) 1.8065(6) 0.5327(7)
O35 O -0.5578(9) 1.8934(6) 0.5322(7)
O36 O -0.4894(5) 1.8140(7) 0.4348(5)
C124 C -0.6276(5) 1.8984(5) 0.4744(5)
F10 F -0.6292(8) 1.8607(7) 0.4388(7)
F11 F -0.6931(5) 1.9309(7) 0.5261(6)
F12 F -0.6113(8) 1.9392(7) 0.4407(7)
S5 S -0.5745(4) 1.3871(3) 0.6723(3)
O37 O -0.5521(8) 1.3493(7) 0.7141(6)
O38 O -0.6503(5) 1.4384(6) 0.7026(7)
O39 O -0.5221(7) 1.4071(7) 0.6298(6)
C125 C -0.5648(8) 1.3316(6) 0.6164(6)
F13 F -0.5772(14) 1.3619(9) 0.5728(8)
F14 F -0.4972(7) 1.2798(7) 0.5889(8)
F15 F -0.6130(9) 1.3127(8) 0.6472(8)
O40 O -0.5019(5) 1.9288(4) 0.5320(4)
O41 O -0.0703(5) 1.0784(4) 0.0676(4)
O42 O -0.1023(7) 1.0343(6) 0.5833(6)
O43 O -0.3063(10) 0.4433(9) 0.5257(9)
O44 O -0.5499(10) 1.5144(9) 0.5796(9)
O45 O -0.5217(10) 1.7121(8) 0.4933(8)
O46 O -0.0276(6) 0.8348(5) 0.5581(5)
O47 O 0.8027(4) 0.5381(4) 0.0494(4)
O48 O 0.1530(7) 0.4813(6) 0.2046(6)
C126 C 0.0910(8) 0.5332(7) 0.2265(7)
Tb1 Tb 0.364666(16) 0.844846(14) 0.197401(14)
O1 O 0.2555(3) 0.8721(3) 0.2005(3)
O2 O 0.2969(3) 0.9608(2) 0.2208(3)
O3 O 0.3855(3) 0.8688(3) 0.0954(2)
O4 O 0.4544(3) 0.8741(3) 0.1613(2)
O5 O 0.4053(3) 0.7497(2) 0.1304(2)
O6 O 0.3426(3) 0.8800(3) 0.2979(3)
O7 O 0.4665(3) 0.7606(2) 0.2034(3)
O8 O 0.3114(3) 0.7906(2) 0.2710(2)
N1 N 0.2157(3) 0.8443(3) 0.2250(3)
N2 N 0.2316(3) 0.9990(3) 0.2243(3)
N3 N 0.3704(4) 0.8479(3) 0.0581(3)
N4 N 0.4668(3) 0.9089(3) 0.1173(3)
N5 N 0.4491(3) 0.6907(3) 0.1343(3)
C1 C 0.2349(4) 0.7904(4) 0.1909(4)
C2 C 0.1559(4) 0.8705(4) 0.2848(4)
C3 C 0.2297(4) 1.0186(4) 0.1723(4)
C4 C 0.1693(4) 1.0154(3) 0.2805(4)
C5 C 0.2990(5) 0.8801(4) 0.0706(4)
C6 C 0.4230(4) 0.7959(4) 0.0110(4)
C7 C 0.4275(5) 0.9736(4) 0.1343(3)
C8 C 0.5185(5) 0.8782(4) 0.0569(4)
C9 C 0.4192(4) 0.6599(4) 0.1764(4)
C10 C 0.5226(4) 0.6641(3) 0.0984(4)
H1 H 0.2772 0.7724 0.1493
C11 C 0.1935(5) 0.7610(4) 0.2160(4)
C12 C 0.1134(5) 0.8425(4) 0.3116(4)
H2 H 0.1433 0.9084 0.3084
H3 H 0.2742 1.0082 0.1340
C13 C 0.1632(4) 1.0541(4) 0.1740(4)
C14 C 0.1011(4) 1.0525(4) 0.2849(4)
H4 H 0.1721 1.0016 0.3171
H5 H 0.2621 0.9166 0.1047
C15 C 0.2812(5) 0.8593(4) 0.0337(4)
C16 C 0.4053(5) 0.7744(5) -0.0262(4)
H6 H 0.4720 0.7738 0.0030
H7 H 0.3912 0.9941 0.1777
C17 C 0.4396(6) 1.0110(4) 0.0884(4)
C18 C 0.5322(6) 0.9139(5) 0.0098(4)
H8 H 0.5458 0.8324 0.0460
H9 H 0.3675 0.6774 0.1988
C19 C 0.4642(4) 0.6033(3) 0.1864(4)
C20 C 0.5700(4) 0.6064(3) 0.1061(4)
H10 H 0.5422 0.6853 0.0671
H11 H 0.2073 0.7232 0.1913
C21 C 0.1314(4) 0.7864(4) 0.2774(4)
H12 H 0.0717 0.8612 0.3534
H13 H 0.1623 1.0673 0.1367
C22 C 0.0974(4) 1.0705(3) 0.2305(3)
H14 H 0.0572 1.0656 0.3249
H15 H 0.2323 0.8827 0.0415
C23 C 0.3345(4) 0.8041(4) -0.0152(4)
H16 H 0.4433 0.7381 -0.0603
H17 H 0.4118 1.0567 0.1006
C24 C 0.4925(4) 0.9810(4) 0.0247(4)
H18 H 0.5693 0.8920 -0.0331
H19 H 0.4430 0.5820 0.2164
C25 C 0.5405(4) 0.5761(3) 0.1535(3)
H20 H 0.6218 0.5874 0.0796
C26 C 0.0842(4) 0.7574(4) 0.3059(4)
C27 C 0.0261(4) 1.1043(3) 0.2332(4)
C28 C 0.3128(4) 0.7805(4) -0.0513(3)
C29 C 0.5879(4) 0.5215(3) 0.1710(4)
C30 C 0.1054(5) 0.6974(4) 0.2779(5)
C31 C 0.0163(5) 0.7900(5) 0.3610(4)
C32 C 0.0171(5) 1.0891(4) 0.1856(4)
C33 C -0.0376(4) 1.1506(4) 0.2881(4)
C34 C 0.2445(4) 0.8199(4) -0.0468(4)
C35 C 0.3578(5) 0.7191(4) -0.0899(4)
C36 C 0.6585(5) 0.4748(4) 0.1263(4)
C37 C 0.5660(5) 0.5190(4) 0.2348(4)
C38 C 0.0586(5) 0.6734(4) 0.3032(5)
H21 H 0.1526 0.6726 0.2409
H22 H 0.0012 0.8305 0.3818
C39 C -0.0299(5) 0.7662(5) 0.3868(4)
C40 C -0.0514(5) 1.1164(4) 0.1932(4)
H23 H 0.0590 1.0594 0.1473
H24 H -0.0334 1.1636 0.3210
C41 C -0.1065(4) 1.1772(4) 0.2942(4)
C42 C 0.2218(5) 0.7970(4) -0.0778(4)
H25 H 0.2133 0.8628 -0.0223
H26 H 0.4056 0.6920 -0.0957
C43 C 0.3336(5) 0.6969(4) -0.1201(4)
C44 C 0.7048(5) 0.4281(3) 0.1451(4)
H27 H 0.6756 0.4745 0.0822
H28 H 0.5178 0.5504 0.2670
C45 C 0.6127(5) 0.4718(4) 0.2522(4)
N6 N -0.0080(4) 0.7075(3) 0.3566(3)
H29 H 0.0733 0.6327 0.2831
H30 H -0.0763 0.7898 0.4248
N7 N -0.1119(3) 1.1583(3) 0.2473(3)
H31 H -0.0564 1.1057 0.1598
H32 H -0.1494 1.2084 0.3312
N8 N 0.2661(3) 0.7361(3) -0.1128(3)
H33 H 0.1752 0.8240 -0.0744
H34 H 0.3643 0.6546 -0.1456
N9 N 0.6811(4) 0.4274(3) 0.2078(3)
H35 H 0.7533 0.3963 0.1138
H36 H 0.5963 0.4707 0.2960
O9 O -0.0540(3) 0.6852(3) 0.3798(3)
O10 O -0.1787(3) 1.1811(2) 0.2554(3)
O11 O 0.2417(3) 0.7146(3) -0.1395(2)
O12 O 0.7268(3) 0.3844(2) 0.2246(3)
Tb2 Tb -0.147323(16) 0.713945(14) 0.354270(14)
Tb3 Tb -0.256927(17) 1.281408(14) 0.241744(14)
O13 O -0.1162(3) 0.6107(2) 0.3781(2)
O14 O -0.2178(3) 0.7334(2) 0.4693(2)
O15 O -0.2059(3) 0.7911(3) 0.3044(3)
O16 O -0.1753(3) 0.8164(2) 0.3934(2)
O17 O -0.2515(3) 0.7088(3) 0.3796(3)
O18 O -0.0507(3) 0.7197(3) 0.2679(2)
O19 O -0.1099(3) 0.6475(3) 0.2613(3)
O20 O -0.2825(3) 1.2040(2) 0.2204(3)
O21 O -0.2283(3) 1.3118(2) 0.3107(2)
O22 O -0.3349(3) 1.2765(3) 0.3450(2)
O23 O -0.3806(3) 1.3473(3) 0.2619(3)
O24 O -0.1347(3) 1.2602(3) 0.1754(2)
N10 N -0.0845(3) 0.5820(3) 0.4120(3)
N11 N -0.2358(4) 0.7825(3) 0.5079(3)
N12 N -0.2506(4) 0.7917(3) 0.2871(3)
N13 N -0.1910(4) 0.8692(3) 0.3693(3)
N14 N -0.2956(4) 0.6976(3) 0.4315(3)
N15 N -0.0318(3) 0.7178(3) 0.2065(3)
N16 N -0.2697(4) 1.1498(3) 0.2420(3)
N17 N -0.2083(4) 1.3557(3) 0.3034(3)
N18 N -0.3258(3) 1.2693(3) 0.3955(3)
N19 N -0.4381(3) 1.3448(3) 0.3082(3)
N20 N 0.1051(3) 0.7342(3) -0.1152(3)
C46 C -0.0112(5) 0.5421(5) 0.3819(4)
C47 C -0.1261(5) 0.5930(4) 0.4760(4)
C48 C -0.1872(4) 0.7785(4) 0.5234(3)
C49 C -0.3042(5) 0.8364(4) 0.5323(4)
C50 C -0.3242(5) 0.8257(4) 0.3278(5)
C51 C -0.2215(4) 0.7576(4) 0.2286(4)
C52 C -0.1358(4) 0.8760(3) 0.3216(4)
C53 C -0.2612(4) 0.9149(4) 0.3901(4)
C54 C -0.3618(5) 0.7495(5) 0.4751(4)
C55 C -0.2762(4) 0.6364(4) 0.4399(4)
C56 C -0.0671(4) 0.7723(4) 0.1891(4)
C57 C 0.0239(5) 0.6617(5) 0.1627(4)
C58 C -0.3198(4) 1.1507(4) 0.3007(4)
C59 C -0.2063(5) 1.0939(4) 0.2055(4)
C60 C -0.1362(4) 1.3373(4) 0.2652(4)
C61 C -0.2605(5) 1.4172(4) 0.3335(4)
C62 C -0.2843(4) 1.2087(4) 0.4008(3)
C63 C -0.3572(5) 1.3207(4) 0.4390(4)
C64 C -0.4534(4) 1.3017(4) 0.2972(4)
C65 C -0.4806(4) 1.3861(4) 0.3660(4)
C66 C 0.1089(5) 0.6781(4) -0.1013(4)
C67 C 0.0725(4) 0.7851(4) -0.0693(3)
H37 H 0.0175 0.5367 0.3371
C68 C 0.0225(5) 0.5093(5) 0.4151(4)
C69 C -0.0920(4) 0.5611(4) 0.5107(4)
H38 H -0.1778 0.6221 0.4971
H39 H -0.1417 0.7391 0.5095
C70 C -0.2036(4) 0.8316(4) 0.5595(3)
C71 C -0.3213(5) 0.8891(4) 0.5689(4)
H40 H -0.3395 0.8376 0.5241
H41 H -0.3437 0.8508 0.3675
C72 C -0.3711(5) 0.8239(4) 0.3117(4)
C73 C -0.2680(4) 0.7555(4) 0.2116(4)
H42 H -0.1699 0.7355 0.1996
H43 H -0.0860 0.8430 0.3064
C74 C -0.1506(4) 0.9295(3) 0.2954(4)
C75 C -0.2791(5) 0.9703(4) 0.3659(5)
H44 H -0.2995 0.9091 0.4223
H45 H -0.3742 0.7921 0.4683
C76 C -0.4102(5) 0.7395(5) 0.5291(5)
C77 C -0.3249(5) 0.6246(4) 0.4919(4)
H46 H -0.2292 0.6014 0.4100
H47 H -0.1078 0.8100 0.2208
C78 C -0.0440(5) 0.7734(4) 0.1253(4)
C79 C 0.0478(5) 0.6623(4) 0.0994(4)
H48 H 0.0457 0.6229 0.1759
H49 H -0.3649 1.1899 0.3256
C80 C -0.3055(5) 1.0948(4) 0.3242(4)
C81 C -0.1910(5) 1.0371(4) 0.2285(4)
H50 H -0.1720 1.0934 0.1639
H51 H -0.1001 1.2933 0.2447
C82 C -0.1156(5) 1.3834(4) 0.2563(4)
C83 C -0.2412(5) 1.4636(4) 0.3252(4)
H52 H -0.3105 1.4287 0.3604
H53 H -0.2599 1.1727 0.3679
C84 C -0.2775(4) 1.1995(4) 0.4546(4)
C85 C -0.3527(6) 1.3142(5) 0.4944(4)
H54 H -0.3832 1.3626 0.4325
H55 H -0.4263 1.2762 0.2556
C86 C -0.5095(5) 1.2945(4) 0.3474(4)
C87 C -0.5372(4) 1.3808(4) 0.4160(4)
H56 H -0.4712 1.4184 0.3720
H57 H 0.1322 0.6429 -0.1347
C88 C 0.0788(5) 0.6716(4) -0.0385(4)
C89 C 0.0423(5) 0.7798(4) -0.0061(4)
H58 H 0.0702 0.8243 -0.0802
H59 H 0.0743 0.4805 0.3928
C90 C -0.0180(4) 0.5173(4) 0.4813(4)
H60 H -0.1208 0.5700 0.5560
H61 H -0.1685 0.8291 0.5688
C91 C -0.2712(5) 0.8884(4) 0.5820(4)
H62 H -0.3687 0.9268 0.5855
H63 H -0.4227 0.8479 0.3408
C92 C -0.3443(4) 0.7875(4) 0.2536(4)
H64 H -0.2477 0.7320 0.1708
H65 H -0.1109 0.9334 0.2627
C93 C -0.2223(5) 0.9782(4) 0.3155(4)
H66 H -0.3293 1.0031 0.3827
H67 H -0.4552 0.7755 0.5601
C94 C -0.3937(5) 0.6764(5) 0.5386(4)
H68 H -0.3120 0.5814 0.4964
H69 H -0.0691 0.8118 0.1132
C95 C 0.0157(4) 0.7186(4) 0.0790(3)
H70 H 0.0872 0.6235 0.0686
H71 H -0.3413 1.0960 0.3653
C96 C -0.2399(4) 1.0366(4) 0.2891(4)
H72 H -0.1464 0.9981 0.2023
H73 H -0.0653 1.3709 0.2299
C97 C -0.1686(5) 1.4481(4) 0.2859(4)
H74 H -0.2783 1.5071 0.3468
H75 H -0.2492 1.1572 0.4589
C98 C -0.3121(4) 1.2522(4) 0.5023(3)
H76 H -0.3767 1.3511 0.5260
H77 H -0.5187 1.2625 0.3402
C99 C -0.5509(4) 1.3330(5) 0.4064(4)
H78 H -0.5666 1.4091 0.4563
H79 H 0.0805 0.6322 -0.0287
C100 C 0.0456(4) 0.7229(4) 0.0108(3)
H80 H 0.0188 0.8159 0.0263
C101 C -0.2896(5) 0.9490(4) 0.6167(4)
C102 C -0.3933(4) 0.7812(4) 0.2388(4)
C103 C -0.1488(5) 1.4983(4) 0.2751(4)
C104 C -0.3098(4) 1.2423(4) 0.5618(3)
C105 C -0.3578(5) 0.9871(4) 0.6693(4)
C106 C -0.2381(5) 0.9678(4) 0.5953(4)
C107 C -0.3739(4) 0.7619(4) 0.1763(4)
C108 C -0.4619(5) 0.7946(4) 0.2882(4)
C109 C -0.0818(5) 1.4877(4) 0.2629(4)
C110 C -0.2016(5) 1.5609(4) 0.2791(4)
C111 C -0.3697(4) 1.2845(4) 0.6192(3)
C112 C -0.2501(4) 1.1901(4) 0.5631(3)
C113 C -0.3753(5) 1.0453(4) 0.6986(4)
H81 H -0.3931 0.9740 0.6858
H82 H -0.1899 0.9411 0.5602
C114 C -0.2570(5) 1.0259(4) 0.6251(4)
C115 C -0.4231(4) 0.7563(4) 0.1660(4)
H83 H -0.3274 0.7526 0.1414
H84 H -0.4772 0.8100 0.3306
C116 C -0.5095(5) 0.7858(4) 0.2765(4)
C117 C -0.0685(5) 1.5383(4) 0.2576(4)
H85 H -0.0443 1.4453 0.2582
H86 H -0.2475 1.5694 0.2857
C118 C -0.1870(5) 1.6103(4) 0.2735(5)
C119 C -0.3692(4) 1.2720(4) 0.6755(3)
H87 H -0.4106 1.3215 0.6199
H88 H -0.2081 1.1612 0.5243
C120 C -0.2513(4) 1.1801(4) 0.6194(3)
N21 N -0.3245(4) 1.0634(3) 0.6754(3)
H89 H -0.4227 1.0720 0.7346
H90 H -0.2219 1.0392 0.6098
N22 N -0.4881(3) 0.7676(3) 0.2146(3)
H91 H -0.4103 0.7444 0.1236
H92 H -0.5552 0.7924 0.3107
N23 N -0.1209(4) 1.5988(3) 0.2630(3)
H93 H -0.0226 1.5303 0.2501
H94 H -0.2234 1.6529 0.2770
N24 N -0.3104(3) 1.2202(3) 0.6745(3)
H95 H -0.4104 1.3001 0.7150
H96 H -0.2100 1.1445 0.6195
C24A C 0.5075(4) 1.0190(4) -0.0247(4)
C17A C 0.5604(6) 0.9890(4) -0.0884(4)
C18A C 0.4678(6) 1.0861(5) -0.0098(4)
C7A C 0.5725(5) 1.0264(4) -0.1343(3)
H17A H 0.5882 0.9433 -0.1006
H18A H 0.4307 1.1080 0.0331
C8A C 0.4815(5) 1.1218(4) -0.0569(4)
N4A N 0.5332(3) 1.0911(3) -0.1173(3)
H7A H 0.6088 1.0059 -0.1777
H8A H 0.4542 1.1676 -0.0460
O4A O 0.5456(3) 1.1259(3) -0.1613(2)
Tb3A Tb 0.256927(17) 0.718592(14) -0.241744(14)
Tb1A Tb 0.635334(16) 1.155154(14) -0.197401(14)
Tb3_2 Tb 0.743073(17) 0.281408(14) 0.241744(14)
O11A O -0.2417(3) 1.2854(3) 0.1395(2)
O12_2 O -0.2732(3) 1.3844(2) 0.2246(3)
O24A O 0.1347(3) 0.7398(3) -0.1754(2)
C90A C 0.0180(4) 0.4827(4) 0.5187(4)
C99A C -0.4491(4) 0.6670(5) 0.5936(4)
C94A C -0.6063(5) 1.3236(5) 0.4614(4)
C68A C -0.0225(5) 0.4907(5) 0.5849(4)
C69A C 0.0920(4) 0.4389(4) 0.4893(4)
C86A C -0.4905(5) 0.7055(4) 0.6526(4)
C87A C -0.4628(4) 0.6192(4) 0.5840(4)
C76A C -0.5898(5) 1.2605(5) 0.4709(5)
C77A C -0.6751(5) 1.3754(4) 0.5081(4)
C46A C 0.0112(5) 0.4579(5) 0.6181(4)
H59A H -0.0743 0.5195 0.6072
H60A H 0.1208 0.4300 0.4440
C47A C 0.1261(5) 0.4070(4) 0.5240(4)
C64A C -0.5466(4) 0.6983(4) 0.7028(4)
H77A H -0.4813 0.7375 0.6598
H78A H -0.4334 0.5909 0.5437
C65A C -0.5194(4) 0.6139(4) 0.6340(4)
C54A C -0.6382(5) 1.2505(5) 0.5249(4)
H67A H -0.5448 1.2245 0.4399
H68A H -0.6880 1.4186 0.5036
C55A C -0.7238(4) 1.3636(4) 0.5601(4)
N10A N 0.0845(3) 0.4180(3) 0.5880(3)
H37A H -0.0175 0.4633 0.6629
H38A H 0.1778 0.3779 0.5029
H55A H -0.5737 0.7238 0.7444
N19A N -0.5619(3) 0.6552(3) 0.6918(3)
H56A H -0.5288 0.5816 0.6280
N14A N -0.7044(4) 1.3024(3) 0.5685(3)
H45A H -0.6258 1.2079 0.5317
H46A H -0.7708 1.3986 0.5900
O13A O 0.1162(3) 0.3893(2) 0.6219(2)
O6A O -0.3426(3) 1.1200(3) 0.7021(3)
O7_2 O -0.5335(3) 0.7606(2) 0.2034(3)
O23A O -0.6194(3) 0.6527(3) 0.7381(3)
O19_2 O -0.1099(3) 1.6475(3) 0.2613(3)
O8A O -0.3114(3) 1.2094(2) 0.7290(2)
O17A O -0.7485(3) 1.2912(3) 0.6204(3)
Tb2A Tb 0.147323(16) 0.286055(14) 0.645730(14)
Tb1A_2 Tb -0.364666(16) 1.155154(14) 0.802599(14)
Tb1_2 Tb -0.635334(16) 0.844846(14) 0.197401(14)
Tb3A_2 Tb -0.743073(17) 0.718592(14) 0.758256(14)
Tb2_2 Tb -0.147323(16) 1.713945(14) 0.354270(14)
Tb2A_2 Tb -0.852677(16) 1.286055(14) 0.645730(14)
O7A O -0.4665(3) 1.2394(2) 0.7966(3)
O6_2 O -0.6574(3) 0.8800(3) 0.2979(3)
O8_2 O -0.6886(3) 0.7906(2) 0.2710(2)
O10A O -0.8213(3) 0.8189(2) 0.7446(3)
O20A O -0.7175(3) 0.7960(2) 0.7796(3)
O21A O -0.7717(3) 0.6882(2) 0.6893(2)
O22A O -0.6651(3) 0.7235(3) 0.6550(2)
O11_2 O -0.7583(3) 0.7146(3) 0.8605(2)
O12A O -0.7268(3) 0.6156(2) 0.7754(3)
O24A_2 O -0.8653(3) 0.7398(3) 0.8246(2)
O9A O -0.9460(3) 1.3148(3) 0.6202(3)
O14A O -0.7822(3) 1.2666(2) 0.5307(2)
O15A O -0.7941(3) 1.2089(3) 0.6956(3)
O16A O -0.8247(3) 1.1836(2) 0.6066(2)
O18A O -0.9493(3) 1.2803(3) 0.7321(2)
O13A_2 O -0.8838(3) 1.3893(2) 0.6219(2)
O19A O -0.8901(3) 1.3525(3) 0.7387(3)
N22A N -0.5119(3) 1.2324(3) 0.7854(3)
N21A N -0.6755(4) 0.9366(3) 0.3246(3)
N24A N -0.6896(3) 0.7798(3) 0.3255(3)
N7A N -0.8881(3) 0.8417(3) 0.7527(3)
N16A N -0.7303(4) 0.8502(3) 0.7580(3)
N17A N -0.7917(4) 0.6443(3) 0.6966(3)
N18A N -0.6742(3) 0.7307(3) 0.6045(3)
N6A N -0.9920(4) 1.2925(3) 0.6434(3)
N11A N -0.7642(4) 1.2175(3) 0.4921(3)
N12A N -0.7494(4) 1.2083(3) 0.7129(3)
N13A N -0.8090(4) 1.1308(3) 0.6307(3)
N15A N -0.9682(3) 1.2822(3) 0.7935(3)
C115A C -0.5769(4) 1.2437(4) 0.8340(4)
C116A C -0.4905(5) 1.2142(4) 0.7235(4)
C113A C -0.6247(5) 0.9547(4) 0.3014(4)
C114A C -0.7430(5) 0.9741(4) 0.3749(4)
C119A C -0.6308(4) 0.7280(4) 0.3245(3)
C120A C -0.7487(4) 0.8199(4) 0.3806(3)
C40A C -0.9486(5) 0.8836(4) 0.8068(4)
C41A C -0.8935(4) 0.8228(4) 0.7058(4)
C58A C -0.6802(4) 0.8493(4) 0.6993(4)
C59A C -0.7937(5) 0.9061(4) 0.7945(4)
C60A C -0.8638(4) 0.6627(4) 0.7348(4)
C61A C -0.7395(5) 0.5828(4) 0.6665(4)
C62A C -0.7157(4) 0.7913(4) 0.5992(3)
C63A C -0.6428(5) 0.6793(4) 0.5610(4)
C38A C -1.0586(5) 1.3266(4) 0.6968(5)
C39A C -0.9701(5) 1.2338(5) 0.6132(4)
C48A C -0.8128(4) 1.2215(4) 0.4766(3)
C49A C -0.6958(5) 1.1636(4) 0.4677(4)
C50A C -0.6758(5) 1.1743(4) 0.6722(5)
C51A C -0.7785(4) 1.2424(4) 0.7714(4)
C52A C -0.8642(4) 1.1240(3) 0.6784(4)
C53A C -0.7388(4) 1.0851(4) 0.6099(4)
C56A C -0.9329(4) 1.2277(4) 0.8109(4)
C57A C -1.0239(5) 1.3383(5) 0.8373(4)
H91A H -0.5897 1.2556 0.8764
C107A C -0.6261(4) 1.2381(4) 0.8237(4)
C108A C -0.5381(5) 1.2054(4) 0.7118(4)
H92A H -0.4448 1.2076 0.6893
H89A H -0.5773 0.9280 0.2654
C105A C -0.6422(5) 1.0129(4) 0.3307(4)
C106A C -0.7619(5) 1.0322(4) 0.4047(4)
H90A H -0.7781 0.9608 0.3902
H95A H -0.5896 0.6999 0.2850
C111A C -0.6303(4) 0.7155(4) 0.3808(3)
C112A C -0.7499(4) 0.8099(4) 0.4369(3)
H96A H -0.7900 0.8555 0.3805
H31A H -0.9436 0.8943 0.8402
C32A C -1.0171(5) 0.9109(4) 0.8144(4)
C33A C -0.9624(4) 0.8494(4) 0.7119(4)
H32A H -0.8506 0.7916 0.6688
H49A H -0.6351 0.8101 0.6744
C80A C -0.6945(5) 0.9052(4) 0.6758(4)
C81A C -0.8090(5) 0.9629(4) 0.7715(4)
H50A H -0.8280 0.9066 0.8361
H51A H -0.8999 0.7067 0.7553
C82A C -0.8844(5) 0.6166(4) 0.7437(4)
C83A C -0.7588(5) 0.5364(4) 0.6748(4)
H52A H -0.6895 0.5713 0.6396
H53A H -0.7401 0.8273 0.6321
C84A C -0.7225(4) 0.8005(4) 0.5454(4)
C85A C -0.6473(6) 0.6858(5) 0.5056(4)
H54A H -0.6168 0.6374 0.5675
H29A H -1.0733 1.3673 0.7169
C30A C -1.1054(5) 1.3026(4) 0.7221(5)
C31A C -1.0163(5) 1.2100(5) 0.6390(4)
H30A H -0.9237 1.2102 0.5752
H39A H -0.8583 1.2609 0.4905
C70A C -0.7964(4) 1.1684(4) 0.4405(3)
C71A C -0.6787(5) 1.1109(4) 0.4311(4)
H40A H -0.6605 1.1624 0.4759
H41A H -0.6563 1.1492 0.6325
C72A C -0.6289(5) 1.1761(4) 0.6883(4)
C73A C -0.7320(4) 1.2445(4) 0.7884(4)
H42A H -0.8301 1.2645 0.8004
H43A H -0.9140 1.1570 0.6936
C74A C -0.8494(4) 1.0705(3) 0.7046(4)
C75A C -0.7209(5) 1.0297(4) 0.6341(5)
H44A H -0.7005 1.0909 0.5777
H47A H -0.8922 1.1900 0.7792
C78A C -0.9560(5) 1.2266(4) 0.8747(4)
C79A C -1.0478(5) 1.3377(4) 0.9006(4)
H48A H -1.0457 1.3771 0.8241
H83A H -0.6726 1.2474 0.8586
C102A C -0.6067(4) 1.2188(4) 0.7612(4)
H84A H -0.5228 1.1900 0.6694
H81A H -0.6069 1.0260 0.3142
C101A C -0.7104(5) 1.0510(4) 0.3833(4)
H82A H -0.8101 1.0589 0.4398
H87A H -0.5894 0.6785 0.3801
C104A C -0.6902(4) 0.7577(4) 0.4382(3)
H88A H -0.7919 0.8388 0.4757
H23A H -1.0590 0.9406 0.8527
C27A C -1.0261(4) 0.8957(3) 0.7668(4)
H24A H -0.9666 0.8364 0.6790
H71A H -0.6587 0.9040 0.6347
C96A C -0.7601(4) 0.9634(4) 0.7109(4)
H72A H -0.8536 1.0019 0.7977
H73A H -0.9347 0.6291 0.7701
C97A C -0.8314(5) 0.5519(4) 0.7141(4)
H74A H -0.7217 0.4929 0.6532
H75A H -0.7508 0.8428 0.5411
C98A C -0.6879(4) 0.7478(4) 0.4977(3)
H76A H -0.6233 0.6489 0.4740
H21A H -1.1526 1.3274 0.7591
C26A C -1.0842(4) 1.2426(4) 0.6941(4)
H22A H -1.0012 1.1695 0.6182
H61A H -0.8315 1.1709 0.4312
C91A C -0.7288(5) 1.1116(4) 0.4180(4)
H62A H -0.6313 1.0732 0.4145
H63A H -0.5773 1.1521 0.6592
C92A C -0.6557(4) 1.2125(4) 0.7464(4)
H64A H -0.7523 1.2680 0.8292
H65A H -0.8891 1.0666 0.7373
C93A C -0.7777(5) 1.0218(4) 0.6845(4)
H66A H -0.6707 0.9969 0.6173
H69A H -0.9309 1.1882 0.8868
C95A C -1.0157(4) 1.2814(4) 0.9210(3)
H70A H -1.0872 1.3765 0.9314
C22A C -1.0974(4) 0.9295(3) 0.7695(3)
C103A C -0.8512(5) 0.5017(4) 0.7249(4)
C21A C -1.1314(4) 1.2136(4) 0.7226(4)
C100A C -1.0456(4) 1.2771(4) 0.9892(3)
C13A C -1.1632(4) 0.9459(4) 0.8260(4)
C14A C -1.1011(4) 0.9475(4) 0.7151(4)
C109A C -0.9182(5) 0.5123(4) 0.7371(4)
C110A C -0.7984(5) 0.4391(4) 0.7209(4)
C11A C -1.1935(5) 1.2390(4) 0.7840(4)
C12A C -1.1134(5) 1.1575(4) 0.6884(4)
C88A C -1.0788(5) 1.3284(4) 1.0385(4)
C89A C -1.0423(5) 1.2202(4) 1.0061(4)
C3A C -1.2297(4) 0.9814(4) 0.8277(4)
H13A H -1.1623 0.9327 0.8633
H14A H -1.0572 0.9344 0.6751
C4A C -1.1693(4) 0.9846(3) 0.7195(4)
C117A C -0.9315(5) 0.4617(4) 0.7424(4)
H85A H -0.9557 0.5547 0.7418
H86A H -0.7525 0.4306 0.7143
C118A C -0.8130(5) 0.3897(4) 0.7265(5)
C1A C -1.2349(4) 1.2096(4) 0.8091(4)
H11A H -1.2073 1.2768 0.8087
H12A H -1.0717 1.1388 0.6466
C2A C -1.1559(4) 1.1295(4) 0.7152(4)
C66A C -1.1089(5) 1.3219(4) 1.1013(4)
H79A H -1.0805 1.3678 1.0287
H80A H -1.0188 1.1841 0.9737
C67A C -1.0725(4) 1.2149(4) 1.0693(3)
N2A N -1.2316(3) 1.0010(3) 0.7757(3)
H3A H -1.2742 0.9918 0.8660
H4A H -1.1721 0.9984 0.6829
N23A N -0.8791(4) 0.4012(3) 0.7370(3)
H93A H -0.9774 0.4697 0.7499
H94A H -0.7766 0.3471 0.7230
N1A N -1.2157(3) 1.1557(3) 0.7750(3)
H1A H -1.2772 1.2276 0.8507
H2A H -1.1433 1.0916 0.6916
N20A N -1.1051(3) 1.2658(3) 1.1152(3)
H57A H -1.1322 1.3571 1.1347
H58A H -1.0702 1.1757 1.0802
O2A O -1.2969(3) 1.0392(2) 0.7792(3)
O19A_2 O -0.8901(3) 0.3525(3) 0.7387(3)
O1A O -1.2555(3) 1.1279(3) 0.7995(3)
O24_2 O -1.1347(3) 1.2602(3) 1.1754(2)
Tb1A_3 Tb -1.364666(16) 1.155154(14) 0.802599(14)
Tb2A_3 Tb -0.852677(16) 0.286055(14) 0.645730(14)
Tb3_3 Tb -1.256927(17) 1.281408(14) 1.241744(14)
O3A O -1.3855(3) 1.1312(3) 0.9046(2)
O5A O -1.4053(3) 1.2503(2) 0.8696(2)
O4A_2 O -1.4544(3) 1.1259(3) 0.8387(2)
O6A_2 O -1.3426(3) 1.1200(3) 0.7021(3)
O7A_2 O -1.4665(3) 1.2394(2) 0.7966(3)
O8A_2 O -1.3114(3) 1.2094(2) 0.7290(2)
O11A_2 O -1.2417(3) 1.2854(3) 1.1395(2)
N3A N -1.3704(4) 1.1521(3) 0.9419(3)
N5A N -1.4491(3) 1.3093(3) 0.8657(3)
N8A N -1.2661(3) 1.2639(3) 1.1128(3)
C5A C -1.2990(5) 1.1199(4) 0.9294(4)
C6A C -1.4230(4) 1.2041(4) 0.9890(4)
C9A C -1.4192(4) 1.3401(4) 0.8236(4)
C10A C -1.5226(4) 1.3359(3) 0.9016(4)
C42A C -1.2218(5) 1.2030(4) 1.0778(4)
C43A C -1.3336(5) 1.3031(4) 1.1201(4)
H5A H -1.2621 1.0834 0.8953
C15A C -1.2812(5) 1.1407(4) 0.9663(4)
C16A C -1.4053(5) 1.2256(5) 1.0262(4)
H6A H -1.4720 1.2262 0.9970
H9A H -1.3675 1.3226 0.8012
C19A C -1.4642(4) 1.3967(3) 0.8136(4)
C20A C -1.5700(4) 1.3936(3) 0.8939(4)
H10A H -1.5422 1.3147 0.9329
H33A H -1.1752 1.1760 1.0744
C34A C -1.2445(4) 1.1801(4) 1.0468(4)
C35A C -1.3578(5) 1.2809(4) 1.0899(4)
H34A H -1.3643 1.3454 1.1456
H15A H -1.2323 1.1173 0.9585
C23A C -1.3345(4) 1.1959(4) 1.0152(4)
H16A H -1.4433 1.2619 1.0603
H19A H -1.4430 1.4180 0.7836
C25A C -1.5405(4) 1.4239(3) 0.8465(3)
H20A H -1.6218 1.4126 0.9204
H25A H -1.2133 1.1372 1.0223
C28A C -1.3128(4) 1.2195(4) 1.0513(3)
H26A H -1.4056 1.3080 1.0957
C29A C -1.5879(4) 1.4785(3) 0.8290(4)
C36A C -1.6585(5) 1.5252(4) 0.8737(4)
C37A C -1.5660(5) 1.4810(4) 0.7652(4)
C44A C -1.7048(5) 1.5719(3) 0.8549(4)
H27A H -1.6756 1.5255 0.9178
H28A H -1.5178 1.4496 0.7330
C45A C -1.6127(5) 1.5282(4) 0.7478(4)
N9A N -1.6811(4) 1.5726(3) 0.7922(3)
H35A H -1.7533 1.6037 0.8862
H36A H -1.5963 1.5293 0.7040
O12A_2 O -1.7268(3) 1.6156(2) 0.7754(3)
Tb3A_3 Tb -1.743073(17) 1.718592(14) 0.758256(14)
S6? S -0.1115(4) 0.9854(3) 0.4413(3)
O49? O -0.1745(8) 1.0430(6) 0.4901(6)
O50? O -0.1297(10) 0.9376(7) 0.4361(8)
O51? O -0.0455(8) 0.9598(10) 0.4445(9)
C127? C -0.0916(7) 1.0139(6) 0.3662(5)
F16? F -0.1535(8) 1.0453(8) 0.3644(7)
F17? F -0.0416(8) 0.9640(6) 0.3183(5)
F18? F -0.0679(10) 1.0535(7) 0.3643(7)
S7? S -0.5592(4) 1.9299(4) 0.4552(4)
O52? O -0.5027(8) 1.8641(6) 0.4478(11)
O53? O -0.5774(11) 1.9749(10) 0.5058(9)
O54? O -0.5432(11) 1.9519(12) 0.3955(8)
C128? C -0.6419(6) 1.9267(6) 0.4805(6)
F19? F -0.6595(11) 1.9035(11) 0.5332(8)
F20? F -0.6317(8) 1.8893(8) 0.4353(8)
F21? F -0.6981(6) 1.9852(6) 0.4916(8)
O55? O -0.4230(5) 1.9023(5) 0.4840(5)
loop_
_geom_bond_atom_site_label_1
_geom_bond_atom_site_label_2
_geom_bond_site_symmetry_1
_geom_bond_site_symmetry_2
Tb1 O1 1_555 1_555
O1 N1 1_555 1_555
O2 Tb1 1_555 1_555
O3 Tb1 1_555 1_555
O4 Tb1 1_555 1_555
O5 Tb1 1_555 1_555
O6 Tb1 1_555 1_555
O7 Tb1 1_555 1_555
O8 Tb1 1_555 1_555
N1 C1 1_555 1_555
N2 O2 1_555 1_555
N3 O3 1_555 1_555
N4 O4 1_555 1_555
N5 O5 1_555 1_555
C1 H1 1_555 1_555
C2 N1 1_555 1_555
C3 N2 1_555 1_555
C4 N2 1_555 1_555
C5 N3 1_555 1_555
C6 N3 1_555 1_555
C7 N4 1_555 1_555
C8 N4 1_555 1_555
C9 N5 1_555 1_555
C10 N5 1_555 1_555
C11 C1 1_555 1_555
C12 C2 1_555 1_555
H2 C2 1_555 1_555
H3 C3 1_555 1_555
C13 C3 1_555 1_555
C14 C4 1_555 1_555
H4 C4 1_555 1_555
H5 C5 1_555 1_555
C15 C5 1_555 1_555
C16 C6 1_555 1_555
H6 C6 1_555 1_555
H7 C7 1_555 1_555
C17 C7 1_555 1_555
C18 C8 1_555 1_555
H8 C8 1_555 1_555
H9 C9 1_555 1_555
C19 C9 1_555 1_555
C20 C10 1_555 1_555
H10 C10 1_555 1_555
H11 C11 1_555 1_555
C21 C11 1_555 1_555
H12 C12 1_555 1_555
H13 C13 1_555 1_555
C22 C13 1_555 1_555
H14 C14 1_555 1_555
H15 C15 1_555 1_555
C23 C15 1_555 1_555
H16 C16 1_555 1_555
H17 C17 1_555 1_555
C24 C17 1_555 1_555
H18 C18 1_555 1_555
H19 C19 1_555 1_555
C25 C19 1_555 1_555
H20 C20 1_555 1_555
C26 C21 1_555 1_555
C27 C22 1_555 1_555
C28 C23 1_555 1_555
C29 C25 1_555 1_555
C30 C26 1_555 1_555
C31 C26 1_555 1_555
C32 C27 1_555 1_555
C33 C27 1_555 1_555
C34 C28 1_555 1_555
C35 C28 1_555 1_555
C36 C29 1_555 1_555
C37 C29 1_555 1_555
C38 C30 1_555 1_555
H21 C30 1_555 1_555
H22 C31 1_555 1_555
C39 C31 1_555 1_555
C40 C32 1_555 1_555
H23 C32 1_555 1_555
H24 C33 1_555 1_555
C41 C33 1_555 1_555
C42 C34 1_555 1_555
H25 C34 1_555 1_555
H26 C35 1_555 1_555
C43 C35 1_555 1_555
C44 C36 1_555 1_555
H27 C36 1_555 1_555
H28 C37 1_555 1_555
C45 C37 1_555 1_555
N6 C38 1_555 1_555
H29 C38 1_555 1_555
H30 C39 1_555 1_555
N7 C40 1_555 1_555
H31 C40 1_555 1_555
H32 C41 1_555 1_555
N8 C42 1_555 1_555
H33 C42 1_555 1_555
H34 C43 1_555 1_555
N9 C44 1_555 1_555
H35 C44 1_555 1_555
H36 C45 1_555 1_555
O9 N6 1_555 1_555
O10 N7 1_555 1_555
O11 N8 1_555 1_555
O12 N9 1_555 1_555
Tb2 O9 1_555 1_555
Tb3 O10 1_555 1_555
O13 Tb2 1_555 1_555
O14 Tb2 1_555 1_555
O15 Tb2 1_555 1_555
O16 Tb2 1_555 1_555
O17 Tb2 1_555 1_555
O18 Tb2 1_555 1_555
O19 Tb2 1_555 1_555
O20 Tb3 1_555 1_555
O21 Tb3 1_555 1_555
O22 Tb3 1_555 1_555
O23 Tb3 1_555 1_555
O24 Tb3 1_555 1_555
N10 O13 1_555 1_555
N11 O14 1_555 1_555
N12 O15 1_555 1_555
N13 O16 1_555 1_555
N14 O17 1_555 1_555
N15 O18 1_555 1_555
N16 O20 1_555 1_555
N17 O21 1_555 1_555
N18 O22 1_555 1_555
N19 O23 1_555 1_555
N20 C66 1_555 1_555
C46 N10 1_555 1_555
C47 N10 1_555 1_555
C48 N11 1_555 1_555
C49 N11 1_555 1_555
C50 N12 1_555 1_555
C51 N12 1_555 1_555
C52 N13 1_555 1_555
C53 N13 1_555 1_555
C54 N14 1_555 1_555
C55 N14 1_555 1_555
C56 N15 1_555 1_555
C57 N15 1_555 1_555
C58 N16 1_555 1_555
C59 N16 1_555 1_555
C60 N17 1_555 1_555
C61 N17 1_555 1_555
C62 N18 1_555 1_555
C63 N18 1_555 1_555
C64 N19 1_555 1_555
C65 N19 1_555 1_555
C66 H57 1_555 1_555
C67 N20 1_555 1_555
H37 C46 1_555 1_555
C68 C46 1_555 1_555
C69 C47 1_555 1_555
H38 C47 1_555 1_555
H39 C48 1_555 1_555
C70 C48 1_555 1_555
C71 C49 1_555 1_555
H40 C49 1_555 1_555
H41 C50 1_555 1_555
C72 C50 1_555 1_555
C73 C51 1_555 1_555
H42 C51 1_555 1_555
H43 C52 1_555 1_555
C74 C52 1_555 1_555
C75 C53 1_555 1_555
H44 C53 1_555 1_555
H45 C54 1_555 1_555
C76 C54 1_555 1_555
C77 C55 1_555 1_555
H46 C55 1_555 1_555
H47 C56 1_555 1_555
C78 C56 1_555 1_555
C79 C57 1_555 1_555
H48 C57 1_555 1_555
H49 C58 1_555 1_555
C80 C58 1_555 1_555
C81 C59 1_555 1_555
H50 C59 1_555 1_555
H51 C60 1_555 1_555
C82 C60 1_555 1_555
C83 C61 1_555 1_555
H52 C61 1_555 1_555
H53 C62 1_555 1_555
C84 C62 1_555 1_555
C85 C63 1_555 1_555
H54 C63 1_555 1_555
H55 C64 1_555 1_555
C86 C64 1_555 1_555
C87 C65 1_555 1_555
H56 C65 1_555 1_555
C88 C66 1_555 1_555
C89 C67 1_555 1_555
H58 C67 1_555 1_555
H59 C68 1_555 1_555
C90 C68 1_555 1_555
H60 C69 1_555 1_555
H61 C70 1_555 1_555
C91 C70 1_555 1_555
H62 C71 1_555 1_555
H63 C72 1_555 1_555
C92 C72 1_555 1_555
H64 C73 1_555 1_555
H65 C74 1_555 1_555
C93 C74 1_555 1_555
H66 C75 1_555 1_555
H67 C76 1_555 1_555
C94 C76 1_555 1_555
H68 C77 1_555 1_555
H69 C78 1_555 1_555
C95 C78 1_555 1_555
H70 C79 1_555 1_555
H71 C80 1_555 1_555
C96 C80 1_555 1_555
H72 C81 1_555 1_555
H73 C82 1_555 1_555
C97 C82 1_555 1_555
H74 C83 1_555 1_555
H75 C84 1_555 1_555
C98 C84 1_555 1_555
H76 C85 1_555 1_555
H77 C86 1_555 1_555
C99 C86 1_555 1_555
H78 C87 1_555 1_555
H79 C88 1_555 1_555
C100 C88 1_555 1_555
H80 C89 1_555 1_555
C101 C91 1_555 1_555
C102 C92 1_555 1_555
C103 C97 1_555 1_555
C104 C98 1_555 1_555
C105 C101 1_555 1_555
C106 C101 1_555 1_555
C107 C102 1_555 1_555
C108 C102 1_555 1_555
C109 C103 1_555 1_555
C110 C103 1_555 1_555
C111 C104 1_555 1_555
C112 C104 1_555 1_555
C113 C105 1_555 1_555
H81 C105 1_555 1_555
H82 C106 1_555 1_555
C114 C106 1_555 1_555
C115 C107 1_555 1_555
H83 C107 1_555 1_555
H84 C108 1_555 1_555
C116 C108 1_555 1_555
C117 C109 1_555 1_555
H85 C109 1_555 1_555
H86 C110 1_555 1_555
C118 C110 1_555 1_555
C119 C111 1_555 1_555
H87 C111 1_555 1_555
H88 C112 1_555 1_555
C120 C112 1_555 1_555
N21 C113 1_555 1_555
H89 C113 1_555 1_555
H90 C114 1_555 1_555
N22 C115 1_555 1_555
H91 C115 1_555 1_555
H92 C116 1_555 1_555
N23 C117 1_555 1_555
H93 C117 1_555 1_555
H94 C118 1_555 1_555
N24 C119 1_555 1_555
H95 C119 1_555 1_555
H96 C120 1_555 1_555
S1 O25 1_555 1_555
O26 S1 1_555 1_555
O27 S1 1_555 1_555
C121 S1 1_555 1_555
F1 C121 1_555 1_555
F2 C121 1_555 1_555
F3 C121 1_555 1_555
S2 O28 1_555 1_555
O29 S2 1_555 1_555
O30 S2 1_555 1_555
C122 S2 1_555 1_555
F4 C122 1_555 1_555
F5 C122 1_555 1_555
F6 C122 1_555 1_555
S3 O31 1_555 1_555
O32 S3 1_555 1_555
O33 S3 1_555 1_555
C123 S3 1_555 1_555
F7 C123 1_555 1_555
F8 C123 1_555 1_555
F9 C123 1_555 1_555
S4 O34 1_555 1_555
O35 S4 1_555 1_555
O36 S4 1_555 1_555
C124 S4 1_555 1_555
F10 C124 1_555 1_555
F11 C124 1_555 1_555
F12 C124 1_555 1_555
S5 O37 1_555 1_555
O38 S5 1_555 1_555
O39 S5 1_555 1_555
C125 S5 1_555 1_555
F13 C125 1_555 1_555
F14 C125 1_555 1_555
F15 C125 1_555 1_555
O48 C126 1_555 1_555
C24A C24 1_555 1_555
C17A C24A 1_555 1_555
C18A C24A 1_555 1_555
C7A C17A 1_555 1_555
H17A C17A 1_555 1_555
H18A C18A 1_555 1_555
C8A C18A 1_555 1_555
N4A C7A 1_555 1_555
H7A C7A 1_555 1_555
H8A C8A 1_555 1_555
O4A N4A 1_555 1_555
Tb3A O11 1_555 1_555
Tb1A O4A 1_555 1_555
Tb3_2 O12 1_555 1_555
O11A Tb3 1_555 1_555
O12_2 Tb3 1_555 1_555
O24A N20 1_555 1_555
C90A C90 1_555 1_555
C99A C94 1_555 1_555
C94A C99 1_555 1_555
C68A C90A 1_555 1_555
C69A C90A 1_555 1_555
C86A C99A 1_555 1_555
C87A C99A 1_555 1_555
C76A C94A 1_555 1_555
C77A C94A 1_555 1_555
C46A C68A 1_555 1_555
H59A C68A 1_555 1_555
H60A C69A 1_555 1_555
C47A C69A 1_555 1_555
C64A C86A 1_555 1_555
H77A C86A 1_555 1_555
H78A C87A 1_555 1_555
C65A C87A 1_555 1_555
C54A C76A 1_555 1_555
H67A C76A 1_555 1_555
H68A C77A 1_555 1_555
C55A C77A 1_555 1_555
N10A C46A 1_555 1_555
H37A C46A 1_555 1_555
H38A C47A 1_555 1_555
H55A C64A 1_555 1_555
N19A C64A 1_555 1_555
H56A C65A 1_555 1_555
N14A C54A 1_555 1_555
H45A C54A 1_555 1_555
H46A C55A 1_555 1_555
O13A N10A 1_555 1_555
O6A N21 1_555 1_555
O7_2 N22 1_555 1_555
O23A N19A 1_555 1_555
O19_2 N23 1_555 1_555
O8A N24 1_555 1_555
O17A N14A 1_555 1_555
Tb2A O13A 1_555 1_555
Tb1A_2 O6A 1_555 1_555
Tb1_2 O7_2 1_555 1_555
Tb3A_2 O23A 1_555 1_555
Tb2_2 O19_2 1_555 1_555
Tb2A_2 O17A 1_555 1_555
O7A Tb1A_2 1_555 1_555
O6_2 Tb1_2 1_555 1_555
O8_2 Tb1_2 1_555 1_555
O10A Tb3A_2 1_555 1_555
O20A Tb3A_2 1_555 1_555
O21A Tb3A_2 1_555 1_555
O22A Tb3A_2 1_555 1_555
O11_2 Tb3A_2 1_555 1_555
O12A Tb3A_2 1_555 1_555
O24A_2 Tb3A_2 1_555 1_555
O9A Tb2A_2 1_555 1_555
O14A Tb2A_2 1_555 1_555
O15A Tb2A_2 1_555 1_555
O16A Tb2A_2 1_555 1_555
O18A Tb2A_2 1_555 1_555
O13A_2 Tb2A_2 1_555 1_555
O19A Tb2A_2 1_555 1_555
N22A O7A 1_555 1_555
N21A O6_2 1_555 1_555
N24A O8_2 1_555 1_555
N7A O10A 1_555 1_555
N16A O20A 1_555 1_555
N17A O21A 1_555 1_555
N18A O22A 1_555 1_555
N6A O9A 1_555 1_555
N11A O14A 1_555 1_555
N12A O15A 1_555 1_555
N13A O16A 1_555 1_555
N15A O18A 1_555 1_555
C115A N22A 1_555 1_555
C116A N22A 1_555 1_555
C113A N21A 1_555 1_555
C114A N21A 1_555 1_555
C119A N24A 1_555 1_555
C120A N24A 1_555 1_555
C40A N7A 1_555 1_555
C41A N7A 1_555 1_555
C58A N16A 1_555 1_555
C59A N16A 1_555 1_555
C60A N17A 1_555 1_555
C61A N17A 1_555 1_555
C62A N18A 1_555 1_555
C63A N18A 1_555 1_555
C38A N6A 1_555 1_555
C39A N6A 1_555 1_555
C48A N11A 1_555 1_555
C49A N11A 1_555 1_555
C50A N12A 1_555 1_555
C51A N12A 1_555 1_555
C52A N13A 1_555 1_555
C53A N13A 1_555 1_555
C56A N15A 1_555 1_555
C57A N15A 1_555 1_555
H91A C115A 1_555 1_555
C107A C115A 1_555 1_555
C108A C116A 1_555 1_555
H92A C116A 1_555 1_555
H89A C113A 1_555 1_555
C105A C113A 1_555 1_555
C106A C114A 1_555 1_555
H90A C114A 1_555 1_555
H95A C119A 1_555 1_555
C111A C119A 1_555 1_555
C112A C120A 1_555 1_555
H96A C120A 1_555 1_555
H31A C40A 1_555 1_555
C32A C40A 1_555 1_555
C33A C41A 1_555 1_555
H32A C41A 1_555 1_555
H49A C58A 1_555 1_555
C80A C58A 1_555 1_555
C81A C59A 1_555 1_555
H50A C59A 1_555 1_555
H51A C60A 1_555 1_555
C82A C60A 1_555 1_555
C83A C61A 1_555 1_555
H52A C61A 1_555 1_555
H53A C62A 1_555 1_555
C84A C62A 1_555 1_555
C85A C63A 1_555 1_555
H54A C63A 1_555 1_555
H29A C38A 1_555 1_555
C30A C38A 1_555 1_555
C31A C39A 1_555 1_555
H30A C39A 1_555 1_555
H39A C48A 1_555 1_555
C70A C48A 1_555 1_555
C71A C49A 1_555 1_555
H40A C49A 1_555 1_555
H41A C50A 1_555 1_555
C72A C50A 1_555 1_555
C73A C51A 1_555 1_555
H42A C51A 1_555 1_555
H43A C52A 1_555 1_555
C74A C52A 1_555 1_555
C75A C53A 1_555 1_555
H44A C53A 1_555 1_555
H47A C56A 1_555 1_555
C78A C56A 1_555 1_555
C79A C57A 1_555 1_555
H48A C57A 1_555 1_555
H83A C107A 1_555 1_555
C102A C107A 1_555 1_555
H84A C108A 1_555 1_555
H81A C105A 1_555 1_555
C101A C105A 1_555 1_555
H82A C106A 1_555 1_555
H87A C111A 1_555 1_555
C104A C111A 1_555 1_555
H88A C112A 1_555 1_555
H23A C32A 1_555 1_555
C27A C32A 1_555 1_555
H24A C33A 1_555 1_555
H71A C80A 1_555 1_555
C96A C80A 1_555 1_555
H72A C81A 1_555 1_555
H73A C82A 1_555 1_555
C97A C82A 1_555 1_555
H74A C83A 1_555 1_555
H75A C84A 1_555 1_555
C98A C84A 1_555 1_555
H76A C85A 1_555 1_555
H21A C30A 1_555 1_555
C26A C30A 1_555 1_555
H22A C31A 1_555 1_555
H61A C70A 1_555 1_555
C91A C70A 1_555 1_555
H62A C71A 1_555 1_555
H63A C72A 1_555 1_555
C92A C72A 1_555 1_555
H64A C73A 1_555 1_555
H65A C74A 1_555 1_555
C93A C74A 1_555 1_555
H66A C75A 1_555 1_555
H69A C78A 1_555 1_555
C95A C78A 1_555 1_555
H70A C79A 1_555 1_555
C22A C27A 1_555 1_555
C103A C97A 1_555 1_555
C21A C26A 1_555 1_555
C100A C95A 1_555 1_555
C13A C22A 1_555 1_555
C14A C22A 1_555 1_555
C109A C103A 1_555 1_555
C110A C103A 1_555 1_555
C11A C21A 1_555 1_555
C12A C21A 1_555 1_555
C88A C100A 1_555 1_555
C89A C100A 1_555 1_555
C3A C13A 1_555 1_555
H13A C13A 1_555 1_555
H14A C14A 1_555 1_555
C4A C14A 1_555 1_555
C117A C109A 1_555 1_555
H85A C109A 1_555 1_555
H86A C110A 1_555 1_555
C118A C110A 1_555 1_555
C1A C11A 1_555 1_555
H11A C11A 1_555 1_555
H12A C12A 1_555 1_555
C2A C12A 1_555 1_555
C66A C88A 1_555 1_555
H79A C88A 1_555 1_555
H80A C89A 1_555 1_555
C67A C89A 1_555 1_555
N2A C3A 1_555 1_555
H3A C3A 1_555 1_555
H4A C4A 1_555 1_555
N23A C117A 1_555 1_555
H93A C117A 1_555 1_555
H94A C118A 1_555 1_555
N1A C1A 1_555 1_555
H1A C1A 1_555 1_555
H2A C2A 1_555 1_555
N20A C66A 1_555 1_555
H57A C66A 1_555 1_555
H58A C67A 1_555 1_555
O2A N2A 1_555 1_555
O19A_2 N23A 1_555 1_555
O1A N1A 1_555 1_555
O24_2 N20A 1_555 1_555
Tb1A_3 O2A 1_555 1_555
Tb2A_3 O19A_2 1_555 1_555
Tb3_3 O24_2 1_555 1_555
O3A Tb1A_3 1_555 1_555
O5A Tb1A_3 1_555 1_555
O4A_2 Tb1A_3 1_555 1_555
O6A_2 Tb1A_3 1_555 1_555
O7A_2 Tb1A_3 1_555 1_555
O8A_2 Tb1A_3 1_555 1_555
O11A_2 Tb3_3 1_555 1_555
N3A O3A 1_555 1_555
N5A O5A 1_555 1_555
N8A O11A_2 1_555 1_555
C5A N3A 1_555 1_555
C6A N3A 1_555 1_555
C9A N5A 1_555 1_555
C10A N5A 1_555 1_555
C42A N8A 1_555 1_555
C43A N8A 1_555 1_555
H5A C5A 1_555 1_555
C15A C5A 1_555 1_555
C16A C6A 1_555 1_555
H6A C6A 1_555 1_555
H9A C9A 1_555 1_555
C19A C9A 1_555 1_555
C20A C10A 1_555 1_555
H10A C10A 1_555 1_555
H33A C42A 1_555 1_555
C34A C42A 1_555 1_555
C35A C43A 1_555 1_555
H34A C43A 1_555 1_555
H15A C15A 1_555 1_555
C23A C15A 1_555 1_555
H16A C16A 1_555 1_555
H19A C19A 1_555 1_555
C25A C19A 1_555 1_555
H20A C20A 1_555 1_555
H25A C34A 1_555 1_555
C28A C34A 1_555 1_555
H26A C35A 1_555 1_555
C29A C25A 1_555 1_555
C36A C29A 1_555 1_555
C37A C29A 1_555 1_555
C44A C36A 1_555 1_555
H27A C36A 1_555 1_555
H28A C37A 1_555 1_555
C45A C37A 1_555 1_555
N9A C44A 1_555 1_555
H35A C44A 1_555 1_555
H36A C45A 1_555 1_555
O12A_2 N9A 1_555 1_555
Tb3A_3 O12A_2 1_555 1_555
C12 C21 1_555 1_555
C14 C22 1_555 1_555
C16 C23 1_555 1_555
C18 C24 1_555 1_555
C20 C25 1_555 1_555
C39 N6 1_555 1_555
C41 N7 1_555 1_555
C43 N8 1_555 1_555
C45 N9 1_555 1_555
C69 C90 1_555 1_555
C71 C91 1_555 1_555
C73 C92 1_555 1_555
C75 C93 1_555 1_555
C77 C94 1_555 1_555
C79 C95 1_555 1_555
C81 C96 1_555 1_555
C83 C97 1_555 1_555
C85 C98 1_555 1_555
C87 C99 1_555 1_555
C89 C100 1_555 1_555
C93 C96 1_555 1_555
C95 C100 1_555 1_555
C114 N21 1_555 1_555
C116 N22 1_555 1_555
C118 N23 1_555 1_555
C120 N24 1_555 1_555
C8A N4A 1_555 1_555
Tb3A O24A 1_555 1_555
C47A N10A 1_555 1_555
C65A N19A 1_555 1_555
C55A N14A 1_555 1_555
O8A Tb1A_2 1_555 1_555
C108A C102A 1_555 1_555
C106A C101A 1_555 1_555
C112A C104A 1_555 1_555
C33A C27A 1_555 1_555
C81A C96A 1_555 1_555
C83A C97A 1_555 1_555
C85A C98A 1_555 1_555
C31A C26A 1_555 1_555
C71A C91A 1_555 1_555
C73A C92A 1_555 1_555
C75A C93A 1_555 1_555
C79A C95A 1_555 1_555
C102A C92A 1_555 1_555
C101A C91A 1_555 1_555
C104A C98A 1_555 1_555
C96A C93A 1_555 1_555
C4A N2A 1_555 1_555
C118A N23A 1_555 1_555
C2A N1A 1_555 1_555
C67A N20A 1_555 1_555
O1A Tb1A_3 1_555 1_555
C16A C23A 1_555 1_555
C20A C25A 1_555 1_555
C35A C28A 1_555 1_555
C23A C28A 1_555 1_555
C45A N9A 1_555 1_555

#END
