
#######################################################################
#
#                 Cambridge Crystallographic Data Centre
#                                CCDC 
#
#######################################################################
#
# If this CIF has been generated from an entry in the Cambridge 
# Structural Database, then it will include bibliographic, chemical, 
# crystal, experimental, refinement or atomic coordinate data resulting 
# from the CCDC's data processing and validation procedures.
#
#######################################################################

data_BIZMAA
_symmetry_cell_setting           triclinic
_symmetry_space_group_name_H-M   'P -1'
_symmetry_Int_Tables_number      2
_space_group_name_Hall           '-P 1'
loop_
_symmetry_equiv_pos_site_id
_symmetry_equiv_pos_as_xyz
1 x,y,z
2 -x,-y,-z
_cell_length_a                   24.024(3)
_cell_length_b                   24.1876(19)
_cell_length_c                   24.399(3)
_cell_angle_alpha                84.067(8)
_cell_angle_beta                 61.943(12)
_cell_angle_gamma                61.651(10)
_cell_volume                     10879
loop_
_atom_site_label
_atom_site_type_symbol
_atom_site_fract_x
_atom_site_fract_y
_atom_site_fract_z
S1 S -0.5627(8) 1.3769(7) 0.6565(7)
O25 O -0.5386(15) 1.3357(11) 0.6974(10)
O26 O -0.5141(14) 1.4016(12) 0.6171(10)
O27 O -0.6376(10) 1.4267(11) 0.6900(13)
C121 C -0.5594(10) 1.3270(8) 0.6027(8)
F1 F -0.6036(13) 1.3035(10) 0.6338(10)
F2 F -0.5792(15) 1.3606(11) 0.5626(9)
F3 F -0.4929(11) 1.2791(11) 0.5706(12)
S2 S 0.7362(8) 0.3983(6) -0.0346(7)
O28 O 0.7173(16) 0.4354(9) -0.0798(12)
O29 O 0.6751(12) 0.3992(12) 0.0210(11)
O30 O 0.7813(13) 0.4120(11) -0.0204(14)
C122 C 0.7936(9) 0.3157(6) -0.0742(8)
F4 F 0.7540(11) 0.2944(9) -0.0788(11)
F5 F 0.8440(10) 0.3122(9) -0.1310(9)
F6 F 0.8248(14) 0.2800(9) -0.0414(12)
S3 S 0.0314(10) 0.9241(8) 0.1104(8)
O31 O 0.032(2) 0.8857(15) 0.0687(16)
O32 O 0.0843(15) 0.9465(16) 0.0778(15)
O33 O -0.0393(12) 0.9754(13) 0.1525(14)
C123 C 0.0631(13) 0.8714(10) 0.1608(10)
F7 F 0.0219(16) 0.8452(16) 0.1910(16)
F8 F 0.1305(12) 0.8262(11) 0.1262(14)
F9 F 0.061(2) 0.9043(15) 0.2022(15)
S4 S -0.0816(8) 1.0328(7) 0.4226(7)
O34 O -0.0087(10) 0.9886(11) 0.4102(13)
O35 O -0.0929(17) 1.0956(9) 0.4075(13)
O36 O -0.1364(13) 1.0343(13) 0.4846(8)
C124 C -0.0948(12) 1.0007(10) 0.3673(10)
F10 F -0.1559(13) 1.0422(13) 0.3681(13)
F11 F -0.097(2) 0.9475(12) 0.3836(18)
F12 F -0.0409(15) 0.9882(18) 0.3099(9)
S5 S -0.5591(7) 0.8547(6) 0.4968(7)
O37 O -0.5555(14) 0.8945(11) 0.5344(13)
O38 O -0.4942(9) 0.8255(12) 0.4362(9)
O39 O -0.5819(14) 0.8101(11) 0.5306(13)
C125 C -0.6308(9) 0.9099(8) 0.4785(9)
F13 F -0.6347(12) 0.8795(10) 0.4399(10)
F14 F -0.6932(9) 0.9361(12) 0.5307(10)
F15 F -0.6164(16) 0.9552(10) 0.4511(15)
S6 S 0.2775(8) 0.5962(7) 0.3079(7)
O40 O 0.3460(12) 0.5517(12) 0.3061(15)
O41 O 0.2314(15) 0.5685(14) 0.3214(15)
O42 O 0.286(2) 0.6288(13) 0.2535(9)
C126 C 0.2304(12) 0.6580(10) 0.3750(9)
F16 F 0.2693(18) 0.6856(15) 0.3668(16)
F17 F 0.1670(14) 0.7014(13) 0.3811(17)
F18 F 0.220(2) 0.6326(16) 0.4274(8)
O43 O 0.505(4) 0.747(3) -0.183(3)
O44 O -0.166(4) 0.460(3) 0.438(3)
O45 O 0.615(3) 0.733(2) 0.018(2)
O46 O -0.033(3) 0.695(3) 0.524(3)
O47 O 0.311(4) 1.018(3) 0.010(3)
O48 O -0.388(4) 1.473(3) 0.571(3)
O49 O -0.505(2) 0.901(2) 0.655(2)
O50 O -0.736(3) 1.465(2) 0.816(2)
O51 O -0.589(3) 0.841(2) 0.787(2)
O52 O 0.138(2) 1.0276(17) -0.0115(18)
Dy1 Dy 0.35131(7) 0.85629(6) 0.20968(7)
O1 O 0.2453(9) 0.8800(8) 0.2105(8)
O2 O 0.2838(10) 0.9690(8) 0.2281(8)
O3 O 0.3702(9) 0.8822(8) 0.1079(8)
O4 O 0.4394(9) 0.8868(8) 0.1749(8)
O5 O 0.3900(9) 0.7632(8) 0.1456(8)
O6 O 0.3301(10) 0.8913(8) 0.3063(8)
O7 O 0.4530(9) 0.7717(8) 0.2145(8)
O8 O 0.3013(9) 0.7980(8) 0.2835(8)
N1 N 0.2065(12) 0.8503(10) 0.2393(11)
N2 N 0.2217(13) 1.0058(10) 0.2303(11)
N3 N 0.3543(12) 0.8621(9) 0.0711(10)
N4 N 0.4572(12) 0.9179(10) 0.1259(10)
N5 N 0.4386(13) 0.7028(11) 0.1459(11)
C1 C 0.2240(16) 0.7966(13) 0.2063(14)
C2 C 0.1443(15) 0.8762(13) 0.2946(13)
C3 C 0.2205(16) 1.0230(12) 0.1779(14)
C4 C 0.1623(14) 1.0236(12) 0.2817(13)
C5 C 0.2891(15) 0.8872(13) 0.0806(13)
C6 C 0.4102(18) 0.8151(14) 0.0225(14)
C7 C 0.4173(17) 0.9810(14) 0.1403(16)
C8 C 0.5098(18) 0.8863(16) 0.0738(15)
C9 C 0.4089(15) 0.6720(12) 0.1928(12)
C10 C 0.5079(16) 0.6801(14) 0.1096(14)
H1 H 0.2648 0.7796 0.1656
C11 C 0.1827(16) 0.7681(14) 0.2324(14)
C12 C 0.1074(16) 0.8458(13) 0.3209(14)
H2 H 0.1272 0.9169 0.3146
H3 H 0.2646 1.0109 0.1401
C13 C 0.1566(17) 1.0578(14) 0.1767(15)
C14 C 0.0916(15) 1.0605(12) 0.2847(14)
H4 H 0.1642 1.0124 0.3195
H5 H 0.2517 0.9215 0.1140
C15 C 0.2718(15) 0.8656(12) 0.0437(12)
C16 C 0.3963(19) 0.7919(15) -0.0191(16)
H6 H 0.4579 0.7977 0.0160
H7 H 0.3814 1.0020 0.1820
C17 C 0.4330(18) 1.0154(16) 0.0866(16)
C18 C 0.531(2) 0.9171(16) 0.0180(17)
H8 H 0.5370 0.8415 0.0703
H9 H 0.3582 0.6906 0.2190
C19 C 0.4565(15) 0.6121(13) 0.2003(13)
C20 C 0.5538(18) 0.6236(13) 0.1146(18)
H10 H 0.5255 0.7040 0.0795
H11 H 0.1971 0.7305 0.2087
C21 C 0.1244(18) 0.7877(14) 0.2877(15)
H12 H 0.0686 0.8617 0.3627
H13 H 0.1577 1.0702 0.1381
C22 C 0.0886(16) 1.0763(13) 0.2314(14)
H14 H 0.0486 1.0730 0.3237
H15 H 0.2229 0.8843 0.0527
C23 C 0.3254(17) 0.8165(14) -0.0065(14)
H16 H 0.4349 0.7603 -0.0546
H17 H 0.4042 1.0603 0.0932
C24 C 0.4871(16) 0.9853(13) 0.0284(14)
H18 H 0.5697 0.8937 -0.0220
H19 H 0.4385 0.5879 0.2295
C25 C 0.5268(14) 0.5909(12) 0.1653(12)
H20 H 0.6038 0.6047 0.0854
C26 C 0.0750(16) 0.7604(13) 0.3190(14)
C27 C 0.0194(19) 1.1103(16) 0.2325(16)
C28 C 0.3048(15) 0.7902(12) -0.0418(13)
C29 C 0.5806(15) 0.5340(12) 0.1769(13)
C30 C 0.098(2) 0.7001(16) 0.2876(18)
C31 C 0.0111(16) 0.7881(14) 0.3679(14)
C32 C 0.0099(17) 1.0922(14) 0.1873(15)
C33 C -0.0388(13) 1.1550(11) 0.2789(12)
C34 C 0.2406(16) 0.8242(14) -0.0381(14)
C35 C 0.3471(16) 0.7332(13) -0.0736(13)
C36 C 0.6445(15) 0.4915(13) 0.1288(14)
C37 C 0.5645(16) 0.5225(13) 0.2382(14)
C38 C 0.0472(17) 0.6758(15) 0.3172(15)
H21 H 0.1429 0.6780 0.2504
H22 H -0.0034 0.8282 0.3871
C39 C -0.0369(16) 0.7666(12) 0.3946(14)
C40 C -0.0595(15) 1.1168(12) 0.1948(13)
H23 H 0.0506 1.0628 0.1509
H24 H -0.0350 1.1713 0.3100
C41 C -0.1072(15) 1.1789(13) 0.2827(14)
C42 C 0.2202(19) 0.7991(15) -0.0695(16)
H25 H 0.2086 0.8656 -0.0142
H26 H 0.3919 0.7095 -0.0735
C43 C 0.3327(16) 0.7026(14) -0.1088(13)
C44 C 0.6948(17) 0.4385(14) 0.1387(14)
H27 H 0.6549 0.4985 0.0868
H28 H 0.5182 0.5487 0.2725
C45 C 0.6187(15) 0.4707(13) 0.2485(14)
N6 N -0.0174(12) 0.7106(10) 0.3664(11)
H29 H 0.0602 0.6348 0.3013
H30 H -0.0819 0.7897 0.4313
N7 N -0.1153(13) 1.1597(11) 0.2410(11)
H31 H -0.0653 1.1013 0.1648
H32 H -0.1486 1.2103 0.3173
N8 N 0.2626(13) 0.7420(11) -0.1033(11)
H33 H 0.1738 0.8241 -0.0664
H34 H 0.3657 0.6612 -0.1328
N9 N 0.6792(12) 0.4295(10) 0.2003(11)
H35 H 0.7388 0.4091 0.1044
H36 H 0.6114 0.4657 0.2901
O9 O -0.0621(9) 0.6868(8) 0.3875(8)
O10 O -0.1800(10) 1.1836(8) 0.2453(8)
O11 O 0.2413(9) 0.7151(8) -0.1288(8)
O12 O 0.7255(10) 0.3820(9) 0.2140(9)
Dy2 Dy -0.15484(8) 0.71722(6) 0.36043(7)
Dy3 Dy -0.25722(8) 1.27976(6) 0.23153(7)
O13 O -0.1291(10) 0.6143(8) 0.3843(8)
O14 O -0.2197(9) 0.7318(8) 0.4736(8)
O15 O -0.2074(9) 0.7940(8) 0.3071(8)
O16 O -0.1760(10) 0.8125(8) 0.3965(9)
O17 O -0.2640(11) 0.7206(9) 0.3908(9)
O18 O -0.0579(10) 0.7206(8) 0.2752(9)
O19 O -0.1288(10) 0.6568(8) 0.2741(9)
O20 O -0.2825(10) 1.2025(8) 0.2128(8)
O21 O -0.2313(9) 1.3095(8) 0.3018(8)
O22 O -0.3352(10) 1.2742(8) 0.3331(9)
O23 O -0.3767(11) 1.3381(9) 0.2462(10)
O24 O -0.1386(10) 1.2646(8) 0.1683(9)
N10 N -0.0931(14) 0.5830(11) 0.4179(12)
N11 N -0.2398(12) 0.7817(10) 0.5132(10)
N12 N -0.2534(12) 0.7939(10) 0.2896(11)
N13 N -0.1931(14) 0.8687(11) 0.3676(11)
N14 N -0.3135(14) 0.7149(12) 0.4440(12)
N15 N -0.0364(12) 0.7194(11) 0.2143(11)
N16 N -0.2698(14) 1.1479(12) 0.2352(12)
N17 N -0.2166(13) 1.3600(11) 0.2966(11)
N18 N -0.3250(13) 1.2633(11) 0.3842(11)
N19 N -0.4363(15) 1.3381(12) 0.2980(13)
N20 N 0.1076(13) 0.7332(11) -0.1090(12)
C46 C -0.025(2) 0.5458(17) 0.384(2)
C47 C -0.1273(18) 0.5909(14) 0.4798(15)
C48 C -0.1891(14) 0.7763(12) 0.5287(12)
C49 C -0.2966(14) 0.8309(12) 0.5274(12)
C50 C -0.3232(14) 0.8331(12) 0.3288(13)
C51 C -0.2298(16) 0.7628(13) 0.2358(14)
C52 C -0.1359(18) 0.8743(14) 0.3193(14)
C53 C -0.2594(15) 0.9119(12) 0.3902(13)
C54 C -0.3729(16) 0.7637(14) 0.4834(14)
C55 C -0.2919(16) 0.6490(13) 0.4557(14)
C56 C -0.0662(18) 0.7717(15) 0.1920(16)
C57 C 0.015(2) 0.6661(17) 0.1742(18)
C58 C -0.3174(15) 1.1473(13) 0.2943(13)
C59 C -0.2097(18) 1.0962(14) 0.2017(16)
C60 C -0.1491(14) 1.3457(12) 0.2601(12)
C61 C -0.2652(18) 1.4134(14) 0.3286(15)
C62 C -0.2797(15) 1.2056(13) 0.3875(13)
C63 C -0.370(2) 1.3113(17) 0.4331(17)
C64 C -0.4465(17) 1.2887(14) 0.2844(16)
C65 C -0.4795(19) 1.3804(16) 0.3507(17)
C66 C 0.1181(17) 0.6734(15) -0.0985(15)
C67 C 0.0726(16) 0.7876(14) -0.0654(14)
H37 H -0.0018 0.5398 0.3398
C68 C 0.0143(19) 0.5127(15) 0.4199(16)
C69 C -0.0882(18) 0.5560(14) 0.5118(16)
H38 H -0.1776 0.6198 0.5027
H39 H -0.1457 0.7373 0.5172
C70 C -0.2022(15) 0.8256(12) 0.5593(12)
C71 C -0.3154(18) 0.8804(15) 0.5648(15)
H40 H -0.3275 0.8340 0.5120
H41 H -0.3373 0.8608 0.3633
C72 C -0.3789(18) 0.8321(14) 0.3165(15)
C73 C -0.2755(15) 0.7616(13) 0.2181(14)
H42 H -0.1793 0.7403 0.2081
H43 H -0.0879 0.8406 0.3047
C74 C -0.1492(16) 0.9290(13) 0.2929(14)
C75 C -0.2734(14) 0.9642(12) 0.3642(12)
H44 H -0.2968 0.9065 0.4242
H45 H -0.3824 0.8055 0.4747
C76 C -0.4216(17) 0.7550(14) 0.5372(15)
C77 C -0.3398(17) 0.6398(15) 0.5091(14)
H46 H -0.2468 0.6146 0.4274
H47 H -0.1052 0.8095 0.2205
C78 C -0.0416(17) 0.7718(15) 0.1288(15)
C79 C 0.0447(19) 0.6651(16) 0.1084(17)
H48 H 0.0332 0.6276 0.1900
H49 H -0.3606 1.1852 0.3190
C80 C -0.3021(15) 1.0924(12) 0.3169(13)
C81 C -0.1923(17) 1.0369(14) 0.2231(15)
H50 H -0.1765 1.0986 0.1613
H51 H -0.1138 1.3035 0.2389
C82 C -0.1292(17) 1.3928(14) 0.2526(14)
C83 C -0.2503(19) 1.4640(15) 0.3250(15)
H52 H -0.3127 1.4201 0.3557
H53 H -0.2537 1.1722 0.3535
C84 C -0.2692(16) 1.1924(14) 0.4432(14)
C85 C -0.3599(17) 1.3046(15) 0.4858(15)
H54 H -0.4073 1.3494 0.4315
H55 H -0.4190 1.2634 0.2442
C86 C -0.5024(16) 1.2806(14) 0.3374(14)
C87 C -0.5280(16) 1.3703(13) 0.3965(15)
H56 H -0.4747 1.4165 0.3542
H57 H 0.1440 0.6378 -0.1302
C88 C 0.0808(19) 0.6727(17) -0.0262(17)
C89 C 0.0426(15) 0.7802(13) -0.0027(13)
H58 H 0.0697 0.8270 -0.0781
H59 H 0.0653 0.4872 0.3978
C90 C -0.0217(16) 0.5184(13) 0.4837(13)
H60 H -0.1134 0.5612 0.5564
H61 H -0.1658 0.8226 0.5673
C91 C -0.2657(16) 0.8817(13) 0.5805(14)
H62 H -0.3629 0.9154 0.5812
H63 H -0.4291 0.8542 0.3454
C92 C -0.3503(15) 0.7954(12) 0.2582(13)
H64 H -0.2568 0.7380 0.1790
H65 H -0.1108 0.9357 0.2626
C93 C -0.2228(16) 0.9757(13) 0.3123(14)
H66 H -0.3222 0.9970 0.3825
H67 H -0.4655 0.7907 0.5651
C94 C -0.4066(16) 0.6913(13) 0.5518(14)
H68 H -0.3282 0.5978 0.5181
H69 H -0.0633 0.8105 0.1148
C95 C 0.0127(16) 0.7192(13) 0.0849(14)
H70 H 0.0860 0.6278 0.0805
H71 H -0.3370 1.0922 0.3574
C96 C -0.2415(16) 1.0380(14) 0.2867(14)
H72 H -0.1507 0.9987 0.1971
H73 H -0.0813 1.3843 0.2239
C97 C -0.1822(19) 1.4532(15) 0.2887(16)
H74 H -0.2879 1.5051 0.3478
H75 H -0.2357 1.1520 0.4462
C98 C -0.3129(16) 1.2448(14) 0.4918(14)
H76 H -0.3849 1.3402 0.5172
H77 H -0.5122 1.2478 0.3340
C99 C -0.5416(18) 1.3219(15) 0.3934(16)
H78 H -0.5564 1.3983 0.4351
H79 H 0.0822 0.6340 -0.0126
C100 C 0.0460(16) 0.7240(13) 0.0193(14)
H80 H 0.0175 0.8166 0.0278
C101 C -0.2776(15) 0.9407(12) 0.6111(13)
C102 C -0.4005(14) 0.7909(12) 0.2433(13)
C103 C -0.164(2) 1.5118(17) 0.2804(17)
C104 C -0.3091(17) 1.2372(14) 0.5520(14)
C105 C -0.3471(16) 0.9774(13) 0.6620(13)
C106 C -0.2330(16) 0.9627(13) 0.5902(14)
C107 C -0.3868(16) 0.7717(13) 0.1876(14)
C108 C -0.4696(15) 0.8054(13) 0.2968(14)
C109 C -0.0945(18) 1.4927(15) 0.2612(14)
C110 C -0.2187(18) 1.5689(15) 0.2934(15)
C111 C -0.3654(18) 1.2730(15) 0.6069(15)
C112 C -0.2476(14) 1.1838(11) 0.5522(12)
C113 C -0.3691(14) 1.0383(11) 0.6939(12)
H81 H -0.3809 0.9623 0.6762
H82 H -0.1874 0.9408 0.5538
C114 C -0.2530(16) 1.0201(12) 0.6224(13)
C115 C -0.4385(15) 0.7671(12) 0.1793(14)
H83 H -0.3410 0.7606 0.1523
H84 H -0.4814 0.8177 0.3382
C116 C -0.5227(17) 0.7998(13) 0.2827(15)
C117 C -0.0842(16) 1.5471(13) 0.2621(13)
H85 H -0.0572 1.4497 0.2488
H86 H -0.2655 1.5743 0.3081
C118 C -0.2084(19) 1.6195(16) 0.2858(15)
C119 C -0.3596(17) 1.2611(14) 0.6622(15)
H87 H -0.4088 1.3060 0.6084
H88 H -0.2077 1.1553 0.5149
C120 C -0.2500(16) 1.1765(13) 0.6078(14)
N21 N -0.3142(12) 1.0546(10) 0.6667(10)
H89 H -0.4151 1.0636 0.7288
H90 H -0.2176 1.0330 0.6094
N22 N -0.5024(14) 0.7796(11) 0.2250(12)
H91 H -0.4263 0.7542 0.1380
H92 H -0.5700 0.8109 0.3155
N23 N -0.1410(14) 1.6081(12) 0.2764(12)
H93 H -0.0382 1.5406 0.2528
H94 H -0.2442 1.6605 0.2867
N24 N -0.3037(13) 1.2132(11) 0.6611(11)
H95 H -0.3974 1.2888 0.7006
H96 H -0.2094 1.1418 0.6091
C24A C 0.5129(16) 1.0147(13) -0.0284(14)
C17A C 0.5670(18) 0.9846(16) -0.0866(16)
C18A C 0.469(2) 1.0829(16) -0.0180(17)
C7A C 0.5827(17) 1.0190(14) -0.1403(16)
H17A H 0.5958 0.9397 -0.0932
H18A H 0.4303 1.1063 0.0220
C8A C 0.4902(18) 1.1137(16) -0.0738(15)
N4A N 0.5428(12) 1.0821(10) -0.1259(10)
H7A H 0.6186 0.9980 -0.1820
H8A H 0.4630 1.1585 -0.0703
O4A O 0.5606(9) 1.1132(8) -0.1749(8)
Dy3A Dy 0.25722(8) 0.72024(6) -0.23153(7)
Dy1A Dy 0.64869(7) 1.14371(6) -0.20968(7)
Dy3_2 Dy 0.74278(8) 0.27976(6) 0.23153(7)
O11A O -0.2413(9) 1.2849(8) 0.1288(8)
O12_2 O -0.2745(10) 1.3820(9) 0.2140(9)
O24A O 0.1386(10) 0.7354(8) -0.1683(9)
C90A C 0.0217(16) 0.4816(13) 0.5163(13)
C99A C -0.4584(18) 0.6781(15) 0.6066(16)
C94A C -0.5934(16) 1.3087(13) 0.4482(14)
C68A C -0.0143(19) 0.4873(15) 0.5801(16)
C69A C 0.0882(18) 0.4440(14) 0.4882(16)
C86A C -0.4976(16) 0.7194(14) 0.6626(14)
C87A C -0.4720(16) 0.6297(13) 0.6035(15)
C76A C -0.5784(17) 1.2450(14) 0.4628(15)
C77A C -0.6602(17) 1.3602(15) 0.4909(14)
C46A C 0.025(2) 0.4542(17) 0.616(2)
H59A H -0.0653 0.5128 0.6022
H60A H 0.1134 0.4388 0.4436
C47A C 0.1273(18) 0.4091(14) 0.5202(15)
C64A C -0.5535(17) 0.7113(14) 0.7156(16)
H77A H -0.4878 0.7522 0.6660
H78A H -0.4436 0.6017 0.5649
C65A C -0.5205(19) 0.6196(16) 0.6493(17)
C54A C -0.6271(16) 1.2363(14) 0.5166(14)
H67A H -0.5345 1.2093 0.4349
H68A H -0.6718 1.4022 0.4819
C55A C -0.7081(16) 1.3510(13) 0.5443(14)
N10A N 0.0931(14) 0.4170(11) 0.5821(12)
H37A H 0.0018 0.4602 0.6602
H38A H 0.1776 0.3802 0.4973
H55A H -0.5810 0.7366 0.7558
N19A N -0.5637(15) 0.6619(12) 0.7020(13)
H56A H -0.5253 0.5835 0.6458
N14A N -0.6865(14) 1.2851(12) 0.5560(12)
H45A H -0.6176 1.1945 0.5253
H46A H -0.7532 1.3854 0.5726
O13A O 0.1291(10) 0.3857(8) 0.6157(8)
O6A O -0.3301(10) 1.1087(8) 0.6937(8)
O7_2 O -0.5470(9) 0.7717(8) 0.2145(8)
O23A O -0.6233(11) 0.6619(9) 0.7538(10)
O19_2 O -0.1288(10) 1.6568(8) 0.2741(9)
O8A O -0.3013(9) 1.2020(8) 0.7165(8)
O17A O -0.7360(11) 1.2794(9) 0.6092(9)
Dy2A Dy 0.15484(8) 0.28278(6) 0.63957(7)
Dy1A_2 Dy -0.35131(7) 1.14371(6) 0.79032(7)
Dy1_2 Dy -0.64869(7) 0.85629(6) 0.20968(7)
Dy3A_2 Dy -0.74278(8) 0.72024(6) 0.76847(7)
Dy2_2 Dy -0.15484(8) 1.71722(6) 0.36043(7)
Dy2A_2 Dy -0.84516(8) 1.28278(6) 0.63957(7)
O7A O -0.4530(9) 1.2283(8) 0.7855(8)
O6_2 O -0.6699(10) 0.8913(8) 0.3063(8)
O8_2 O -0.6987(9) 0.7980(8) 0.2835(8)
O10A O -0.8200(10) 0.8164(8) 0.7547(8)
O20A O -0.7175(10) 0.7975(8) 0.7872(8)
O21A O -0.7687(9) 0.6905(8) 0.6982(8)
O22A O -0.6648(10) 0.7258(8) 0.6669(9)
O11_2 O -0.7587(9) 0.7151(8) 0.8712(8)
O12A O -0.7255(10) 0.6180(9) 0.7860(9)
O24A_2 O -0.8614(10) 0.7354(8) 0.8317(9)
O9A O -0.9379(9) 1.3132(8) 0.6125(8)
O14A O -0.7803(9) 1.2682(8) 0.5264(8)
O15A O -0.7926(9) 1.2060(8) 0.6929(8)
O16A O -0.8240(10) 1.1875(8) 0.6035(9)
O18A O -0.9421(10) 1.2794(8) 0.7248(9)
O13A_2 O -0.8709(10) 1.3857(8) 0.6157(8)
O19A O -0.8712(10) 1.3432(8) 0.7259(9)
N22A N -0.4976(14) 1.2204(11) 0.7750(12)
N21A N -0.6858(12) 0.9454(10) 0.3333(10)
N24A N -0.6963(13) 0.7868(11) 0.3389(11)
N7A N -0.8847(13) 0.8403(11) 0.7590(11)
N16A N -0.7302(14) 0.8521(12) 0.7648(12)
N17A N -0.7834(13) 0.6400(11) 0.7034(11)
N18A N -0.6750(13) 0.7367(11) 0.6158(11)
N6A N -0.9826(12) 1.2894(10) 0.6336(11)
N11A N -0.7602(12) 1.2183(10) 0.4868(10)
N12A N -0.7466(12) 1.2061(10) 0.7104(11)
N13A N -0.8069(14) 1.1313(11) 0.6324(11)
N15A N -0.9636(12) 1.2806(11) 0.7857(11)
C115A C -0.5615(15) 1.2329(12) 0.8207(14)
C116A C -0.4773(17) 1.2002(13) 0.7173(15)
C113A C -0.6309(14) 0.9617(11) 0.3061(12)
C114A C -0.7470(16) 0.9799(12) 0.3776(13)
C119A C -0.6404(17) 0.7389(14) 0.3378(15)
C120A C -0.7500(16) 0.8235(13) 0.3922(14)
C40A C -0.9405(15) 0.8832(12) 0.8052(13)
C41A C -0.8928(15) 0.8211(13) 0.7173(14)
C58A C -0.6826(15) 0.8527(13) 0.7057(13)
C59A C -0.7903(18) 0.9038(14) 0.7983(16)
C60A C -0.8509(14) 0.6543(12) 0.7399(12)
C61A C -0.7348(18) 0.5866(14) 0.6714(15)
C62A C -0.7203(15) 0.7944(13) 0.6125(13)
C63A C -0.630(2) 0.6887(17) 0.5669(17)
C38A C -1.0472(17) 1.3242(15) 0.6828(15)
C39A C -0.9631(16) 1.2334(12) 0.6054(14)
C48A C -0.8109(14) 1.2237(12) 0.4713(12)
C49A C -0.7034(14) 1.1691(12) 0.4726(12)
C50A C -0.6768(14) 1.1669(12) 0.6712(13)
C51A C -0.7702(16) 1.2372(13) 0.7642(14)
C52A C -0.8641(18) 1.1257(14) 0.6807(14)
C53A C -0.7406(15) 1.0881(12) 0.6098(13)
C56A C -0.9338(18) 1.2283(15) 0.8080(16)
C57A C -1.015(2) 1.3339(17) 0.8258(18)
H91A H -0.5737 1.2458 0.8620
C107A C -0.6132(16) 1.2283(13) 0.8124(14)
C108A C -0.5304(15) 1.1946(13) 0.7032(14)
H92A H -0.4300 1.1891 0.6845
H89A H -0.5849 0.9364 0.2712
C105A C -0.6529(16) 1.0226(13) 0.3380(13)
C106A C -0.7670(16) 1.0373(13) 0.4098(14)
H90A H -0.7824 0.9670 0.3906
H95A H -0.6026 0.7112 0.2994
C111A C -0.6346(18) 0.7270(15) 0.3931(15)
C112A C -0.7524(14) 0.8162(11) 0.4478(12)
H96A H -0.7906 0.8582 0.3909
H31A H -0.9347 0.8987 0.8352
C32A C -1.0099(17) 0.9078(14) 0.8127(15)
C33A C -0.9612(13) 0.8450(11) 0.7211(12)
H32A H -0.8514 0.7897 0.6827
H49A H -0.6394 0.8148 0.6810
C80A C -0.6979(15) 0.9076(12) 0.6831(13)
C81A C -0.8077(17) 0.9631(14) 0.7769(15)
H50A H -0.8235 0.9014 0.8387
H51A H -0.8862 0.6965 0.7611
C82A C -0.8708(17) 0.6072(14) 0.7474(14)
C83A C -0.7497(19) 0.5360(15) 0.6750(15)
H52A H -0.6873 0.5799 0.6443
H53A H -0.7463 0.8278 0.6465
C84A C -0.7308(16) 0.8076(14) 0.5568(14)
C85A C -0.6401(17) 0.6954(15) 0.5142(15)
H54A H -0.5927 0.6506 0.5685
H29A H -1.0602 1.3652 0.6987
C30A C -1.098(2) 1.2999(16) 0.7124(18)
C31A C -1.0111(16) 1.2119(14) 0.6321(14)
H30A H -0.9181 1.2103 0.5687
H39A H -0.8543 1.2627 0.4828
C70A C -0.7978(15) 1.1744(12) 0.4407(12)
C71A C -0.6846(18) 1.1196(15) 0.4352(15)
H40A H -0.6725 1.1660 0.4880
H41A H -0.6627 1.1392 0.6367
C72A C -0.6211(18) 1.1679(14) 0.6835(15)
C73A C -0.7245(15) 1.2384(13) 0.7819(14)
H42A H -0.8207 1.2597 0.7919
H43A H -0.9121 1.1594 0.6953
C74A C -0.8508(16) 1.0710(13) 0.7071(14)
C75A C -0.7266(14) 1.0358(12) 0.6358(12)
H44A H -0.7032 1.0935 0.5758
H47A H -0.8948 1.1905 0.7795
C78A C -0.9584(17) 1.2282(15) 0.8712(15)
C79A C -1.0447(19) 1.3349(16) 0.8916(17)
H48A H -1.0332 1.3724 0.8100
H83A H -0.6590 1.2394 0.8477
C102A C -0.5995(14) 1.2091(12) 0.7567(13)
H84A H -0.5186 1.1823 0.6618
H81A H -0.6191 1.0377 0.3238
C101A C -0.7224(15) 1.0593(12) 0.3889(13)
H82A H -0.8126 1.0592 0.4462
H87A H -0.5912 0.6940 0.3916
C104A C -0.6909(17) 0.7628(14) 0.4480(14)
H88A H -0.7923 0.8447 0.4851
H23A H -1.0506 0.9372 0.8491
C27A C -1.0194(19) 0.8897(16) 0.7675(16)
H24A H -0.9650 0.8287 0.6900
H71A H -0.6630 0.9078 0.6426
C96A C -0.7585(16) 0.9620(14) 0.7133(14)
H72A H -0.8493 1.0013 0.8029
H73A H -0.9187 0.6157 0.7761
C97A C -0.8178(19) 0.5468(15) 0.7113(16)
H74A H -0.7121 0.4949 0.6522
H75A H -0.7643 0.8480 0.5538
C98A C -0.6871(16) 0.7552(14) 0.5082(14)
H76A H -0.6151 0.6598 0.4828
H21A H -1.1429 1.3220 0.7496
C26A C -1.0750(16) 1.2396(13) 0.6810(14)
H22A H -0.9966 1.1718 0.6129
H61A H -0.8342 1.1774 0.4327
C91A C -0.7343(16) 1.1183(13) 0.4195(14)
H62A H -0.6371 1.0846 0.4188
H63A H -0.5709 1.1458 0.6546
C92A C -0.6497(15) 1.2046(12) 0.7418(13)
H64A H -0.7432 1.2620 0.8210
H65A H -0.8892 1.0643 0.7374
C93A C -0.7772(16) 1.0243(13) 0.6877(14)
H66A H -0.6778 1.0030 0.6175
H69A H -0.9367 1.1895 0.8852
C95A C -1.0127(16) 1.2808(13) 0.9151(14)
H70A H -1.0860 1.3722 0.9195
C22A C -1.0886(16) 0.9237(13) 0.7686(14)
C103A C -0.836(2) 0.4882(17) 0.7196(17)
C21A C -1.1244(18) 1.2123(14) 0.7123(15)
C100A C -1.0460(16) 1.2760(13) 0.9807(14)
C13A C -1.1566(17) 0.9422(14) 0.8233(15)
C14A C -1.0916(15) 0.9395(12) 0.7153(14)
C109A C -0.9055(18) 0.5073(15) 0.7388(14)
C110A C -0.7813(18) 0.4311(15) 0.7066(15)
C11A C -1.1827(16) 1.2319(14) 0.7676(14)
C12A C -1.1074(16) 1.1542(13) 0.6791(14)
C88A C -1.0808(19) 1.3273(17) 1.0262(17)
C89A C -1.0426(15) 1.2198(13) 1.0027(13)
C3A C -1.2205(16) 0.9770(12) 0.8221(14)
H13A H -1.1577 0.9298 0.8619
H14A H -1.0486 0.9270 0.6763
C4A C -1.1623(14) 0.9764(12) 0.7183(13)
C117A C -0.9158(16) 0.4529(13) 0.7379(13)
H85A H -0.9428 0.5503 0.7512
H86A H -0.7345 0.4257 0.6919
C118A C -0.7916(19) 0.3805(16) 0.7142(15)
C1A C -1.2240(16) 1.2034(13) 0.7937(14)
H11A H -1.1971 1.2695 0.7913
H12A H -1.0686 1.1383 0.6373
C2A C -1.1443(15) 1.1238(13) 0.7054(13)
C66A C -1.1181(17) 1.3266(15) 1.0985(15)
H79A H -1.0822 1.3660 1.0126
H80A H -1.0175 1.1834 0.9722
C67A C -1.0726(16) 1.2124(14) 1.0654(14)
N2A N -1.2217(13) 0.9942(10) 0.7697(11)
H3A H -1.2646 0.9891 0.8599
H4A H -1.1642 0.9876 0.6805
N23A N -0.8590(14) 0.3919(12) 0.7236(12)
H93A H -0.9618 0.4594 0.7472
H94A H -0.7558 0.3395 0.7133
N1A N -1.2065(12) 1.1497(10) 0.7607(11)
H1A H -1.2648 1.2204 0.8344
H2A H -1.1272 1.0831 0.6854
N20A N -1.1076(13) 1.2668(11) 1.1090(12)
H57A H -1.1440 1.3622 1.1302
H58A H -1.0697 1.1730 1.0781
O2A O -1.2838(10) 1.0310(8) 0.7719(8)
O19A_2 O -0.8712(10) 0.3432(8) 0.7259(9)
O1A O -1.2453(9) 1.1200(8) 0.7895(8)
O24_2 O -1.1386(10) 1.2646(8) 1.1683(9)
Dy1A_3 Dy -1.35131(7) 1.14371(6) 0.79032(7)
Dy2A_3 Dy -0.84516(8) 0.28278(6) 0.63957(7)
Dy3_3 Dy -1.25722(8) 1.27976(6) 1.23153(7)
O3A O -1.3702(9) 1.1178(8) 0.8921(8)
O5A O -1.3900(9) 1.2368(8) 0.8544(8)
O4A_2 O -1.4394(9) 1.1132(8) 0.8251(8)
O6A_2 O -1.3301(10) 1.1087(8) 0.6937(8)
O7A_2 O -1.4530(9) 1.2283(8) 0.7855(8)
O8A_2 O -1.3013(9) 1.2020(8) 0.7165(8)
O11A_2 O -1.2413(9) 1.2849(8) 1.1288(8)
N3A N -1.3543(12) 1.1379(9) 0.9289(10)
N5A N -1.4386(13) 1.2972(11) 0.8541(11)
N8A N -1.2626(13) 1.2580(11) 1.1033(11)
C5A C -1.2891(15) 1.1128(13) 0.9194(13)
C6A C -1.4102(18) 1.1849(14) 0.9775(14)
C9A C -1.4089(15) 1.3280(12) 0.8072(12)
C10A C -1.5079(16) 1.3199(14) 0.8904(14)
C42A C -1.2202(19) 1.2009(15) 1.0695(16)
C43A C -1.3327(16) 1.2974(14) 1.1088(13)
H5A H -1.2517 1.0785 0.8860
C15A C -1.2718(15) 1.1344(12) 0.9563(12)
C16A C -1.3963(19) 1.2081(15) 1.0191(16)
H6A H -1.4579 1.2023 0.9840
H9A H -1.3582 1.3094 0.7810
C19A C -1.4565(15) 1.3879(13) 0.7997(13)
C20A C -1.5538(18) 1.3764(13) 0.8854(18)
H10A H -1.5255 1.2960 0.9205
H33A H -1.1738 1.1759 1.0664
C34A C -1.2406(16) 1.1758(14) 1.0381(14)
C35A C -1.3471(16) 1.2668(13) 1.0736(13)
H34A H -1.3657 1.3388 1.1328
H15A H -1.2229 1.1157 0.9473
C23A C -1.3254(17) 1.1835(14) 1.0065(14)
H16A H -1.4349 1.2397 1.0546
H19A H -1.4385 1.4121 0.7705
C25A C -1.5268(14) 1.4091(12) 0.8347(12)
H20A H -1.6038 1.3953 0.9146
H25A H -1.2086 1.1344 1.0142
C28A C -1.3048(15) 1.2098(12) 1.0418(13)
H26A H -1.3919 1.2905 1.0735
C29A C -1.5806(15) 1.4660(12) 0.8231(13)
C36A C -1.6445(15) 1.5085(13) 0.8712(14)
C37A C -1.5645(16) 1.4775(13) 0.7618(14)
C44A C -1.6948(17) 1.5615(14) 0.8613(14)
H27A H -1.6549 1.5015 0.9132
H28A H -1.5182 1.4513 0.7275
C45A C -1.6187(15) 1.5293(13) 0.7515(14)
N9A N -1.6792(12) 1.5705(10) 0.7997(11)
H35A H -1.7388 1.5909 0.8956
H36A H -1.6114 1.5343 0.7099
O12A_2 O -1.7255(10) 1.6180(9) 0.7860(9)
Dy3A_3 Dy -1.74278(8) 1.72024(6) 0.76847(7)
loop_
_geom_bond_atom_site_label_1
_geom_bond_atom_site_label_2
_geom_bond_site_symmetry_1
_geom_bond_site_symmetry_2
Dy1 O1 1_555 1_555
O1 N1 1_555 1_555
O2 Dy1 1_555 1_555
O3 Dy1 1_555 1_555
O4 Dy1 1_555 1_555
O5 Dy1 1_555 1_555
O6 Dy1 1_555 1_555
O7 Dy1 1_555 1_555
O8 Dy1 1_555 1_555
N1 C1 1_555 1_555
N2 O2 1_555 1_555
N3 O3 1_555 1_555
N4 O4 1_555 1_555
N5 O5 1_555 1_555
C1 H1 1_555 1_555
C2 N1 1_555 1_555
C3 N2 1_555 1_555
C4 N2 1_555 1_555
C5 N3 1_555 1_555
C6 N3 1_555 1_555
C7 N4 1_555 1_555
C8 N4 1_555 1_555
C9 N5 1_555 1_555
C10 N5 1_555 1_555
C11 C1 1_555 1_555
C12 C2 1_555 1_555
H2 C2 1_555 1_555
H3 C3 1_555 1_555
C13 C3 1_555 1_555
C14 C4 1_555 1_555
H4 C4 1_555 1_555
H5 C5 1_555 1_555
C15 C5 1_555 1_555
C16 C6 1_555 1_555
H6 C6 1_555 1_555
H7 C7 1_555 1_555
C17 C7 1_555 1_555
C18 C8 1_555 1_555
H8 C8 1_555 1_555
H9 C9 1_555 1_555
C19 C9 1_555 1_555
C20 C10 1_555 1_555
H10 C10 1_555 1_555
H11 C11 1_555 1_555
C21 C11 1_555 1_555
H12 C12 1_555 1_555
H13 C13 1_555 1_555
C22 C13 1_555 1_555
H14 C14 1_555 1_555
H15 C15 1_555 1_555
C23 C15 1_555 1_555
H16 C16 1_555 1_555
H17 C17 1_555 1_555
C24 C17 1_555 1_555
H18 C18 1_555 1_555
H19 C19 1_555 1_555
C25 C19 1_555 1_555
H20 C20 1_555 1_555
C26 C21 1_555 1_555
C27 C22 1_555 1_555
C28 C23 1_555 1_555
C29 C25 1_555 1_555
C30 C26 1_555 1_555
C31 C26 1_555 1_555
C32 C27 1_555 1_555
C33 C27 1_555 1_555
C34 C28 1_555 1_555
C35 C28 1_555 1_555
C36 C29 1_555 1_555
C37 C29 1_555 1_555
C38 C30 1_555 1_555
H21 C30 1_555 1_555
H22 C31 1_555 1_555
C39 C31 1_555 1_555
C40 C32 1_555 1_555
H23 C32 1_555 1_555
H24 C33 1_555 1_555
C41 C33 1_555 1_555
C42 C34 1_555 1_555
H25 C34 1_555 1_555
H26 C35 1_555 1_555
C43 C35 1_555 1_555
C44 C36 1_555 1_555
H27 C36 1_555 1_555
H28 C37 1_555 1_555
C45 C37 1_555 1_555
N6 C38 1_555 1_555
H29 C38 1_555 1_555
H30 C39 1_555 1_555
N7 C40 1_555 1_555
H31 C40 1_555 1_555
H32 C41 1_555 1_555
N8 C42 1_555 1_555
H33 C42 1_555 1_555
H34 C43 1_555 1_555
N9 C44 1_555 1_555
H35 C44 1_555 1_555
H36 C45 1_555 1_555
O9 N6 1_555 1_555
O10 N7 1_555 1_555
O11 N8 1_555 1_555
O12 N9 1_555 1_555
Dy2 O9 1_555 1_555
Dy3 O10 1_555 1_555
O13 Dy2 1_555 1_555
O14 Dy2 1_555 1_555
O15 Dy2 1_555 1_555
O16 Dy2 1_555 1_555
O17 Dy2 1_555 1_555
O18 Dy2 1_555 1_555
O19 Dy2 1_555 1_555
O20 Dy3 1_555 1_555
O21 Dy3 1_555 1_555
O22 Dy3 1_555 1_555
O23 Dy3 1_555 1_555
O24 Dy3 1_555 1_555
N10 O13 1_555 1_555
N11 O14 1_555 1_555
N12 O15 1_555 1_555
N13 O16 1_555 1_555
N14 O17 1_555 1_555
N15 O18 1_555 1_555
N16 O20 1_555 1_555
N17 O21 1_555 1_555
N18 O22 1_555 1_555
N19 O23 1_555 1_555
N20 C66 1_555 1_555
C46 N10 1_555 1_555
C47 N10 1_555 1_555
C48 N11 1_555 1_555
C49 N11 1_555 1_555
C50 N12 1_555 1_555
C51 N12 1_555 1_555
C52 N13 1_555 1_555
C53 N13 1_555 1_555
C54 N14 1_555 1_555
C55 N14 1_555 1_555
C56 N15 1_555 1_555
C57 N15 1_555 1_555
C58 N16 1_555 1_555
C59 N16 1_555 1_555
C60 N17 1_555 1_555
C61 N17 1_555 1_555
C62 N18 1_555 1_555
C63 N18 1_555 1_555
C64 N19 1_555 1_555
C65 N19 1_555 1_555
C66 H57 1_555 1_555
C67 N20 1_555 1_555
H37 C46 1_555 1_555
C68 C46 1_555 1_555
C69 C47 1_555 1_555
H38 C47 1_555 1_555
H39 C48 1_555 1_555
C70 C48 1_555 1_555
C71 C49 1_555 1_555
H40 C49 1_555 1_555
H41 C50 1_555 1_555
C72 C50 1_555 1_555
C73 C51 1_555 1_555
H42 C51 1_555 1_555
H43 C52 1_555 1_555
C74 C52 1_555 1_555
C75 C53 1_555 1_555
H44 C53 1_555 1_555
H45 C54 1_555 1_555
C76 C54 1_555 1_555
C77 C55 1_555 1_555
H46 C55 1_555 1_555
H47 C56 1_555 1_555
C78 C56 1_555 1_555
C79 C57 1_555 1_555
H48 C57 1_555 1_555
H49 C58 1_555 1_555
C80 C58 1_555 1_555
C81 C59 1_555 1_555
H50 C59 1_555 1_555
H51 C60 1_555 1_555
C82 C60 1_555 1_555
C83 C61 1_555 1_555
H52 C61 1_555 1_555
H53 C62 1_555 1_555
C84 C62 1_555 1_555
C85 C63 1_555 1_555
H54 C63 1_555 1_555
H55 C64 1_555 1_555
C86 C64 1_555 1_555
C87 C65 1_555 1_555
H56 C65 1_555 1_555
C88 C66 1_555 1_555
C89 C67 1_555 1_555
H58 C67 1_555 1_555
H59 C68 1_555 1_555
C90 C68 1_555 1_555
H60 C69 1_555 1_555
H61 C70 1_555 1_555
C91 C70 1_555 1_555
H62 C71 1_555 1_555
H63 C72 1_555 1_555
C92 C72 1_555 1_555
H64 C73 1_555 1_555
H65 C74 1_555 1_555
C93 C74 1_555 1_555
H66 C75 1_555 1_555
H67 C76 1_555 1_555
C94 C76 1_555 1_555
H68 C77 1_555 1_555
H69 C78 1_555 1_555
C95 C78 1_555 1_555
H70 C79 1_555 1_555
H71 C80 1_555 1_555
C96 C80 1_555 1_555
H72 C81 1_555 1_555
H73 C82 1_555 1_555
C97 C82 1_555 1_555
H74 C83 1_555 1_555
H75 C84 1_555 1_555
C98 C84 1_555 1_555
H76 C85 1_555 1_555
H77 C86 1_555 1_555
C99 C86 1_555 1_555
H78 C87 1_555 1_555
H79 C88 1_555 1_555
C100 C88 1_555 1_555
H80 C89 1_555 1_555
C101 C91 1_555 1_555
C102 C92 1_555 1_555
C103 C97 1_555 1_555
C104 C98 1_555 1_555
C105 C101 1_555 1_555
C106 C101 1_555 1_555
C107 C102 1_555 1_555
C108 C102 1_555 1_555
C109 C103 1_555 1_555
C110 C103 1_555 1_555
C111 C104 1_555 1_555
C112 C104 1_555 1_555
C113 C105 1_555 1_555
H81 C105 1_555 1_555
H82 C106 1_555 1_555
C114 C106 1_555 1_555
C115 C107 1_555 1_555
H83 C107 1_555 1_555
H84 C108 1_555 1_555
C116 C108 1_555 1_555
C117 C109 1_555 1_555
H85 C109 1_555 1_555
H86 C110 1_555 1_555
C118 C110 1_555 1_555
C119 C111 1_555 1_555
H87 C111 1_555 1_555
H88 C112 1_555 1_555
C120 C112 1_555 1_555
N21 C113 1_555 1_555
H89 C113 1_555 1_555
H90 C114 1_555 1_555
N22 C115 1_555 1_555
H91 C115 1_555 1_555
H92 C116 1_555 1_555
N23 C117 1_555 1_555
H93 C117 1_555 1_555
H94 C118 1_555 1_555
N24 C119 1_555 1_555
H95 C119 1_555 1_555
H96 C120 1_555 1_555
S1 O25 1_555 1_555
O26 S1 1_555 1_555
O27 S1 1_555 1_555
C121 S1 1_555 1_555
F1 C121 1_555 1_555
F2 C121 1_555 1_555
F3 C121 1_555 1_555
S2 O28 1_555 1_555
O29 S2 1_555 1_555
O30 S2 1_555 1_555
C122 S2 1_555 1_555
F4 C122 1_555 1_555
F5 C122 1_555 1_555
F6 C122 1_555 1_555
S3 O31 1_555 1_555
O32 S3 1_555 1_555
O33 S3 1_555 1_555
C123 S3 1_555 1_555
F7 C123 1_555 1_555
F8 C123 1_555 1_555
F9 C123 1_555 1_555
S4 O34 1_555 1_555
O35 S4 1_555 1_555
O36 S4 1_555 1_555
C124 S4 1_555 1_555
F10 C124 1_555 1_555
F11 C124 1_555 1_555
F12 C124 1_555 1_555
S5 O37 1_555 1_555
O38 S5 1_555 1_555
O39 S5 1_555 1_555
C125 S5 1_555 1_555
F13 C125 1_555 1_555
F14 C125 1_555 1_555
F15 C125 1_555 1_555
S6 O40 1_555 1_555
O41 S6 1_555 1_555
O42 S6 1_555 1_555
C126 S6 1_555 1_555
F16 C126 1_555 1_555
F17 C126 1_555 1_555
F18 C126 1_555 1_555
C24A C24 1_555 1_555
C17A C24A 1_555 1_555
C18A C24A 1_555 1_555
C7A C17A 1_555 1_555
H17A C17A 1_555 1_555
H18A C18A 1_555 1_555
C8A C18A 1_555 1_555
N4A C7A 1_555 1_555
H7A C7A 1_555 1_555
H8A C8A 1_555 1_555
O4A N4A 1_555 1_555
Dy3A O11 1_555 1_555
Dy1A O4A 1_555 1_555
Dy3_2 O12 1_555 1_555
O11A Dy3 1_555 1_555
O12_2 Dy3 1_555 1_555
O24A N20 1_555 1_555
C90A C90 1_555 1_555
C99A C94 1_555 1_555
C94A C99 1_555 1_555
C68A C90A 1_555 1_555
C69A C90A 1_555 1_555
C86A C99A 1_555 1_555
C87A C99A 1_555 1_555
C76A C94A 1_555 1_555
C77A C94A 1_555 1_555
C46A C68A 1_555 1_555
H59A C68A 1_555 1_555
H60A C69A 1_555 1_555
C47A C69A 1_555 1_555
C64A C86A 1_555 1_555
H77A C86A 1_555 1_555
H78A C87A 1_555 1_555
C65A C87A 1_555 1_555
C54A C76A 1_555 1_555
H67A C76A 1_555 1_555
H68A C77A 1_555 1_555
C55A C77A 1_555 1_555
N10A C46A 1_555 1_555
H37A C46A 1_555 1_555
H38A C47A 1_555 1_555
H55A C64A 1_555 1_555
N19A C64A 1_555 1_555
H56A C65A 1_555 1_555
N14A C54A 1_555 1_555
H45A C54A 1_555 1_555
H46A C55A 1_555 1_555
O13A N10A 1_555 1_555
O6A N21 1_555 1_555
O7_2 N22 1_555 1_555
O23A N19A 1_555 1_555
O19_2 N23 1_555 1_555
O8A N24 1_555 1_555
O17A N14A 1_555 1_555
Dy2A O13A 1_555 1_555
Dy1A_2 O6A 1_555 1_555
Dy1_2 O7_2 1_555 1_555
Dy3A_2 O23A 1_555 1_555
Dy2_2 O19_2 1_555 1_555
Dy2A_2 O17A 1_555 1_555
O7A Dy1A_2 1_555 1_555
O6_2 Dy1_2 1_555 1_555
O8_2 Dy1_2 1_555 1_555
O10A Dy3A_2 1_555 1_555
O20A Dy3A_2 1_555 1_555
O21A Dy3A_2 1_555 1_555
O22A Dy3A_2 1_555 1_555
O11_2 Dy3A_2 1_555 1_555
O12A Dy3A_2 1_555 1_555
O24A_2 Dy3A_2 1_555 1_555
O9A Dy2A_2 1_555 1_555
O14A Dy2A_2 1_555 1_555
O15A Dy2A_2 1_555 1_555
O16A Dy2A_2 1_555 1_555
O18A Dy2A_2 1_555 1_555
O13A_2 Dy2A_2 1_555 1_555
O19A Dy2A_2 1_555 1_555
N22A O7A 1_555 1_555
N21A O6_2 1_555 1_555
N24A O8_2 1_555 1_555
N7A O10A 1_555 1_555
N16A O20A 1_555 1_555
N17A O21A 1_555 1_555
N18A O22A 1_555 1_555
N6A O9A 1_555 1_555
N11A O14A 1_555 1_555
N12A O15A 1_555 1_555
N13A O16A 1_555 1_555
N15A O18A 1_555 1_555
C115A N22A 1_555 1_555
C116A N22A 1_555 1_555
C113A N21A 1_555 1_555
C114A N21A 1_555 1_555
C119A N24A 1_555 1_555
C120A N24A 1_555 1_555
C40A N7A 1_555 1_555
C41A N7A 1_555 1_555
C58A N16A 1_555 1_555
C59A N16A 1_555 1_555
C60A N17A 1_555 1_555
C61A N17A 1_555 1_555
C62A N18A 1_555 1_555
C63A N18A 1_555 1_555
C38A N6A 1_555 1_555
C39A N6A 1_555 1_555
C48A N11A 1_555 1_555
C49A N11A 1_555 1_555
C50A N12A 1_555 1_555
C51A N12A 1_555 1_555
C52A N13A 1_555 1_555
C53A N13A 1_555 1_555
C56A N15A 1_555 1_555
C57A N15A 1_555 1_555
H91A C115A 1_555 1_555
C107A C115A 1_555 1_555
C108A C116A 1_555 1_555
H92A C116A 1_555 1_555
H89A C113A 1_555 1_555
C105A C113A 1_555 1_555
C106A C114A 1_555 1_555
H90A C114A 1_555 1_555
H95A C119A 1_555 1_555
C111A C119A 1_555 1_555
C112A C120A 1_555 1_555
H96A C120A 1_555 1_555
H31A C40A 1_555 1_555
C32A C40A 1_555 1_555
C33A C41A 1_555 1_555
H32A C41A 1_555 1_555
H49A C58A 1_555 1_555
C80A C58A 1_555 1_555
C81A C59A 1_555 1_555
H50A C59A 1_555 1_555
H51A C60A 1_555 1_555
C82A C60A 1_555 1_555
C83A C61A 1_555 1_555
H52A C61A 1_555 1_555
H53A C62A 1_555 1_555
C84A C62A 1_555 1_555
C85A C63A 1_555 1_555
H54A C63A 1_555 1_555
H29A C38A 1_555 1_555
C30A C38A 1_555 1_555
C31A C39A 1_555 1_555
H30A C39A 1_555 1_555
H39A C48A 1_555 1_555
C70A C48A 1_555 1_555
C71A C49A 1_555 1_555
H40A C49A 1_555 1_555
H41A C50A 1_555 1_555
C72A C50A 1_555 1_555
C73A C51A 1_555 1_555
H42A C51A 1_555 1_555
H43A C52A 1_555 1_555
C74A C52A 1_555 1_555
C75A C53A 1_555 1_555
H44A C53A 1_555 1_555
H47A C56A 1_555 1_555
C78A C56A 1_555 1_555
C79A C57A 1_555 1_555
H48A C57A 1_555 1_555
H83A C107A 1_555 1_555
C102A C107A 1_555 1_555
H84A C108A 1_555 1_555
H81A C105A 1_555 1_555
C101A C105A 1_555 1_555
H82A C106A 1_555 1_555
H87A C111A 1_555 1_555
C104A C111A 1_555 1_555
H88A C112A 1_555 1_555
H23A C32A 1_555 1_555
C27A C32A 1_555 1_555
H24A C33A 1_555 1_555
H71A C80A 1_555 1_555
C96A C80A 1_555 1_555
H72A C81A 1_555 1_555
H73A C82A 1_555 1_555
C97A C82A 1_555 1_555
H74A C83A 1_555 1_555
H75A C84A 1_555 1_555
C98A C84A 1_555 1_555
H76A C85A 1_555 1_555
H21A C30A 1_555 1_555
C26A C30A 1_555 1_555
H22A C31A 1_555 1_555
H61A C70A 1_555 1_555
C91A C70A 1_555 1_555
H62A C71A 1_555 1_555
H63A C72A 1_555 1_555
C92A C72A 1_555 1_555
H64A C73A 1_555 1_555
H65A C74A 1_555 1_555
C93A C74A 1_555 1_555
H66A C75A 1_555 1_555
H69A C78A 1_555 1_555
C95A C78A 1_555 1_555
H70A C79A 1_555 1_555
C22A C27A 1_555 1_555
C103A C97A 1_555 1_555
C21A C26A 1_555 1_555
C100A C95A 1_555 1_555
C13A C22A 1_555 1_555
C14A C22A 1_555 1_555
C109A C103A 1_555 1_555
C110A C103A 1_555 1_555
C11A C21A 1_555 1_555
C12A C21A 1_555 1_555
C88A C100A 1_555 1_555
C89A C100A 1_555 1_555
C3A C13A 1_555 1_555
H13A C13A 1_555 1_555
H14A C14A 1_555 1_555
C4A C14A 1_555 1_555
C117A C109A 1_555 1_555
H85A C109A 1_555 1_555
H86A C110A 1_555 1_555
C118A C110A 1_555 1_555
C1A C11A 1_555 1_555
H11A C11A 1_555 1_555
H12A C12A 1_555 1_555
C2A C12A 1_555 1_555
C66A C88A 1_555 1_555
H79A C88A 1_555 1_555
H80A C89A 1_555 1_555
C67A C89A 1_555 1_555
N2A C3A 1_555 1_555
H3A C3A 1_555 1_555
H4A C4A 1_555 1_555
N23A C117A 1_555 1_555
H93A C117A 1_555 1_555
H94A C118A 1_555 1_555
N1A C1A 1_555 1_555
H1A C1A 1_555 1_555
H2A C2A 1_555 1_555
N20A C66A 1_555 1_555
H57A C66A 1_555 1_555
H58A C67A 1_555 1_555
O2A N2A 1_555 1_555
O19A_2 N23A 1_555 1_555
O1A N1A 1_555 1_555
O24_2 N20A 1_555 1_555
Dy1A_3 O2A 1_555 1_555
Dy2A_3 O19A_2 1_555 1_555
Dy3_3 O24_2 1_555 1_555
O3A Dy1A_3 1_555 1_555
O5A Dy1A_3 1_555 1_555
O4A_2 Dy1A_3 1_555 1_555
O6A_2 Dy1A_3 1_555 1_555
O7A_2 Dy1A_3 1_555 1_555
O8A_2 Dy1A_3 1_555 1_555
O11A_2 Dy3_3 1_555 1_555
N3A O3A 1_555 1_555
N5A O5A 1_555 1_555
N8A O11A_2 1_555 1_555
C5A N3A 1_555 1_555
C6A N3A 1_555 1_555
C9A N5A 1_555 1_555
C10A N5A 1_555 1_555
C42A N8A 1_555 1_555
C43A N8A 1_555 1_555
H5A C5A 1_555 1_555
C15A C5A 1_555 1_555
C16A C6A 1_555 1_555
H6A C6A 1_555 1_555
H9A C9A 1_555 1_555
C19A C9A 1_555 1_555
C20A C10A 1_555 1_555
H10A C10A 1_555 1_555
H33A C42A 1_555 1_555
C34A C42A 1_555 1_555
C35A C43A 1_555 1_555
H34A C43A 1_555 1_555
H15A C15A 1_555 1_555
C23A C15A 1_555 1_555
H16A C16A 1_555 1_555
H19A C19A 1_555 1_555
C25A C19A 1_555 1_555
H20A C20A 1_555 1_555
H25A C34A 1_555 1_555
C28A C34A 1_555 1_555
H26A C35A 1_555 1_555
C29A C25A 1_555 1_555
C36A C29A 1_555 1_555
C37A C29A 1_555 1_555
C44A C36A 1_555 1_555
H27A C36A 1_555 1_555
H28A C37A 1_555 1_555
C45A C37A 1_555 1_555
N9A C44A 1_555 1_555
H35A C44A 1_555 1_555
H36A C45A 1_555 1_555
O12A_2 N9A 1_555 1_555
Dy3A_3 O12A_2 1_555 1_555
C12 C21 1_555 1_555
C14 C22 1_555 1_555
C16 C23 1_555 1_555
C18 C24 1_555 1_555
C20 C25 1_555 1_555
C39 N6 1_555 1_555
C41 N7 1_555 1_555
C43 N8 1_555 1_555
C45 N9 1_555 1_555
C69 C90 1_555 1_555
C71 C91 1_555 1_555
C73 C92 1_555 1_555
C75 C93 1_555 1_555
C77 C94 1_555 1_555
C79 C95 1_555 1_555
C81 C96 1_555 1_555
C83 C97 1_555 1_555
C85 C98 1_555 1_555
C87 C99 1_555 1_555
C89 C100 1_555 1_555
C93 C96 1_555 1_555
C95 C100 1_555 1_555
C114 N21 1_555 1_555
C116 N22 1_555 1_555
C118 N23 1_555 1_555
C120 N24 1_555 1_555
C8A N4A 1_555 1_555
Dy3A O24A 1_555 1_555
C47A N10A 1_555 1_555
C65A N19A 1_555 1_555
C55A N14A 1_555 1_555
O8A Dy1A_2 1_555 1_555
C108A C102A 1_555 1_555
C106A C101A 1_555 1_555
C112A C104A 1_555 1_555
C33A C27A 1_555 1_555
C81A C96A 1_555 1_555
C83A C97A 1_555 1_555
C85A C98A 1_555 1_555
C31A C26A 1_555 1_555
C71A C91A 1_555 1_555
C73A C92A 1_555 1_555
C75A C93A 1_555 1_555
C79A C95A 1_555 1_555
C102A C92A 1_555 1_555
C101A C91A 1_555 1_555
C104A C98A 1_555 1_555
C96A C93A 1_555 1_555
C4A N2A 1_555 1_555
C118A N23A 1_555 1_555
C2A N1A 1_555 1_555
C67A N20A 1_555 1_555
O1A Dy1A_3 1_555 1_555
C16A C23A 1_555 1_555
C20A C25A 1_555 1_555
C35A C28A 1_555 1_555
C23A C28A 1_555 1_555
C45A N9A 1_555 1_555

#END
