
#######################################################################
#
#                 Cambridge Crystallographic Data Centre
#                                CCDC 
#
#######################################################################
#
# If this CIF has been generated from an entry in the Cambridge 
# Structural Database, then it will include bibliographic, chemical, 
# crystal, experimental, refinement or atomic coordinate data resulting 
# from the CCDC's data processing and validation procedures.
#
#######################################################################

data_BIZMEE
_symmetry_cell_setting           triclinic
_symmetry_space_group_name_H-M   'P -1'
_symmetry_Int_Tables_number      2
_space_group_name_Hall           '-P 1'
loop_
_symmetry_equiv_pos_site_id
_symmetry_equiv_pos_as_xyz
1 x,y,z
2 -x,-y,-z
_cell_length_a                   24.0300(8)
_cell_length_b                   24.1348(6)
_cell_length_c                   24.3922(9)
_cell_angle_alpha                85.032(2)
_cell_angle_beta                 61.325(4)
_cell_angle_gamma                61.265(3)
_cell_volume                     10690.5
loop_
_atom_site_label
_atom_site_type_symbol
_atom_site_fract_x
_atom_site_fract_y
_atom_site_fract_z
S1 S 0.0442(3) 0.8552(3) 0.1446(3)
O25 O 0.0309(7) 0.8310(5) 0.2030(5)
O26 O -0.0184(6) 0.8839(5) 0.1343(6)
O27 O 0.1127(6) 0.8103(6) 0.0892(6)
C121 C 0.0555(6) 0.9232(4) 0.1535(5)
F1 F 0.0757(7) 0.9448(5) 0.0991(5)
F2 F -0.0075(5) 0.9706(4) 0.1982(5)
F3 F 0.1068(6) 0.9046(6) 0.1690(7)
S2 S 0.1398(4) 1.0254(3) -0.0111(3)
O28 O 0.0630(5) 1.0735(6) 0.0262(6)
O29 O 0.1790(8) 1.0080(8) 0.0237(7)
O30 O 0.1510(9) 0.9689(6) -0.0422(7)
C122 C 0.1813(6) 1.0617(5) -0.0756(5)
F4 F 0.1548(8) 1.0727(7) -0.1145(6)
F5 F 0.1682(9) 1.1168(6) -0.0523(7)
F6 F 0.2531(5) 1.0228(6) -0.1097(6)
S3 S -0.0783(4) 1.0333(3) 0.4250(3)
O31 O -0.1409(8) 1.0356(9) 0.4802(6)
O32 O -0.0861(10) 1.0964(6) 0.4154(8)
O33 O -0.0086(8) 0.9861(8) 0.4205(10)
C123 C -0.0730(9) 1.0035(7) 0.3548(6)
F7 F -0.1287(11) 1.0460(9) 0.3480(10)
F8 F -0.0701(12) 0.9478(7) 0.3587(9)
F9 F -0.0113(11) 0.9959(12) 0.3034(5)
S4 S -0.5595(4) 0.8481(4) 0.4988(4)
O34 O -0.5847(10) 0.8066(8) 0.5366(9)
O35 O -0.5575(10) 0.8913(7) 0.5345(9)
O36 O -0.4930(7) 0.8142(9) 0.4380(6)
C124 C -0.6302(7) 0.8995(6) 0.4779(6)
F10 F -0.6329(11) 0.8625(9) 0.4430(10)
F11 F -0.6952(6) 0.9316(8) 0.5295(8)
F12 F -0.6135(9) 0.9406(7) 0.4440(8)
S5 S -0.4315(5) 1.6182(4) 0.3372(5)
O37 O -0.4507(11) 1.6572(8) 0.2938(8)
O38 O -0.4853(9) 1.5995(8) 0.3784(8)
O39 O -0.3565(7) 1.5663(7) 0.3085(9)
C125 C -0.4391(9) 1.6725(7) 0.3922(7)
F13 F -0.3906(10) 1.6914(9) 0.3607(9)
F14 F -0.4260(16) 1.6413(11) 0.4356(9)
F15 F -0.5059(9) 1.7239(8) 0.4198(10)
S6 S 0.7996(6) 0.5395(5) 0.0531(5)
O40 O 0.8354(17) 0.4698(6) 0.0411(12)
O41 O 0.8505(14) 0.5634(15) 0.0283(10)
O42 O 0.7451(12) 0.5693(14) 0.0325(11)
C126 C 0.7475(10) 0.5652(9) 0.1391(6)
F16 F 0.7674(15) 0.5998(13) 0.1568(9)
F17 F 0.6761(8) 0.6013(13) 0.1595(9)
F18 F 0.7577(16) 0.5149(11) 0.1679(8)
O43 O -0.0683(7) 1.0767(6) 0.0648(6)
O44 O 0.0281(8) 1.1627(7) 0.4433(7)
O45 O 0.1519(7) 0.4840(6) 0.2063(7)
Ho1 Ho 0.36089(3) 0.84689(2) 0.20156(3)
O1 O 0.2517(4) 0.8745(4) 0.2066(4)
O2 O 0.2957(5) 0.9609(4) 0.2218(4)
O3 O 0.3805(5) 0.8709(4) 0.0995(4)
O4 O 0.4509(5) 0.8755(4) 0.1643(4)
O5 O 0.3998(5) 0.7539(4) 0.1372(4)
O6 O 0.3396(5) 0.8824(4) 0.2991(4)
O7 O 0.4604(4) 0.7640(4) 0.2086(4)
O8 O 0.3083(5) 0.7924(4) 0.2755(4)
N1 N 0.2122(5) 0.8461(5) 0.2307(5)
N2 N 0.2303(6) 0.9984(4) 0.2246(5)
N3 N 0.3641(6) 0.8503(5) 0.0633(5)
N4 N 0.4638(6) 0.9100(5) 0.1192(5)
N5 N 0.4453(6) 0.6934(4) 0.1394(5)
C1 C 0.2313(7) 0.7926(6) 0.1967(7)
C2 C 0.1528(7) 0.8710(6) 0.2897(7)
C3 C 0.2298(7) 1.0181(6) 0.1710(6)
C4 C 0.1701(6) 1.0159(6) 0.2788(6)
C5 C 0.2967(7) 0.8795(6) 0.0729(6)
C6 C 0.4187(7) 0.7992(7) 0.0155(7)
C7 C 0.4253(7) 0.9743(6) 0.1354(7)
C8 C 0.5159(8) 0.8796(7) 0.0596(7)
C9 C 0.4154(7) 0.6630(6) 0.1816(7)
C10 C 0.5169(7) 0.6692(6) 0.1034(6)
H1 H 0.2745 0.7744 0.1560
C11 C 0.1888(8) 0.7640(6) 0.2204(8)
C12 C 0.1101(8) 0.8438(7) 0.3161(7)
H2 H 0.1407 0.9083 0.3132
H3 H 0.2746 1.0077 0.1331
C13 C 0.1657(7) 1.0525(6) 0.1713(7)
C14 C 0.1011(8) 1.0537(7) 0.2832(7)
H4 H 0.1728 1.0032 0.3158
H5 H 0.2597 0.9163 0.1058
C15 C 0.2785(7) 0.8592(6) 0.0378(6)
C16 C 0.4031(7) 0.7757(7) -0.0216(7)
H6 H 0.4676 0.7796 0.0076
H7 H 0.3895 0.9949 0.1784
C17 C 0.4391(8) 1.0105(6) 0.0875(7)
C18 C 0.5303(8) 0.9152(6) 0.0117(7)
H8 H 0.5431 0.8339 0.0497
H9 H 0.3637 0.6809 0.2051
C19 C 0.4611(7) 0.6051(6) 0.1904(7)
C20 C 0.5657(7) 0.6111(6) 0.1088(7)
H10 H 0.5351 0.6924 0.0731
H11 H 0.2012 0.7281 0.1947
C21 C 0.1273(7) 0.7871(6) 0.2822(7)
H12 H 0.0683 0.8626 0.3576
H13 H 0.1664 1.0637 0.1327
C22 C 0.0975(6) 1.0724(6) 0.2279(6)
H14 H 0.0574 1.0666 0.3230
H15 H 0.2291 0.8817 0.0468
C23 C 0.3297(7) 0.8065(6) -0.0110(6)
H16 H 0.4411 0.7389 -0.0543
H17 H 0.4122 1.0561 0.0984
C24 C 0.4921(7) 0.9806(6) 0.0234(7)
H18 H 0.5682 0.8930 -0.0305
H19 H 0.4408 0.5822 0.2195
C25 C 0.5384(8) 0.5793(6) 0.1562(7)
H20 H 0.6170 0.5929 0.0809
C26 C 0.0801(6) 0.7587(6) 0.3099(6)
C27 C 0.0277(7) 1.1044(6) 0.2288(6)
C28 C 0.3091(7) 0.7814(6) -0.0464(6)
C29 C 0.5886(7) 0.5224(6) 0.1711(6)
C30 C 0.0996(8) 0.6999(7) 0.2860(7)
C31 C 0.0111(9) 0.7914(7) 0.3647(8)
C32 C 0.0180(8) 1.0903(7) 0.1830(7)
C33 C -0.0351(6) 1.1509(5) 0.2843(6)
C34 C 0.2420(7) 0.8201(6) -0.0441(7)
C35 C 0.3535(8) 0.7197(7) -0.0850(7)
C36 C 0.6571(8) 0.4793(6) 0.1263(7)
C37 C 0.5692(7) 0.5183(6) 0.2360(6)
C38 C 0.0521(7) 0.6763(7) 0.3112(7)
H21 H 0.1474 0.6740 0.2509
H22 H -0.0033 0.8319 0.3845
C39 C -0.0365(8) 0.7690(7) 0.3914(6)
C40 C -0.0505(7) 1.1160(6) 0.1907(7)
H23 H 0.0596 1.0620 0.1444
H24 H -0.0302 1.1637 0.3168
C41 C -0.1025(8) 1.1767(6) 0.2893(7)
C42 C 0.2202(8) 0.7963(6) -0.0759(7)
H25 H 0.2109 0.8629 -0.0208
H26 H 0.4008 0.6921 -0.0900
C43 C 0.3303(7) 0.6993(6) -0.1147(6)
C44 C 0.7045(9) 0.4302(6) 0.1432(7)
H27 H 0.6733 0.4824 0.0827
H28 H 0.5227 0.5496 0.2693
C45 C 0.6166(7) 0.4707(6) 0.2494(6)
N6 N -0.0146(6) 0.7099(5) 0.3630(6)
H29 H 0.0668 0.6356 0.2918
H30 H -0.0832 0.7932 0.4283
N7 N -0.1098(7) 1.1577(5) 0.2439(6)
H31 H -0.0561 1.1043 0.1582
H32 H -0.1448 1.2085 0.3253
N8 N 0.2639(5) 0.7360(5) -0.1090(5)
H33 H 0.1743 0.8229 -0.0740
H34 H 0.3618 0.6576 -0.1406
N9 N 0.6837(6) 0.4270(5) 0.2040(5)
H35 H 0.7520 0.3988 0.1111
H36 H 0.6023 0.4674 0.2927
O9 O -0.0600(5) 0.6874(4) 0.3855(4)
O10 O -0.1757(4) 1.1800(4) 0.2512(4)
O11 O 0.2391(5) 0.7152(4) -0.1350(4)
O12 O 0.7319(5) 0.3830(4) 0.2192(4)
Ho2 Ho -0.15294(3) 0.71697(2) 0.35933(3)
Ho3 Ho -0.25336(3) 1.27997(2) 0.23623(3)
O13 O -0.1219(5) 0.6143(4) 0.3826(4)
O14 O -0.2218(5) 0.7350(4) 0.4735(4)
O15 O -0.2089(5) 0.7934(4) 0.3080(4)
O16 O -0.1783(5) 0.8177(4) 0.3967(4)
O17 O -0.2565(5) 0.7116(4) 0.3848(5)
O18 O -0.0568(5) 0.7222(4) 0.2741(4)
O19 O -0.1174(5) 0.6531(4) 0.2678(4)
O20 O -0.2778(5) 1.2028(4) 0.2147(4)
O21 O -0.2252(5) 1.3101(4) 0.3044(4)
O22 O -0.3308(4) 1.2744(4) 0.3385(4)
O23 O -0.3752(5) 1.3447(4) 0.2548(4)
O24 O -0.1323(4) 1.2597(4) 0.1709(4)
N10 N -0.0892(5) 0.5849(4) 0.4155(5)
N11 N -0.2388(6) 0.7839(5) 0.5111(5)
N12 N -0.2557(6) 0.7931(5) 0.2921(5)
N13 N -0.1934(6) 0.8695(5) 0.3717(5)
N14 N -0.3018(5) 0.7022(5) 0.4375(5)
N15 N -0.0371(6) 0.7212(5) 0.2120(5)
N16 N -0.2664(6) 1.1488(5) 0.2394(5)
N17 N -0.2073(6) 1.3554(5) 0.2994(5)
N18 N -0.3214(6) 1.2662(6) 0.3875(5)
N19 N -0.4339(6) 1.3429(5) 0.3023(5)
N20 N 0.1026(6) 0.7351(5) -0.1105(5)
C46 C -0.0158(7) 0.5430(7) 0.3842(7)
C47 C -0.1288(8) 0.5942(6) 0.4801(7)
C48 C -0.1912(8) 0.7806(7) 0.5286(7)
C49 C -0.3041(7) 0.8366(6) 0.5348(7)
C50 C -0.3290(8) 0.8278(7) 0.3332(8)
C51 C -0.2266(8) 0.7602(7) 0.2328(7)
C52 C -0.1374(7) 0.8770(6) 0.3229(6)
C53 C -0.2603(8) 0.9144(7) 0.3904(7)
C54 C -0.3660(8) 0.7515(7) 0.4808(7)
C55 C -0.2829(8) 0.6397(7) 0.4495(8)
C56 C -0.0719(8) 0.7732(7) 0.1915(7)
C57 C 0.0194(8) 0.6646(8) 0.1689(7)
C58 C -0.3182(8) 1.1502(7) 0.2977(7)
C59 C -0.2035(8) 1.0929(6) 0.2033(7)
C60 C -0.1375(8) 1.3402(7) 0.2609(7)
C61 C -0.2605(8) 1.4149(7) 0.3312(7)
C62 C -0.2779(7) 1.2055(6) 0.3945(6)
C63 C -0.3568(9) 1.3172(7) 0.4343(8)
C64 C -0.4474(8) 1.2981(8) 0.2908(8)
C65 C -0.4734(7) 1.3817(7) 0.3581(7)
C66 C 0.1071(8) 0.6777(7) -0.0949(7)
C67 C 0.0717(8) 0.7842(6) -0.0657(7)
H37 H 0.0111 0.5368 0.3391
C68 C 0.0186(9) 0.5110(8) 0.4146(8)
C69 C -0.0931(7) 0.5618(7) 0.5127(7)
H38 H -0.1803 0.6227 0.5023
H39 H -0.1465 0.7415 0.5167
C70 C -0.2064(8) 0.8299(6) 0.5609(6)
C71 C -0.3196(8) 0.8872(6) 0.5693(7)
H40 H -0.3401 0.8385 0.5272
H41 H -0.3481 0.8518 0.3730
C72 C -0.3747(8) 0.8267(7) 0.3148(8)
C73 C -0.2733(8) 0.7584(7) 0.2171(7)
H42 H -0.1754 0.7393 0.2036
H43 H -0.0878 0.8441 0.3075
C74 C -0.1525(7) 0.9308(6) 0.2966(6)
C75 C -0.2798(8) 0.9705(7) 0.3652(7)
H44 H -0.2986 0.9090 0.4236
H45 H -0.3769 0.7941 0.4741
C76 C -0.4163(7) 0.7434(7) 0.5342(8)
C77 C -0.3309(8) 0.6296(7) 0.5000(8)
H46 H -0.2358 0.6045 0.4215
H47 H -0.1145 0.8103 0.2218
C78 C -0.0480(8) 0.7739(7) 0.1301(6)
C79 C 0.0453(8) 0.6629(7) 0.1062(7)
H48 H 0.0400 0.6264 0.1838
H49 H -0.3632 1.1892 0.3212
C80 C -0.3052(8) 1.0951(7) 0.3223(7)
C81 C -0.1910(8) 1.0372(7) 0.2273(6)
H50 H -0.1686 1.0924 0.1619
H51 H -0.1015 1.2969 0.2398
C82 C -0.1164(8) 1.3862(6) 0.2513(8)
C83 C -0.2431(8) 1.4623(6) 0.3268(7)
H52 H -0.3100 1.4245 0.3566
H53 H -0.2504 1.1693 0.3616
C84 C -0.2752(7) 1.1985(6) 0.4507(6)
C85 C -0.3518(9) 1.3110(8) 0.4880(7)
H54 H -0.3862 1.3588 0.4293
H55 H -0.4185 1.2705 0.2506
C86 C -0.5065(8) 1.2949(8) 0.3416(8)
C87 C -0.5311(8) 1.3767(8) 0.4076(8)
H56 H -0.4622 1.4127 0.3642
H57 H 0.1305 0.6424 -0.1275
C88 C 0.0784(8) 0.6713(6) -0.0334(6)
C89 C 0.0406(7) 0.7796(7) -0.0023(6)
H58 H 0.0709 0.8231 -0.0773
H59 H 0.0701 0.4825 0.3913
C90 C -0.0200(7) 0.5180(6) 0.4827(6)
H60 H -0.1204 0.5702 0.5578
H61 H -0.1716 0.8270 0.5708
C91 C -0.2723(7) 0.8874(6) 0.5818(6)
H62 H -0.3668 0.9245 0.5855
H63 H -0.4262 0.8519 0.3423
C92 C -0.3483(7) 0.7901(6) 0.2571(7)
H64 H -0.2532 0.7343 0.1770
H65 H -0.1133 0.9352 0.2634
C93 C -0.2230(7) 0.9782(6) 0.3173(6)
H66 H -0.3298 1.0020 0.3800
H67 H -0.4619 0.7794 0.5631
C94 C -0.3996(8) 0.6814(8) 0.5453(7)
H68 H -0.3190 0.5867 0.5060
H69 H -0.0728 0.8119 0.1171
C95 C 0.0126(7) 0.7201(6) 0.0845(6)
H70 H 0.0849 0.6242 0.0767
H71 H -0.3412 1.0963 0.3634
C96 C -0.2406(7) 1.0375(6) 0.2885(7)
H72 H -0.1478 0.9979 0.2017
H73 H -0.0672 1.3756 0.2221
C97 C -0.1703(8) 1.4491(6) 0.2860(7)
H74 H -0.2802 1.5042 0.3514
H75 H -0.2496 1.1564 0.4573
C98 C -0.3077(7) 1.2495(7) 0.4960(7)
H76 H -0.3777 1.3478 0.5199
H77 H -0.5184 1.2651 0.3341
C99 C -0.5474(7) 1.3305(7) 0.4000(7)
H78 H -0.5600 1.4052 0.4473
H79 H 0.0813 0.6316 -0.0225
C100 C 0.0432(7) 0.7253(6) 0.0158(6)
H80 H 0.0169 0.8161 0.0292
C101 C -0.2903(7) 0.9479(6) 0.6178(6)
C102 C -0.3997(7) 0.7853(6) 0.2442(7)
C103 C -0.1545(9) 1.5015(6) 0.2788(8)
C104 C -0.3069(7) 1.2401(6) 0.5564(6)
C105 C -0.3584(8) 0.9873(7) 0.6688(7)
C106 C -0.2368(8) 0.9676(7) 0.5954(7)
C107 C -0.3803(7) 0.7655(7) 0.1827(7)
C108 C -0.4654(8) 0.7966(7) 0.2917(7)
C109 C -0.0871(8) 1.4931(7) 0.2651(6)
C110 C -0.2074(9) 1.5646(7) 0.2850(7)
C111 C -0.3664(7) 1.2828(6) 0.6144(6)
C112 C -0.2485(7) 1.1876(6) 0.5599(7)
C113 C -0.3752(9) 1.0444(6) 0.6972(7)
H81 H -0.3947 0.9750 0.6850
H82 H -0.1885 0.9409 0.5612
C114 C -0.2560(8) 1.0250(7) 0.6236(7)
C115 C -0.4296(7) 0.7605(7) 0.1711(7)
H83 H -0.3332 0.7553 0.1483
H84 H -0.4788 0.8093 0.3340
C116 C -0.5162(8) 0.7904(6) 0.2818(7)
C117 C -0.0738(8) 1.5431(6) 0.2607(7)
H85 H -0.0486 1.4507 0.2584
H86 H -0.2534 1.5733 0.2917
C118 C -0.1939(9) 1.6130(7) 0.2815(8)
C119 C -0.3651(7) 1.2706(6) 0.6699(6)
H87 H -0.4071 1.3198 0.6149
H88 H -0.2069 1.1580 0.5222
C120 C -0.2503(7) 1.1783(6) 0.6162(6)
N21 N -0.3222(6) 1.0607(5) 0.6741(5)
H89 H -0.4227 1.0718 0.7320
H90 H -0.2218 1.0397 0.6071
N22 N -0.4938(6) 0.7712(5) 0.2201(5)
H91 H -0.4174 0.7496 0.1288
H92 H -0.5628 0.7990 0.3160
N23 N -0.1282(6) 1.6030(5) 0.2698(5)
H93 H -0.0273 1.5355 0.2516
H94 H -0.2315 1.6557 0.2874
N24 N -0.3080(5) 1.2197(5) 0.6705(5)
H95 H -0.4058 1.2990 0.7088
H96 H -0.2103 1.1421 0.6173
C24A C 0.5079(7) 1.0194(6) -0.0234(7)
C17A C 0.5609(8) 0.9895(6) -0.0875(7)
C18A C 0.4697(8) 1.0848(6) -0.0117(7)
C7A C 0.5747(7) 1.0257(6) -0.1354(7)
H17A H 0.5878 0.9439 -0.0984
C8A C 0.4841(8) 1.1204(7) -0.0596(7)
H18A H 0.4318 1.1070 0.0305
N4A N 0.5362(6) 1.0900(5) -0.1192(5)
H7A H 0.6105 1.0051 -0.1784
H8A H 0.4569 1.1661 -0.0497
O4A O 0.5491(5) 1.1245(4) -0.1643(4)
Ho3A Ho 0.25336(3) 0.72003(2) -0.23623(3)
Ho1A Ho 0.63911(3) 1.15311(2) -0.20156(3)
Ho3_2 Ho 0.74664(3) 0.27997(2) 0.23623(3)
O11A O -0.2391(5) 1.2848(4) 0.1350(4)
O12_2 O -0.2681(5) 1.3830(4) 0.2192(4)
O24A O 0.1323(4) 0.7403(4) -0.1709(4)
C90A C 0.0200(7) 0.4820(6) 0.5173(6)
C99A C -0.4526(7) 0.6695(7) 0.6000(7)
C94A C -0.6004(8) 1.3186(8) 0.4547(7)
C68A C -0.0186(9) 0.4890(8) 0.5854(8)
C69A C 0.0931(7) 0.4382(7) 0.4873(7)
C86A C -0.4935(8) 0.7051(8) 0.6584(8)
C87A C -0.4689(8) 0.6233(8) 0.5924(8)
C76A C -0.5837(7) 1.2566(7) 0.4658(8)
C77A C -0.6691(8) 1.3704(7) 0.5000(8)
C46A C 0.0158(7) 0.4570(7) 0.6158(7)
H59A H -0.0701 0.5175 0.6087
C47A C 0.1288(8) 0.4058(6) 0.5199(7)
H60A H 0.1204 0.4298 0.4422
C64A C -0.5526(8) 0.7019(8) 0.7092(8)
H77A H -0.4816 0.7349 0.6659
C65A C -0.5266(7) 0.6183(7) 0.6419(7)
H78A H -0.4400 0.5948 0.5527
C54A C -0.6340(8) 1.2485(7) 0.5192(7)
H67A H -0.5381 1.2206 0.4369
C55A C -0.7171(8) 1.3603(7) 0.5505(8)
H68A H -0.6810 1.4133 0.4940
N10A N 0.0892(5) 0.4151(4) 0.5845(5)
H37A H -0.0111 0.4632 0.6609
H38A H 0.1803 0.3773 0.4977
N19A N -0.5661(6) 0.6571(5) 0.6977(5)
H55A H -0.5815 0.7295 0.7494
H56A H -0.5378 0.5873 0.6358
N14A N -0.6982(5) 1.2978(5) 0.5625(5)
H45A H -0.6231 1.2059 0.5259
H46A H -0.7642 1.3955 0.5785
O13A O 0.1219(5) 0.3857(4) 0.6174(4)
O6A O -0.3396(5) 1.1176(4) 0.7009(4)
O7_2 O -0.5396(4) 0.7640(4) 0.2086(4)
O23A O -0.6248(5) 0.6553(4) 0.7452(4)
O19_2 O -0.1174(5) 1.6531(4) 0.2678(4)
O8A O -0.3083(5) 1.2076(4) 0.7245(4)
O17A O -0.7435(5) 1.2884(4) 0.6152(5)
Ho2A Ho 0.15294(3) 0.28303(2) 0.64067(3)
Ho1A_2 Ho -0.36089(3) 1.15311(2) 0.79844(3)
Ho1_2 Ho -0.63911(3) 0.84689(2) 0.20156(3)
Ho3A_2 Ho -0.74664(3) 0.72003(2) 0.76377(3)
Ho2_2 Ho -0.15294(3) 1.71697(2) 0.35933(3)
Ho2A_2 Ho -0.84706(3) 1.28303(2) 0.64067(3)
O7A O -0.4604(4) 1.2360(4) 0.7914(4)
O6_2 O -0.6604(5) 0.8824(4) 0.2991(4)
O8_2 O -0.6917(5) 0.7924(4) 0.2755(4)
O10A O -0.8243(4) 0.8200(4) 0.7488(4)
O20A O -0.7222(5) 0.7972(4) 0.7853(4)
O21A O -0.7748(5) 0.6899(4) 0.6956(4)
O22A O -0.6692(4) 0.7256(4) 0.6615(4)
O11_2 O -0.7609(5) 0.7152(4) 0.8650(4)
O12A O -0.7319(5) 0.6170(4) 0.7808(4)
O24A_2 O -0.8677(4) 0.7403(4) 0.8291(4)
O9A O -0.9400(5) 1.3126(4) 0.6145(4)
O14A O -0.7782(5) 1.2650(4) 0.5265(4)
O15A O -0.7911(5) 1.2066(4) 0.6920(4)
O16A O -0.8217(5) 1.1823(4) 0.6033(4)
O18A O -0.9432(5) 1.2778(4) 0.7259(4)
O13A_2 O -0.8781(5) 1.3857(4) 0.6174(4)
O19A O -0.8826(5) 1.3469(4) 0.7322(4)
N22A N -0.5062(6) 1.2288(5) 0.7799(5)
N21A N -0.6778(6) 0.9393(5) 0.3259(5)
N24A N -0.6920(5) 0.7803(5) 0.3295(5)
N7A N -0.8902(7) 0.8423(5) 0.7561(6)
N16A N -0.7336(6) 0.8512(5) 0.7606(5)
N17A N -0.7927(6) 0.6446(5) 0.7006(5)
N18A N -0.6786(6) 0.7338(6) 0.6125(5)
N6A N -0.9854(6) 1.2901(5) 0.6370(6)
N11A N -0.7612(6) 1.2161(5) 0.4889(5)
N12A N -0.7443(6) 1.2069(5) 0.7079(5)
N13A N -0.8066(6) 1.1305(5) 0.6283(5)
N15A N -0.9629(6) 1.2788(5) 0.7880(5)
C115A C -0.5704(7) 1.2395(7) 0.8289(7)
C116A C -0.4838(8) 1.2096(6) 0.7182(7)
C113A C -0.6248(9) 0.9556(6) 0.3028(7)
C114A C -0.7440(8) 0.9750(7) 0.3764(7)
C119A C -0.6349(7) 0.7294(6) 0.3301(6)
C120A C -0.7497(7) 0.8217(6) 0.3838(6)
C40A C -0.9495(7) 0.8840(6) 0.8093(7)
C41A C -0.8975(8) 0.8233(6) 0.7107(7)
C58A C -0.6818(8) 0.8498(7) 0.7023(7)
C59A C -0.7965(8) 0.9071(6) 0.7967(7)
C60A C -0.8625(8) 0.6598(7) 0.7391(7)
C61A C -0.7395(8) 0.5851(7) 0.6688(7)
C62A C -0.7221(7) 0.7945(6) 0.6055(6)
C63A C -0.6432(9) 0.6828(7) 0.5657(8)
C38A C -1.0521(7) 1.3237(7) 0.6888(7)
C39A C -0.9635(8) 1.2310(7) 0.6086(6)
C48A C -0.8088(8) 1.2194(7) 0.4714(7)
C49A C -0.6959(7) 1.1634(6) 0.4652(7)
C50A C -0.6710(8) 1.1722(7) 0.6668(8)
C51A C -0.7734(8) 1.2398(7) 0.7672(7)
C52A C -0.8626(7) 1.1230(6) 0.6771(6)
C53A C -0.7397(8) 1.0856(7) 0.6096(7)
C56A C -0.9281(8) 1.2268(7) 0.8085(7)
C57A C -1.0194(8) 1.3354(8) 0.8311(7)
C107A C -0.6197(7) 1.2345(7) 0.8173(7)
H91A H -0.5826 1.2504 0.8712
C108A C -0.5346(8) 1.2034(7) 0.7083(7)
H92A H -0.4372 1.2010 0.6840
C105A C -0.6416(8) 1.0127(7) 0.3312(7)
H89A H -0.5773 0.9282 0.2680
C106A C -0.7632(8) 1.0324(7) 0.4046(7)
H90A H -0.7782 0.9603 0.3929
C111A C -0.6336(7) 0.7172(6) 0.3856(6)
H95A H -0.5942 0.7010 0.2912
C112A C -0.7515(7) 0.8124(6) 0.4401(7)
H96A H -0.7897 0.8579 0.3827
C32A C -1.0180(8) 0.9097(7) 0.8170(7)
H31A H -0.9439 0.8957 0.8418
C33A C -0.9649(6) 0.8491(5) 0.7157(6)
H32A H -0.8552 0.7915 0.6747
H49A H -0.6368 0.8108 0.6788
C80A C -0.6948(8) 0.9049(7) 0.6777(7)
C81A C -0.8090(8) 0.9628(7) 0.7727(6)
H50A H -0.8314 0.9076 0.8381
H51A H -0.8985 0.7031 0.7602
C82A C -0.8836(8) 0.6138(6) 0.7487(8)
C83A C -0.7569(8) 0.5377(6) 0.6732(7)
H52A H -0.6900 0.5755 0.6434
H53A H -0.7496 0.8307 0.6384
C84A C -0.7248(7) 0.8015(6) 0.5493(6)
C85A C -0.6482(9) 0.6890(8) 0.5120(7)
H54A H -0.6138 0.6412 0.5707
C30A C -1.0996(8) 1.3001(7) 0.7140(7)
H29A H -1.0668 1.3644 0.7082
C31A C -1.0111(9) 1.2086(7) 0.6353(8)
H30A H -0.9168 1.2068 0.5717
H39A H -0.8535 1.2585 0.4833
C70A C -0.7936(8) 1.1701(6) 0.4391(6)
C71A C -0.6804(8) 1.1128(6) 0.4307(7)
H40A H -0.6599 1.1615 0.4728
H41A H -0.6519 1.1482 0.6270
C72A C -0.6253(8) 1.1733(7) 0.6852(8)
C73A C -0.7267(8) 1.2416(7) 0.7829(7)
H42A H -0.8246 1.2607 0.7964
H43A H -0.9122 1.1559 0.6925
C74A C -0.8475(7) 1.0692(6) 0.7034(6)
C75A C -0.7202(8) 1.0295(7) 0.6348(7)
H44A H -0.7014 1.0910 0.5764
H47A H -0.8855 1.1897 0.7782
C78A C -0.9520(8) 1.2261(7) 0.8699(6)
C79A C -1.0453(8) 1.3371(7) 0.8938(7)
H48A H -1.0400 1.3736 0.8162
C102A C -0.6003(7) 1.2147(6) 0.7558(7)
H83A H -0.6668 1.2447 0.8517
H84A H -0.5212 1.1907 0.6660
C101A C -0.7097(7) 1.0521(6) 0.3822(6)
H81A H -0.6053 1.0250 0.3150
H82A H -0.8115 1.0591 0.4388
C104A C -0.6931(7) 0.7599(6) 0.4436(6)
H87A H -0.5929 0.6802 0.3851
H88A H -0.7931 0.8420 0.4778
C27A C -1.0277(7) 0.8956(6) 0.7712(6)
H23A H -1.0596 0.9380 0.8556
H24A H -0.9698 0.8363 0.6832
H71A H -0.6588 0.9037 0.6366
C96A C -0.7594(7) 0.9625(6) 0.7115(7)
H72A H -0.8522 1.0021 0.7983
H73A H -0.9328 0.6244 0.7779
C97A C -0.8297(8) 0.5509(6) 0.7140(7)
H74A H -0.7198 0.4958 0.6486
H75A H -0.7504 0.8436 0.5427
C98A C -0.6923(7) 0.7505(7) 0.5040(7)
H76A H -0.6223 0.6522 0.4801
C26A C -1.0801(6) 1.2413(6) 0.6901(6)
H21A H -1.1474 1.3260 0.7491
H22A H -0.9967 1.1681 0.6155
H61A H -0.8284 1.1730 0.4292
C91A C -0.7277(7) 1.1126(6) 0.4182(6)
H62A H -0.6332 1.0755 0.4145
H63A H -0.5738 1.1481 0.6577
C92A C -0.6517(7) 1.2099(6) 0.7429(7)
H64A H -0.7468 1.2657 0.8230
H65A H -0.8867 1.0648 0.7366
C93A C -0.7770(7) 1.0218(6) 0.6827(6)
H66A H -0.6702 0.9980 0.6200
H69A H -0.9272 1.1881 0.8829
C95A C -1.0126(7) 1.2799(6) 0.9155(6)
H70A H -1.0849 1.3758 0.9233
C22A C -1.0975(6) 0.9276(6) 0.7721(6)
C103A C -0.8455(9) 0.4985(6) 0.7212(8)
C21A C -1.1273(7) 1.2129(6) 0.7178(7)
C100A C -1.0432(7) 1.2747(6) 0.9842(6)
C13A C -1.1657(7) 0.9475(6) 0.8287(7)
C14A C -1.1011(8) 0.9463(7) 0.7168(7)
C109A C -0.9129(8) 0.5069(7) 0.7349(6)
C110A C -0.7926(9) 0.4354(7) 0.7150(7)
C11A C -1.1888(8) 1.2360(6) 0.7796(8)
C12A C -1.1101(8) 1.1562(7) 0.6839(7)
C88A C -1.0784(8) 1.3287(6) 1.0334(6)
C89A C -1.0406(7) 1.2204(7) 1.0023(6)
C3A C -1.2298(7) 0.9819(6) 0.8290(6)
H13A H -1.1664 0.9363 0.8673
C4A C -1.1701(6) 0.9841(6) 0.7212(6)
H14A H -1.0574 0.9334 0.6770
C117A C -0.9262(8) 0.4569(6) 0.7393(7)
H85A H -0.9514 0.5493 0.7416
H86A H -0.7466 0.4267 0.7083
C118A C -0.8061(9) 0.3870(7) 0.7185(8)
C1A C -1.2313(7) 1.2074(6) 0.8033(7)
H11A H -1.2012 1.2719 0.8053
C2A C -1.1528(7) 1.1290(6) 0.7103(7)
H12A H -1.0683 1.1374 0.6424
C66A C -1.1071(8) 1.3223(7) 1.0949(7)
H79A H -1.0813 1.3684 1.0225
C67A C -1.0717(8) 1.2158(6) 1.0657(7)
H80A H -1.0169 1.1839 0.9708
N2A N -1.2303(6) 1.0016(4) 0.7754(5)
H3A H -1.2746 0.9923 0.8669
H4A H -1.1728 0.9968 0.6842
N23A N -0.8718(6) 0.3970(5) 0.7302(5)
H93A H -0.9727 0.4645 0.7484
H94A H -0.7685 0.3443 0.7126
N1A N -1.2122(5) 1.1539(5) 0.7693(5)
H1A H -1.2745 1.2256 0.8440
H2A H -1.1407 1.0917 0.6868
N20A N -1.1026(6) 1.2649(5) 1.1105(5)
H57A H -1.1305 1.3576 1.1275
H58A H -1.0709 1.1769 1.0773
O2A O -1.2957(5) 1.0391(4) 0.7782(4)
O19A_2 O -0.8826(5) 0.3469(4) 0.7322(4)
O1A O -1.2517(4) 1.1255(4) 0.7934(4)
O24_2 O -1.1323(4) 1.2597(4) 1.1709(4)
Ho1A_3 Ho -1.36089(3) 1.15311(2) 0.79844(3)
Ho2A_3 Ho -0.84706(3) 0.28303(2) 0.64067(3)
Ho3_3 Ho -1.25336(3) 1.27997(2) 1.23623(3)
O3A O -1.3805(5) 1.1291(4) 0.9005(4)
O5A O -1.3998(5) 1.2461(4) 0.8628(4)
O4A_2 O -1.4509(5) 1.1245(4) 0.8357(4)
O6A_2 O -1.3396(5) 1.1176(4) 0.7009(4)
O7A_2 O -1.4604(4) 1.2360(4) 0.7914(4)
O8A_2 O -1.3083(5) 1.2076(4) 0.7245(4)
O11A_2 O -1.2391(5) 1.2848(4) 1.1350(4)
N3A N -1.3641(6) 1.1497(5) 0.9367(5)
N5A N -1.4453(6) 1.3066(4) 0.8606(5)
N8A N -1.2639(5) 1.2640(5) 1.1090(5)
C5A C -1.2967(7) 1.1205(6) 0.9271(6)
C6A C -1.4187(7) 1.2008(7) 0.9845(7)
C9A C -1.4154(7) 1.3370(6) 0.8184(7)
C10A C -1.5169(7) 1.3308(6) 0.8966(6)
C42A C -1.2202(8) 1.2037(6) 1.0759(7)
C43A C -1.3303(7) 1.3007(6) 1.1147(6)
H5A H -1.2597 1.0837 0.8942
C15A C -1.2785(7) 1.1408(6) 0.9622(6)
C16A C -1.4031(7) 1.2243(7) 1.0216(7)
H6A H -1.4676 1.2204 0.9924
H9A H -1.3637 1.3191 0.7949
C19A C -1.4611(7) 1.3949(6) 0.8096(7)
C20A C -1.5657(7) 1.3889(6) 0.8912(7)
H10A H -1.5351 1.3076 0.9269
C34A C -1.2420(7) 1.1799(6) 1.0441(7)
H33A H -1.1743 1.1771 1.0740
C35A C -1.3535(8) 1.2803(7) 1.0850(7)
H34A H -1.3618 1.3424 1.1406
H15A H -1.2291 1.1183 0.9532
C23A C -1.3297(7) 1.1935(6) 1.0110(6)
H16A H -1.4411 1.2611 1.0543
H19A H -1.4408 1.4178 0.7805
C25A C -1.5384(8) 1.4207(6) 0.8438(7)
H20A H -1.6170 1.4071 0.9191
C28A C -1.3091(7) 1.2186(6) 1.0464(6)
H25A H -1.2109 1.1371 1.0208
H26A H -1.4008 1.3079 1.0900
C29A C -1.5886(7) 1.4776(6) 0.8289(6)
C36A C -1.6571(8) 1.5207(6) 0.8737(7)
C37A C -1.5692(7) 1.4817(6) 0.7640(6)
C44A C -1.7045(9) 1.5698(6) 0.8568(7)
H27A H -1.6733 1.5176 0.9173
H28A H -1.5227 1.4504 0.7307
C45A C -1.6166(7) 1.5293(6) 0.7506(6)
N9A N -1.6837(6) 1.5730(5) 0.7960(5)
H35A H -1.7520 1.6012 0.8889
H36A H -1.6023 1.5326 0.7073
O12A_2 O -1.7319(5) 1.6170(4) 0.7808(4)
Ho3A_3 Ho -1.74664(3) 1.72003(2) 0.76377(3)
S7? S -0.1176(6) 0.9881(5) 0.4433(4)
O46? O -0.1804(12) 1.0454(9) 0.4896(8)
C127? C -0.0908(8) 1.0135(7) 0.3662(6)
O47? O -0.0538(11) 0.9621(13) 0.4510(11)
O48? O -0.1348(16) 0.9394(11) 0.4375(11)
F19? F -0.0659(12) 1.0524(9) 0.3642(8)
F20? F -0.0390(10) 0.9624(8) 0.3203(6)
F21? F -0.1484(10) 1.0444(10) 0.3581(9)
S8? S -0.5624(7) 0.9318(6) 0.4556(7)
O49? O -0.5484(14) 0.9561(13) 0.3967(9)
O50? O -0.5810(14) 0.9757(13) 0.5067(11)
O51? O -0.5054(10) 0.8664(9) 0.4473(15)
C128? C -0.6449(8) 0.9269(9) 0.4816(9)
F22? F -0.7002(9) 0.9842(11) 0.4901(15)
F23? F -0.6335(13) 0.8871(13) 0.4385(12)
F24? F -0.6627(14) 0.9059(15) 0.5362(10)
loop_
_geom_bond_atom_site_label_1
_geom_bond_atom_site_label_2
_geom_bond_site_symmetry_1
_geom_bond_site_symmetry_2
Ho1 O1 1_555 1_555
O1 N1 1_555 1_555
O2 Ho1 1_555 1_555
O3 Ho1 1_555 1_555
O4 Ho1 1_555 1_555
O5 Ho1 1_555 1_555
O6 Ho1 1_555 1_555
O7 Ho1 1_555 1_555
O8 Ho1 1_555 1_555
N1 C1 1_555 1_555
N2 O2 1_555 1_555
N3 O3 1_555 1_555
N4 O4 1_555 1_555
N5 O5 1_555 1_555
C1 H1 1_555 1_555
C2 N1 1_555 1_555
C3 N2 1_555 1_555
C4 N2 1_555 1_555
C5 N3 1_555 1_555
C6 N3 1_555 1_555
C7 N4 1_555 1_555
C8 N4 1_555 1_555
C9 N5 1_555 1_555
C10 N5 1_555 1_555
C11 C1 1_555 1_555
C12 C2 1_555 1_555
H2 C2 1_555 1_555
H3 C3 1_555 1_555
C13 C3 1_555 1_555
C14 C4 1_555 1_555
H4 C4 1_555 1_555
H5 C5 1_555 1_555
C15 C5 1_555 1_555
C16 C6 1_555 1_555
H6 C6 1_555 1_555
H7 C7 1_555 1_555
C17 C7 1_555 1_555
C18 C8 1_555 1_555
H8 C8 1_555 1_555
H9 C9 1_555 1_555
C19 C9 1_555 1_555
C20 C10 1_555 1_555
H10 C10 1_555 1_555
H11 C11 1_555 1_555
C21 C11 1_555 1_555
H12 C12 1_555 1_555
H13 C13 1_555 1_555
C22 C13 1_555 1_555
H14 C14 1_555 1_555
H15 C15 1_555 1_555
C23 C15 1_555 1_555
H16 C16 1_555 1_555
H17 C17 1_555 1_555
C24 C17 1_555 1_555
H18 C18 1_555 1_555
H19 C19 1_555 1_555
C25 C19 1_555 1_555
H20 C20 1_555 1_555
C26 C21 1_555 1_555
C27 C22 1_555 1_555
C28 C23 1_555 1_555
C29 C25 1_555 1_555
C30 C26 1_555 1_555
C31 C26 1_555 1_555
C32 C27 1_555 1_555
C33 C27 1_555 1_555
C34 C28 1_555 1_555
C35 C28 1_555 1_555
C36 C29 1_555 1_555
C37 C29 1_555 1_555
C38 C30 1_555 1_555
H21 C30 1_555 1_555
H22 C31 1_555 1_555
C39 C31 1_555 1_555
C40 C32 1_555 1_555
H23 C32 1_555 1_555
H24 C33 1_555 1_555
C41 C33 1_555 1_555
C42 C34 1_555 1_555
H25 C34 1_555 1_555
H26 C35 1_555 1_555
C43 C35 1_555 1_555
C44 C36 1_555 1_555
H27 C36 1_555 1_555
H28 C37 1_555 1_555
C45 C37 1_555 1_555
N6 C38 1_555 1_555
H29 C38 1_555 1_555
H30 C39 1_555 1_555
N7 C40 1_555 1_555
H31 C40 1_555 1_555
H32 C41 1_555 1_555
N8 C42 1_555 1_555
H33 C42 1_555 1_555
H34 C43 1_555 1_555
N9 C44 1_555 1_555
H35 C44 1_555 1_555
H36 C45 1_555 1_555
O9 N6 1_555 1_555
O10 N7 1_555 1_555
O11 N8 1_555 1_555
O12 N9 1_555 1_555
Ho2 O9 1_555 1_555
Ho3 O10 1_555 1_555
O13 Ho2 1_555 1_555
O14 Ho2 1_555 1_555
O15 Ho2 1_555 1_555
O16 Ho2 1_555 1_555
O17 Ho2 1_555 1_555
O18 Ho2 1_555 1_555
O19 Ho2 1_555 1_555
O20 Ho3 1_555 1_555
O21 Ho3 1_555 1_555
O22 Ho3 1_555 1_555
O23 Ho3 1_555 1_555
O24 Ho3 1_555 1_555
N10 O13 1_555 1_555
N11 O14 1_555 1_555
N12 O15 1_555 1_555
N13 O16 1_555 1_555
N14 O17 1_555 1_555
N15 O18 1_555 1_555
N16 O20 1_555 1_555
N17 O21 1_555 1_555
N18 O22 1_555 1_555
N19 O23 1_555 1_555
N20 C66 1_555 1_555
C46 N10 1_555 1_555
C47 N10 1_555 1_555
C48 N11 1_555 1_555
C49 N11 1_555 1_555
C50 N12 1_555 1_555
C51 N12 1_555 1_555
C52 N13 1_555 1_555
C53 N13 1_555 1_555
C54 N14 1_555 1_555
C55 N14 1_555 1_555
C56 N15 1_555 1_555
C57 N15 1_555 1_555
C58 N16 1_555 1_555
C59 N16 1_555 1_555
C60 N17 1_555 1_555
C61 N17 1_555 1_555
C62 N18 1_555 1_555
C63 N18 1_555 1_555
C64 N19 1_555 1_555
C65 N19 1_555 1_555
C66 H57 1_555 1_555
C67 N20 1_555 1_555
H37 C46 1_555 1_555
C68 C46 1_555 1_555
C69 C47 1_555 1_555
H38 C47 1_555 1_555
H39 C48 1_555 1_555
C70 C48 1_555 1_555
C71 C49 1_555 1_555
H40 C49 1_555 1_555
H41 C50 1_555 1_555
C72 C50 1_555 1_555
C73 C51 1_555 1_555
H42 C51 1_555 1_555
H43 C52 1_555 1_555
C74 C52 1_555 1_555
C75 C53 1_555 1_555
H44 C53 1_555 1_555
H45 C54 1_555 1_555
C76 C54 1_555 1_555
C77 C55 1_555 1_555
H46 C55 1_555 1_555
H47 C56 1_555 1_555
C78 C56 1_555 1_555
C79 C57 1_555 1_555
H48 C57 1_555 1_555
H49 C58 1_555 1_555
C80 C58 1_555 1_555
C81 C59 1_555 1_555
H50 C59 1_555 1_555
H51 C60 1_555 1_555
C82 C60 1_555 1_555
C83 C61 1_555 1_555
H52 C61 1_555 1_555
H53 C62 1_555 1_555
C84 C62 1_555 1_555
C85 C63 1_555 1_555
H54 C63 1_555 1_555
H55 C64 1_555 1_555
C86 C64 1_555 1_555
C87 C65 1_555 1_555
H56 C65 1_555 1_555
C88 C66 1_555 1_555
C89 C67 1_555 1_555
H58 C67 1_555 1_555
H59 C68 1_555 1_555
C90 C68 1_555 1_555
H60 C69 1_555 1_555
H61 C70 1_555 1_555
C91 C70 1_555 1_555
H62 C71 1_555 1_555
H63 C72 1_555 1_555
C92 C72 1_555 1_555
H64 C73 1_555 1_555
H65 C74 1_555 1_555
C93 C74 1_555 1_555
H66 C75 1_555 1_555
H67 C76 1_555 1_555
C94 C76 1_555 1_555
H68 C77 1_555 1_555
H69 C78 1_555 1_555
C95 C78 1_555 1_555
H70 C79 1_555 1_555
H71 C80 1_555 1_555
C96 C80 1_555 1_555
H72 C81 1_555 1_555
H73 C82 1_555 1_555
C97 C82 1_555 1_555
H74 C83 1_555 1_555
H75 C84 1_555 1_555
C98 C84 1_555 1_555
H76 C85 1_555 1_555
H77 C86 1_555 1_555
C99 C86 1_555 1_555
H78 C87 1_555 1_555
H79 C88 1_555 1_555
C100 C88 1_555 1_555
H80 C89 1_555 1_555
C101 C91 1_555 1_555
C102 C92 1_555 1_555
C103 C97 1_555 1_555
C104 C98 1_555 1_555
C105 C101 1_555 1_555
C106 C101 1_555 1_555
C107 C102 1_555 1_555
C108 C102 1_555 1_555
C109 C103 1_555 1_555
C110 C103 1_555 1_555
C111 C104 1_555 1_555
C112 C104 1_555 1_555
C113 C105 1_555 1_555
H81 C105 1_555 1_555
H82 C106 1_555 1_555
C114 C106 1_555 1_555
C115 C107 1_555 1_555
H83 C107 1_555 1_555
H84 C108 1_555 1_555
C116 C108 1_555 1_555
C117 C109 1_555 1_555
H85 C109 1_555 1_555
H86 C110 1_555 1_555
C118 C110 1_555 1_555
C119 C111 1_555 1_555
H87 C111 1_555 1_555
H88 C112 1_555 1_555
C120 C112 1_555 1_555
N21 C113 1_555 1_555
H89 C113 1_555 1_555
H90 C114 1_555 1_555
N22 C115 1_555 1_555
H91 C115 1_555 1_555
H92 C116 1_555 1_555
N23 C117 1_555 1_555
H93 C117 1_555 1_555
H94 C118 1_555 1_555
N24 C119 1_555 1_555
H95 C119 1_555 1_555
H96 C120 1_555 1_555
S1 O25 1_555 1_555
O26 S1 1_555 1_555
O27 S1 1_555 1_555
C121 S1 1_555 1_555
F1 C121 1_555 1_555
F2 C121 1_555 1_555
F3 C121 1_555 1_555
S2 O28 1_555 1_555
O29 S2 1_555 1_555
O30 S2 1_555 1_555
C122 S2 1_555 1_555
F4 C122 1_555 1_555
F5 C122 1_555 1_555
F6 C122 1_555 1_555
S3 O31 1_555 1_555
O32 S3 1_555 1_555
O33 S3 1_555 1_555
C123 S3 1_555 1_555
F7 C123 1_555 1_555
F8 C123 1_555 1_555
F9 C123 1_555 1_555
S4 O34 1_555 1_555
O35 S4 1_555 1_555
O36 S4 1_555 1_555
C124 S4 1_555 1_555
F10 C124 1_555 1_555
F11 C124 1_555 1_555
F12 C124 1_555 1_555
S5 O37 1_555 1_555
O38 S5 1_555 1_555
O39 S5 1_555 1_555
C125 S5 1_555 1_555
F13 C125 1_555 1_555
F14 C125 1_555 1_555
F15 C125 1_555 1_555
S6 O40 1_555 1_555
O41 S6 1_555 1_555
O42 S6 1_555 1_555
C126 S6 1_555 1_555
F16 C126 1_555 1_555
F17 C126 1_555 1_555
F18 C126 1_555 1_555
C24A C24 1_555 1_555
C17A C24A 1_555 1_555
C18A C24A 1_555 1_555
C7A C17A 1_555 1_555
H17A C17A 1_555 1_555
C8A C18A 1_555 1_555
H18A C18A 1_555 1_555
N4A C7A 1_555 1_555
H7A C7A 1_555 1_555
H8A C8A 1_555 1_555
O4A N4A 1_555 1_555
Ho3A O11 1_555 1_555
Ho1A O4A 1_555 1_555
Ho3_2 O12 1_555 1_555
O11A Ho3 1_555 1_555
O12_2 Ho3 1_555 1_555
O24A N20 1_555 1_555
C90A C90 1_555 1_555
C99A C94 1_555 1_555
C94A C99 1_555 1_555
C68A C90A 1_555 1_555
C69A C90A 1_555 1_555
C86A C99A 1_555 1_555
C87A C99A 1_555 1_555
C76A C94A 1_555 1_555
C77A C94A 1_555 1_555
C46A C68A 1_555 1_555
H59A C68A 1_555 1_555
C47A C69A 1_555 1_555
H60A C69A 1_555 1_555
C64A C86A 1_555 1_555
H77A C86A 1_555 1_555
C65A C87A 1_555 1_555
H78A C87A 1_555 1_555
C54A C76A 1_555 1_555
H67A C76A 1_555 1_555
C55A C77A 1_555 1_555
H68A C77A 1_555 1_555
N10A C46A 1_555 1_555
H37A C46A 1_555 1_555
H38A C47A 1_555 1_555
N19A C64A 1_555 1_555
H55A C64A 1_555 1_555
H56A C65A 1_555 1_555
N14A C54A 1_555 1_555
H45A C54A 1_555 1_555
H46A C55A 1_555 1_555
O13A N10A 1_555 1_555
O6A N21 1_555 1_555
O7_2 N22 1_555 1_555
O23A N19A 1_555 1_555
O19_2 N23 1_555 1_555
O8A N24 1_555 1_555
O17A N14A 1_555 1_555
Ho2A O13A 1_555 1_555
Ho1A_2 O6A 1_555 1_555
Ho1_2 O7_2 1_555 1_555
Ho3A_2 O23A 1_555 1_555
Ho2_2 O19_2 1_555 1_555
Ho2A_2 O17A 1_555 1_555
O7A Ho1A_2 1_555 1_555
O6_2 Ho1_2 1_555 1_555
O8_2 Ho1_2 1_555 1_555
O10A Ho3A_2 1_555 1_555
O20A Ho3A_2 1_555 1_555
O21A Ho3A_2 1_555 1_555
O22A Ho3A_2 1_555 1_555
O11_2 Ho3A_2 1_555 1_555
O12A Ho3A_2 1_555 1_555
O24A_2 Ho3A_2 1_555 1_555
O9A Ho2A_2 1_555 1_555
O14A Ho2A_2 1_555 1_555
O15A Ho2A_2 1_555 1_555
O16A Ho2A_2 1_555 1_555
O18A Ho2A_2 1_555 1_555
O13A_2 Ho2A_2 1_555 1_555
O19A Ho2A_2 1_555 1_555
N22A O7A 1_555 1_555
N21A O6_2 1_555 1_555
N24A O8_2 1_555 1_555
N7A O10A 1_555 1_555
N16A O20A 1_555 1_555
N17A O21A 1_555 1_555
N18A O22A 1_555 1_555
N6A O9A 1_555 1_555
N11A O14A 1_555 1_555
N12A O15A 1_555 1_555
N13A O16A 1_555 1_555
N15A O18A 1_555 1_555
C115A N22A 1_555 1_555
C116A N22A 1_555 1_555
C113A N21A 1_555 1_555
C114A N21A 1_555 1_555
C119A N24A 1_555 1_555
C120A N24A 1_555 1_555
C40A N7A 1_555 1_555
C41A N7A 1_555 1_555
C58A N16A 1_555 1_555
C59A N16A 1_555 1_555
C60A N17A 1_555 1_555
C61A N17A 1_555 1_555
C62A N18A 1_555 1_555
C63A N18A 1_555 1_555
C38A N6A 1_555 1_555
C39A N6A 1_555 1_555
C48A N11A 1_555 1_555
C49A N11A 1_555 1_555
C50A N12A 1_555 1_555
C51A N12A 1_555 1_555
C52A N13A 1_555 1_555
C53A N13A 1_555 1_555
C56A N15A 1_555 1_555
C57A N15A 1_555 1_555
C107A C115A 1_555 1_555
H91A C115A 1_555 1_555
C108A C116A 1_555 1_555
H92A C116A 1_555 1_555
C105A C113A 1_555 1_555
H89A C113A 1_555 1_555
C106A C114A 1_555 1_555
H90A C114A 1_555 1_555
C111A C119A 1_555 1_555
H95A C119A 1_555 1_555
C112A C120A 1_555 1_555
H96A C120A 1_555 1_555
C32A C40A 1_555 1_555
H31A C40A 1_555 1_555
C33A C41A 1_555 1_555
H32A C41A 1_555 1_555
H49A C58A 1_555 1_555
C80A C58A 1_555 1_555
C81A C59A 1_555 1_555
H50A C59A 1_555 1_555
H51A C60A 1_555 1_555
C82A C60A 1_555 1_555
C83A C61A 1_555 1_555
H52A C61A 1_555 1_555
H53A C62A 1_555 1_555
C84A C62A 1_555 1_555
C85A C63A 1_555 1_555
H54A C63A 1_555 1_555
C30A C38A 1_555 1_555
H29A C38A 1_555 1_555
C31A C39A 1_555 1_555
H30A C39A 1_555 1_555
H39A C48A 1_555 1_555
C70A C48A 1_555 1_555
C71A C49A 1_555 1_555
H40A C49A 1_555 1_555
H41A C50A 1_555 1_555
C72A C50A 1_555 1_555
C73A C51A 1_555 1_555
H42A C51A 1_555 1_555
H43A C52A 1_555 1_555
C74A C52A 1_555 1_555
C75A C53A 1_555 1_555
H44A C53A 1_555 1_555
H47A C56A 1_555 1_555
C78A C56A 1_555 1_555
C79A C57A 1_555 1_555
H48A C57A 1_555 1_555
C102A C107A 1_555 1_555
H83A C107A 1_555 1_555
H84A C108A 1_555 1_555
C101A C105A 1_555 1_555
H81A C105A 1_555 1_555
H82A C106A 1_555 1_555
C104A C111A 1_555 1_555
H87A C111A 1_555 1_555
H88A C112A 1_555 1_555
C27A C32A 1_555 1_555
H23A C32A 1_555 1_555
H24A C33A 1_555 1_555
H71A C80A 1_555 1_555
C96A C80A 1_555 1_555
H72A C81A 1_555 1_555
H73A C82A 1_555 1_555
C97A C82A 1_555 1_555
H74A C83A 1_555 1_555
H75A C84A 1_555 1_555
C98A C84A 1_555 1_555
H76A C85A 1_555 1_555
C26A C30A 1_555 1_555
H21A C30A 1_555 1_555
H22A C31A 1_555 1_555
H61A C70A 1_555 1_555
C91A C70A 1_555 1_555
H62A C71A 1_555 1_555
H63A C72A 1_555 1_555
C92A C72A 1_555 1_555
H64A C73A 1_555 1_555
H65A C74A 1_555 1_555
C93A C74A 1_555 1_555
H66A C75A 1_555 1_555
H69A C78A 1_555 1_555
C95A C78A 1_555 1_555
H70A C79A 1_555 1_555
C22A C27A 1_555 1_555
C103A C97A 1_555 1_555
C21A C26A 1_555 1_555
C100A C95A 1_555 1_555
C13A C22A 1_555 1_555
C14A C22A 1_555 1_555
C109A C103A 1_555 1_555
C110A C103A 1_555 1_555
C11A C21A 1_555 1_555
C12A C21A 1_555 1_555
C88A C100A 1_555 1_555
C89A C100A 1_555 1_555
C3A C13A 1_555 1_555
H13A C13A 1_555 1_555
C4A C14A 1_555 1_555
H14A C14A 1_555 1_555
C117A C109A 1_555 1_555
H85A C109A 1_555 1_555
H86A C110A 1_555 1_555
C118A C110A 1_555 1_555
C1A C11A 1_555 1_555
H11A C11A 1_555 1_555
C2A C12A 1_555 1_555
H12A C12A 1_555 1_555
C66A C88A 1_555 1_555
H79A C88A 1_555 1_555
C67A C89A 1_555 1_555
H80A C89A 1_555 1_555
N2A C3A 1_555 1_555
H3A C3A 1_555 1_555
H4A C4A 1_555 1_555
N23A C117A 1_555 1_555
H93A C117A 1_555 1_555
H94A C118A 1_555 1_555
N1A C1A 1_555 1_555
H1A C1A 1_555 1_555
H2A C2A 1_555 1_555
N20A C66A 1_555 1_555
H57A C66A 1_555 1_555
H58A C67A 1_555 1_555
O2A N2A 1_555 1_555
O19A_2 N23A 1_555 1_555
O1A N1A 1_555 1_555
O24_2 N20A 1_555 1_555
Ho1A_3 O2A 1_555 1_555
Ho2A_3 O19A_2 1_555 1_555
Ho3_3 O24_2 1_555 1_555
O3A Ho1A_3 1_555 1_555
O5A Ho1A_3 1_555 1_555
O4A_2 Ho1A_3 1_555 1_555
O6A_2 Ho1A_3 1_555 1_555
O7A_2 Ho1A_3 1_555 1_555
O8A_2 Ho1A_3 1_555 1_555
O11A_2 Ho3_3 1_555 1_555
N3A O3A 1_555 1_555
N5A O5A 1_555 1_555
N8A O11A_2 1_555 1_555
C5A N3A 1_555 1_555
C6A N3A 1_555 1_555
C9A N5A 1_555 1_555
C10A N5A 1_555 1_555
C42A N8A 1_555 1_555
C43A N8A 1_555 1_555
H5A C5A 1_555 1_555
C15A C5A 1_555 1_555
C16A C6A 1_555 1_555
H6A C6A 1_555 1_555
H9A C9A 1_555 1_555
C19A C9A 1_555 1_555
C20A C10A 1_555 1_555
H10A C10A 1_555 1_555
C34A C42A 1_555 1_555
H33A C42A 1_555 1_555
C35A C43A 1_555 1_555
H34A C43A 1_555 1_555
H15A C15A 1_555 1_555
C23A C15A 1_555 1_555
H16A C16A 1_555 1_555
H19A C19A 1_555 1_555
C25A C19A 1_555 1_555
H20A C20A 1_555 1_555
C28A C34A 1_555 1_555
H25A C34A 1_555 1_555
H26A C35A 1_555 1_555
C29A C25A 1_555 1_555
C36A C29A 1_555 1_555
C37A C29A 1_555 1_555
C44A C36A 1_555 1_555
H27A C36A 1_555 1_555
H28A C37A 1_555 1_555
C45A C37A 1_555 1_555
N9A C44A 1_555 1_555
H35A C44A 1_555 1_555
H36A C45A 1_555 1_555
O12A_2 N9A 1_555 1_555
Ho3A_3 O12A_2 1_555 1_555
C12 C21 1_555 1_555
C14 C22 1_555 1_555
C16 C23 1_555 1_555
C18 C24 1_555 1_555
C20 C25 1_555 1_555
C39 N6 1_555 1_555
C41 N7 1_555 1_555
C43 N8 1_555 1_555
C45 N9 1_555 1_555
C69 C90 1_555 1_555
C71 C91 1_555 1_555
C73 C92 1_555 1_555
C75 C93 1_555 1_555
C77 C94 1_555 1_555
C79 C95 1_555 1_555
C81 C96 1_555 1_555
C83 C97 1_555 1_555
C85 C98 1_555 1_555
C87 C99 1_555 1_555
C89 C100 1_555 1_555
C93 C96 1_555 1_555
C95 C100 1_555 1_555
C114 N21 1_555 1_555
C116 N22 1_555 1_555
C118 N23 1_555 1_555
C120 N24 1_555 1_555
C8A N4A 1_555 1_555
Ho3A O24A 1_555 1_555
C47A N10A 1_555 1_555
C65A N19A 1_555 1_555
C55A N14A 1_555 1_555
O8A Ho1A_2 1_555 1_555
C108A C102A 1_555 1_555
C106A C101A 1_555 1_555
C112A C104A 1_555 1_555
C33A C27A 1_555 1_555
C81A C96A 1_555 1_555
C83A C97A 1_555 1_555
C85A C98A 1_555 1_555
C31A C26A 1_555 1_555
C71A C91A 1_555 1_555
C73A C92A 1_555 1_555
C75A C93A 1_555 1_555
C79A C95A 1_555 1_555
C102A C92A 1_555 1_555
C101A C91A 1_555 1_555
C104A C98A 1_555 1_555
C96A C93A 1_555 1_555
C4A N2A 1_555 1_555
C118A N23A 1_555 1_555
C2A N1A 1_555 1_555
C67A N20A 1_555 1_555
O1A Ho1A_3 1_555 1_555
C16A C23A 1_555 1_555
C20A C25A 1_555 1_555
C35A C28A 1_555 1_555
C23A C28A 1_555 1_555
C45A N9A 1_555 1_555

#END
