
#######################################################################
#
#                 Cambridge Crystallographic Data Centre
#                                CCDC 
#
#######################################################################
#
# If this CIF has been generated from an entry in the Cambridge 
# Structural Database, then it will include bibliographic, chemical, 
# crystal, experimental, refinement or atomic coordinate data resulting 
# from the CCDC's data processing and validation procedures.
#
#######################################################################

data_BOFGAF
_symmetry_cell_setting           triclinic
_symmetry_space_group_name_H-M   'P -1'
_symmetry_Int_Tables_number      2
_space_group_name_Hall           '-P 1'
loop_
_symmetry_equiv_pos_site_id
_symmetry_equiv_pos_as_xyz
1 x,y,z
2 -x,-y,-z
_cell_length_a                   9.0520(4)
_cell_length_b                   10.0280(4)
_cell_length_c                   11.6053(5)
_cell_angle_alpha                77.244(1)
_cell_angle_beta                 74.089(1)
_cell_angle_gamma                73.361(1)
_cell_volume                     959.028
loop_
_atom_site_label
_atom_site_type_symbol
_atom_site_fract_x
_atom_site_fract_y
_atom_site_fract_z
Np1 Np 0.093367(8) 0.882251(7) 0.252237(6)
S1 S 0.16063(5) 0.63514(5) 0.52727(4)
S2 S 0.15867(6) 0.61762(5) 0.06158(4)
S3 S 0.52504(5) 0.77118(5) 0.21073(4)
O1 O 0.18480(16) 0.95984(14) 0.03273(12)
O2 O 0.11476(16) 1.02382(14) -0.14614(12)
O3 O 0.18273(16) 0.96544(14) 0.40027(12)
O4 O 0.11634(16) 1.02766(15) 0.58528(12)
O5 O 0.06398(18) 1.13464(15) 0.20845(14)
O6 O 0.36290(16) 0.85285(15) 0.19993(13)
O7 O 0.15824(16) 0.69167(14) 0.39777(12)
O8 O -0.11053(17) 0.75254(16) 0.30898(14)
O9 O 0.0566(2) 0.71810(16) -0.01184(14)
O10 O 0.02820(17) 0.71759(16) 0.60534(13)
O11 O 0.18796(16) 0.68606(15) 0.15076(13)
O12 O 0.58611(17) 0.84422(17) 0.27678(15)
O13 O 0.17006(18) 0.48598(15) 0.55010(13)
O14 O 0.53349(18) 0.62484(16) 0.25914(14)
O15 O 0.30548(19) 0.54257(17) -0.00722(15)
C1 C 0.3354(3) 0.6586(2) 0.5489(2)
C2 C 0.0862(2) 0.99837(19) 0.49544(17)
C3 C 0.0862(2) 0.99520(19) -0.03180(16)
C5 C 0.0555(3) 0.4918(2) 0.1476(2)
C6 C 0.6367(3) 0.7821(3) 0.0611(2)
H1 H 0.049(3) 0.436(3) 0.097(3)
H2 H 0.324(3) 0.762(3) 0.540(3)
H3 H 0.594(3) 0.731(3) 0.019(2)
H4 H 0.622(3) 0.880(3) 0.029(2)
H5 H 0.350(4) 0.606(3) 0.626(3)
H6 H 0.115(3) 0.433(3) 0.205(3)
H8 H -0.114(4) 0.678(4) 0.361(3)
H9 H -0.039(4) 0.533(3) 0.186(3)
H10 H -0.192(4) 0.786(3) 0.302(3)
H11 H 0.416(3) 0.618(3) 0.494(3)
H12 H 0.742(4) 0.736(3) 0.066(3)
H14 H 0.026(4) 1.183(4) 0.153(3)
H16 H 0.038(3) 1.176(3) 0.258(3)
Np1A Np -0.093367(8) 1.117749(7) -0.252237(6)
Np1A_2 Np -0.093367(8) 1.117749(7) 0.747763(6)
S1A S -0.16063(5) 1.36486(5) -0.52727(4)
S2A S -0.15867(6) 1.38238(5) -0.06158(4)
S3A S -0.52504(5) 1.22882(5) -0.21073(4)
O1A O -0.18480(16) 1.04016(14) -0.03273(12)
O2A O -0.11476(16) 0.97618(14) 0.14614(12)
O3A O -0.18273(16) 1.03456(14) 0.59973(12)
O3A_2 O -0.18273(16) 1.03456(14) -0.40027(12)
O4A O -0.11634(16) 0.97234(15) 0.41472(12)
O4_2 O 0.11634(16) 1.02766(15) -0.41472(12)
O5A O -0.06398(18) 0.86536(15) -0.20845(14)
O6A O -0.36290(16) 1.14715(15) -0.19993(13)
O7A O -0.15824(16) 1.30833(14) -0.39777(12)
O8A O 0.11053(17) 1.24746(16) -0.30898(14)
O9A O -0.0566(2) 1.28190(16) 0.01184(14)
O10A O -0.02820(17) 1.28241(16) -0.60534(13)
O11A O -0.18796(16) 1.31394(15) -0.15076(13)
O12A O -0.58611(17) 1.15578(17) -0.27678(15)
O13A O -0.17006(18) 1.51402(15) -0.55010(13)
O14A O -0.53349(18) 1.37516(16) -0.25914(14)
O15A O -0.30548(19) 1.45743(17) 0.00722(15)
C1A C -0.3354(3) 1.3414(2) -0.5489(2)
C2A C -0.0862(2) 1.00163(19) 0.50456(17)
C3A C -0.0862(2) 1.00480(19) 0.03180(16)
C5A C -0.0555(3) 1.5082(2) -0.1476(2)
C6A C -0.6367(3) 1.2179(3) -0.0611(2)
H1A H -0.049(3) 1.564(3) -0.097(3)
H2A H -0.324(3) 1.238(3) -0.540(3)
H3A H -0.594(3) 1.269(3) -0.019(2)
H4A H -0.622(3) 1.120(3) -0.029(2)
H5A H -0.350(4) 1.394(3) -0.626(3)
H6A H -0.115(3) 1.567(3) -0.205(3)
H8A H 0.114(4) 1.322(4) -0.361(3)
H9A H 0.039(4) 1.467(3) -0.186(3)
H10A H 0.192(4) 1.214(3) -0.302(3)
H11A H -0.416(3) 1.382(3) -0.494(3)
H12A H -0.742(4) 1.264(3) -0.066(3)
H14A H -0.026(4) 0.817(4) -0.153(3)
H16A H -0.038(3) 0.824(3) -0.258(3)
N1 N 0.4995(2) 0.3314(2) 0.20483(18)
C4 C 0.3795(3) 0.3586(2) 0.3045(2)
N2 N 0.4533(3) 0.1333(2) 0.2971(2)
C7 C 0.3504(3) 0.2340(3) 0.3625(2)
C8 C 0.5417(3) 0.1951(3) 0.2021(2)
H7 H 0.336(3) 0.451(3) 0.321(2)
H13 H 0.277(4) 0.212(3) 0.432(3)
H15 H 0.616(4) 0.154(4) 0.147(3)
H17 H 0.457(4) 0.040(4) 0.313(3)
H18 H 0.539(3) 0.392(3) 0.151(3)
loop_
_geom_bond_atom_site_label_1
_geom_bond_atom_site_label_2
_geom_bond_site_symmetry_1
_geom_bond_site_symmetry_2
Np1 O1 1_555 1_555
S1 O7 1_555 1_555
S2 O9 1_555 1_555
S3 O6 1_555 1_555
O1 C3 1_555 1_555
O2 C3 1_555 1_555
O3 Np1 1_555 1_555
O4 C2 1_555 1_555
O5 Np1 1_555 1_555
O6 Np1 1_555 1_555
O7 Np1 1_555 1_555
O8 Np1 1_555 1_555
O10 S1 1_555 1_555
O11 Np1 1_555 1_555
O12 S3 1_555 1_555
O13 S1 1_555 1_555
O14 S3 1_555 1_555
O15 S2 1_555 1_555
C1 S1 1_555 1_555
C2 O3 1_555 1_555
C3 C3A 1_555 1_555
N1 C4 1_555 1_555
C4 C7 1_555 1_555
C5 S2 1_555 1_555
C6 S3 1_555 1_555
N2 C7 1_555 1_555
C7 H13 1_555 1_555
C8 N1 1_555 1_555
H1 C5 1_555 1_555
H2 C1 1_555 1_555
H3 C6 1_555 1_555
H4 C6 1_555 1_555
H5 C1 1_555 1_555
H6 C5 1_555 1_555
H7 C4 1_555 1_555
H8 O8 1_555 1_555
H9 C5 1_555 1_555
H10 O8 1_555 1_555
H11 C1 1_555 1_555
H12 C6 1_555 1_555
H14 O5 1_555 1_555
H15 C8 1_555 1_555
H16 O5 1_555 1_555
H17 N2 1_555 1_555
H18 N1 1_555 1_555
Np1A O2 1_555 1_555
Np1A_2 O4 1_555 1_555
S1A O7A 1_555 1_555
S2A O9A 1_555 1_555
S3A O6A 1_555 1_555
O1A Np1A 1_555 1_555
O2A Np1 1_555 1_555
O3A Np1A_2 1_555 1_555
O3A_2 Np1A 1_555 1_555
O4A Np1 1_555 1_555
O4_2 Np1A 1_555 1_555
O5A Np1A 1_555 1_555
O6A Np1A 1_555 1_555
O7A Np1A 1_555 1_555
O8A Np1A 1_555 1_555
O10A S1A 1_555 1_555
O11A Np1A 1_555 1_555
O12A S3A 1_555 1_555
O13A S1A 1_555 1_555
O14A S3A 1_555 1_555
O15A S2A 1_555 1_555
C1A S1A 1_555 1_555
C2A C2 1_555 1_555
C3A O1A 1_555 1_555
C5A S2A 1_555 1_555
C6A S3A 1_555 1_555
H1A C5A 1_555 1_555
H2A C1A 1_555 1_555
H3A C6A 1_555 1_555
H4A C6A 1_555 1_555
H5A C1A 1_555 1_555
H6A C5A 1_555 1_555
H8A O8A 1_555 1_555
H9A C5A 1_555 1_555
H10A O8A 1_555 1_555
H11A C1A 1_555 1_555
H12A C6A 1_555 1_555
H14A O5A 1_555 1_555
H16A O5A 1_555 1_555
S2 O11 1_555 1_555
N2 C8 1_555 1_555
S2A O11A 1_555 1_555
O2A C3A 1_555 1_555
O3A C2A 1_555 1_555
O4A C2A 1_555 1_555

#END
