
#######################################################################
#
#                 Cambridge Crystallographic Data Centre
#                                CCDC 
#
#######################################################################
#
# If this CIF has been generated from an entry in the Cambridge 
# Structural Database, then it will include bibliographic, chemical, 
# crystal, experimental, refinement or atomic coordinate data resulting 
# from the CCDC's data processing and validation procedures.
#
#######################################################################

data_BOMCOX
_symmetry_cell_setting           monoclinic
_symmetry_space_group_name_H-M   'P 21/c'
_symmetry_Int_Tables_number      14
_space_group_name_Hall           '-P 2ybc'
loop_
_symmetry_equiv_pos_site_id
_symmetry_equiv_pos_as_xyz
1 x,y,z
2 -x,1/2+y,1/2-z
3 -x,-y,-z
4 x,1/2-y,1/2+z
_cell_length_a                   12.344(3)
_cell_length_b                   26.323(5)
_cell_length_c                   15.663(3)
_cell_angle_alpha                90
_cell_angle_beta                 97.56(3)
_cell_angle_gamma                90
_cell_volume                     5045.16
loop_
_atom_site_label
_atom_site_type_symbol
_atom_site_fract_x
_atom_site_fract_y
_atom_site_fract_z
Zn1 Zn 0.22368(6) 0.24099(3) 0.22120(5)
Zn2 Zn 0.38279(6) 0.26324(3) 0.40834(5)
O1 O 0.4543(4) 0.2975(2) 0.3219(3)
O2 O 0.3439(4) 0.28881(16) 0.1974(3)
O3 O 0.6782(5) 0.45522(19) 0.1008(4)
O4 O 0.5080(4) 0.68171(18) 0.1257(3)
O5 O 0.6777(4) 0.69478(17) 0.0983(3)
O6 O 0.2599(4) 0.30981(17) 0.4222(3)
O7 O 0.1546(4) 0.27811(17) 0.3071(3)
O8 O -0.1705(5) 0.4440(2) 0.4101(4)
O9 O -0.1105(4) 0.66568(19) 0.2558(3)
O10 O -0.2721(4) 0.67233(17) 0.3010(3)
N1 N 0.4851(4) 0.2746(2) 0.5167(3)
N2 N 0.7790(5) 0.2636(3) 0.7711(4)
N3 N 0.8256(5) 0.2617(3) 0.8574(4)
N4 N 1.1196(4) 0.25945(19) 1.1108(3)
C1 C 0.4247(5) 0.3078(2) 0.2439(4)
C2 C 0.4913(5) 0.3466(2) 0.2057(4)
C3 C 0.5665(6) 0.3751(3) 0.2587(5)
H1 H 0.5766 0.3689 0.3189
C4 C 0.6274(6) 0.4126(3) 0.2249(5)
H2 H 0.6775 0.4328 0.2616
C5 C 0.6133(6) 0.4199(3) 0.1363(5)
C6 C 0.5401(7) 0.3926(3) 0.0831(5)
H3 H 0.5323 0.3982 0.0227
C7 C 0.4765(7) 0.3562(3) 0.1173(4)
H4 H 0.4229 0.3378 0.0805
C8 C 0.6562(6) 0.5062(3) 0.1100(5)
C9 C 0.7342(6) 0.5390(3) 0.0841(6)
H5 H 0.7984 0.5261 0.0643
C10 C 0.7160(6) 0.5910(3) 0.0878(5)
H6 H 0.7681 0.6138 0.0696
C11 C 0.6234(5) 0.6101(2) 0.1174(4)
C12 C 0.5488(6) 0.5765(3) 0.1429(5)
H7 H 0.4847 0.5894 0.1627
C13 C 0.5642(6) 0.5244(3) 0.1407(5)
H8 H 0.5124 0.5018 0.1598
C14 C 0.6000(5) 0.6654(3) 0.1153(4)
C15 C 0.1725(5) 0.3086(2) 0.3701(4)
C16 C 0.0839(5) 0.3446(2) 0.3825(4)
C17 C 0.0906(6) 0.3773(3) 0.4524(5)
H9 H 0.1535 0.3767 0.4944
C18 C 0.0065(7) 0.4107(3) 0.4614(6)
H10 H 0.0108 0.4325 0.5101
C19 C -0.0827(7) 0.4122(3) 0.4000(5)
C20 C -0.0943(7) 0.3792(3) 0.3299(6)
H11 H -0.1581 0.3800 0.2888
C21 C -0.0101(6) 0.3449(3) 0.3213(5)
H12 H -0.0163 0.3219 0.2742
C22 C -0.1704(6) 0.4929(3) 0.3753(5)
C23 C -0.2611(6) 0.5219(3) 0.3880(5)
H13 H -0.3173 0.5084 0.4174
C24 C -0.2670(6) 0.5715(3) 0.3563(5)
H14 H -0.3279 0.5920 0.3649
C25 C -0.1858(6) 0.5918(2) 0.3122(4)
C26 C -0.0983(6) 0.5607(3) 0.2998(5)
H15 H -0.0428 0.5737 0.2692
C27 C -0.0895(7) 0.5113(3) 0.3306(5)
H16 H -0.0291 0.4907 0.3212
C28 C -0.1876(6) 0.6461(2) 0.2864(4)
C29 C 0.5868(6) 0.2536(3) 0.5294(5)
H17 H 0.6125 0.2367 0.4824
C30 C 0.6532(6) 0.2555(3) 0.6052(5)
H18 H 0.7247 0.2415 0.6106
C31 C 0.6143(5) 0.2782(3) 0.6745(4)
C32 C 0.5121(5) 0.3019(3) 0.6633(4)
H19 H 0.4866 0.3199 0.7093
C33 C 0.4498(5) 0.2985(3) 0.5844(4)
H20 H 0.3792 0.3136 0.5770
C34 C 0.6787(6) 0.2788(3) 0.7621(4)
H21 H 0.6464 0.2901 0.8105
C35 C 0.9227(5) 0.2763(3) 0.8671(4)
H22 H 0.9546 0.2900 0.8201
C36 C 0.9859(5) 0.2720(3) 0.9525(4)
C37 C 1.0935(5) 0.2905(2) 0.9669(4)
H23 H 1.1235 0.3079 0.9223
C38 C 1.1550(5) 0.2833(2) 1.0453(4)
H24 H 1.2274 0.2963 1.0533
C39 C 1.0157(6) 0.2429(3) 1.0997(4)
H25 H 0.9872 0.2272 1.1466
C40 C 0.9492(6) 0.2480(3) 1.0223(5)
H26 H 0.8769 0.2349 1.0166
Zn1_2 Zn 1.22368(6) 0.24099(3) 1.22120(5)
Zn1A Zn -0.22368(6) 0.74099(3) 0.27880(5)
Zn2A Zn 0.61721(6) 0.76324(3) 0.09166(5)
O5A O 0.3223(4) 0.19478(17) 0.4017(3)
O9A O 0.1105(4) 0.16568(19) 0.2442(3)
O10A O 0.2721(4) 0.17233(17) 0.1990(3)
N4_2 N 0.1196(4) 0.25945(19) 0.1108(3)
O11 O 0.545(4) 0.435(2) 0.647(3)
N5 N 0.6980(19) 0.3942(9) 0.6021(15)
C41 C 0.654(3) 0.3878(14) 0.520(2)
H27 H 0.6520 0.3515 0.5056
H28 H 0.6984 0.4057 0.4818
H29 H 0.5795 0.4014 0.5114
C42 C 0.809(3) 0.3779(14) 0.625(2)
H30 H 0.8584 0.4026 0.6043
H31 H 0.8190 0.3446 0.5992
H32 H 0.8247 0.3752 0.6880
C43 C 0.640(3) 0.4172(15) 0.654(3)
H33 H 0.6779 0.4215 0.7105
N6 N 0.8764(15) 0.3953(7) -0.0094(11)
C44 C 0.774(2) 0.3877(11) -0.0629(18)
H34 H 0.7449 0.3540 -0.0514
H35 H 0.7850 0.3899 -0.1236
H36 H 0.7220 0.4139 -0.0502
C45 C 0.890(2) 0.3801(10) 0.0774(16)
H37 H 0.8715 0.4084 0.1134
H38 H 0.9666 0.3703 0.0948
H39 H 0.8425 0.3512 0.0846
C46 C 0.9532(16) 0.4166(7) -0.0467(12)
H40 H 0.9435 0.4273 -0.1051
O12 O 1.0578(16) 0.4226(7) 0.0120(12)
N7? N 1.2232(16) 0.4449(7) 0.2190(12)
C47? C 1.2847(16) 0.4488(7) 0.3048(12)
H41? H 1.3034 0.4146 0.3270
H42? H 1.2401 0.4661 0.3432
H43? H 1.3518 0.4682 0.3017
C48? C 1.229(7) 0.432(3) 0.188(5)
H44? H 1.2062 0.4509 0.1353
H45? H 1.1837 0.4012 0.1891
H46? H 1.3058 0.4220 0.1907
O13? O 1.142(3) 0.5152(16) 0.233(3)
C49? C 1.120(5) 0.481(2) 0.207(4)
H47? H 1.0491 0.4718 0.1797
loop_
_geom_bond_atom_site_label_1
_geom_bond_atom_site_label_2
_geom_bond_site_symmetry_1
_geom_bond_site_symmetry_2
Zn1 O2 1_555 1_555
Zn2 O1 1_555 1_555
O1 C1 1_555 1_555
O2 C1 1_555 1_555
O3 C5 1_555 1_555
O4 C14 1_555 1_555
O5 C14 1_555 1_555
O6 Zn2 1_555 1_555
O7 Zn1 1_555 1_555
O8 C19 1_555 1_555
O9 C28 1_555 1_555
O10 C28 1_555 1_555
N1 Zn2 1_555 1_555
N2 N3 1_555 1_555
N3 C35 1_555 1_555
N4 C38 1_555 1_555
C1 C2 1_555 1_555
C2 C3 1_555 1_555
C3 H1 1_555 1_555
C4 C3 1_555 1_555
H2 C4 1_555 1_555
C5 C4 1_555 1_555
C6 C5 1_555 1_555
H3 C6 1_555 1_555
C7 C2 1_555 1_555
H4 C7 1_555 1_555
C8 O3 1_555 1_555
C9 C8 1_555 1_555
H5 C9 1_555 1_555
C10 C9 1_555 1_555
H6 C10 1_555 1_555
C11 C10 1_555 1_555
C12 C11 1_555 1_555
H7 C12 1_555 1_555
C13 C8 1_555 1_555
H8 C13 1_555 1_555
C14 C11 1_555 1_555
C15 O6 1_555 1_555
C16 C15 1_555 1_555
C17 C16 1_555 1_555
H9 C17 1_555 1_555
C18 C17 1_555 1_555
H10 C18 1_555 1_555
C19 C18 1_555 1_555
C20 C19 1_555 1_555
H11 C20 1_555 1_555
C21 C16 1_555 1_555
H12 C21 1_555 1_555
C22 O8 1_555 1_555
C23 C22 1_555 1_555
H13 C23 1_555 1_555
C24 C23 1_555 1_555
H14 C24 1_555 1_555
C25 C24 1_555 1_555
C26 C25 1_555 1_555
H15 C26 1_555 1_555
C27 C22 1_555 1_555
H16 C27 1_555 1_555
C28 C25 1_555 1_555
C29 N1 1_555 1_555
H17 C29 1_555 1_555
C30 C29 1_555 1_555
H18 C30 1_555 1_555
C31 C30 1_555 1_555
C32 C31 1_555 1_555
H19 C32 1_555 1_555
C33 N1 1_555 1_555
H20 C33 1_555 1_555
C34 N2 1_555 1_555
H21 C34 1_555 1_555
C35 H22 1_555 1_555
C36 C35 1_555 1_555
C37 C36 1_555 1_555
H23 C37 1_555 1_555
C38 C37 1_555 1_555
H24 C38 1_555 1_555
C39 N4 1_555 1_555
H25 C39 1_555 1_555
C40 C36 1_555 1_555
H26 C40 1_555 1_555
O11 C43 1_555 1_555
N5 C41 1_555 1_555
C41 H27 1_555 1_555
H28 C41 1_555 1_555
H29 C41 1_555 1_555
C42 N5 1_555 1_555
H30 C42 1_555 1_555
H31 C42 1_555 1_555
H32 C42 1_555 1_555
C43 N5 1_555 1_555
H33 C43 1_555 1_555
N6 C44 1_555 1_555
C44 H34 1_555 1_555
H35 C44 1_555 1_555
H36 C44 1_555 1_555
C45 N6 1_555 1_555
H37 C45 1_555 1_555
H38 C45 1_555 1_555
H39 C45 1_555 1_555
C46 N6 1_555 1_555
H40 C46 1_555 1_555
O12 C46 1_555 1_555
Zn1_2 N4 1_555 1_555
Zn1A O9 1_555 1_555
Zn2A O5 1_555 1_555
O5A Zn2 1_555 1_555
O9A Zn1 1_555 1_555
O10A Zn1 1_555 1_555
N4_2 Zn1 1_555 1_555
O7 C15 1_555 1_555
O10 Zn1A 1_555 1_555
C6 C7 1_555 1_555
C12 C13 1_555 1_555
C20 C21 1_555 1_555
C26 C27 1_555 1_555
C31 C34 1_555 1_555
C32 C33 1_555 1_555
C39 C40 1_555 1_555

#END
