
#######################################################################
#
#                 Cambridge Crystallographic Data Centre
#                                CCDC 
#
#######################################################################
#
# If this CIF has been generated from an entry in the Cambridge 
# Structural Database, then it will include bibliographic, chemical, 
# crystal, experimental, refinement or atomic coordinate data resulting 
# from the CCDC's data processing and validation procedures.
#
#######################################################################

data_BOMLEU
_symmetry_cell_setting           monoclinic
_symmetry_space_group_name_H-M   'P c'
_symmetry_Int_Tables_number      7
_space_group_name_Hall           'P -2yc'
loop_
_symmetry_equiv_pos_site_id
_symmetry_equiv_pos_as_xyz
1 x,y,z
2 x,-y,1/2+z
_cell_length_a                   8.623(2)
_cell_length_b                   8.6310(8)
_cell_length_c                   14.896(3)
_cell_angle_alpha                90
_cell_angle_beta                 102.848(9)
_cell_angle_gamma                90
_cell_volume                     1080.88
loop_
_atom_site_label
_atom_site_type_symbol
_atom_site_fract_x
_atom_site_fract_y
_atom_site_fract_z
Na1 Na 0.9954(5) 0.6854(4) 0.0197(2)
Na2 Na 0.3028(3) 0.3747(3) 0.01884(19)
O1 O 0.2543(9) 0.0964(6) -0.0248(4)
O2 O 0.5994(8) -0.4071(5) -0.4361(4)
O9 O 0.4153(5) -0.2815(5) -0.3253(3)
O10 O 0.2352(5) -0.1100(5) -0.2974(3)
C1 C 0.3688(8) -0.1792(7) -0.2781(4)
O11 O 0.6152(5) -0.1963(5) -0.1702(3)
O12 O 0.4376(5) -0.0296(5) -0.1396(3)
C2 C 0.4841(8) -0.1314(7) -0.1882(4)
O13 O 0.0679(5) 0.3019(5) -0.2996(3)
O14 O -0.1198(5) 0.4835(5) -0.3195(3)
C3 C -0.0418(7) 0.3737(6) -0.2765(4)
O15 O -0.0039(5) 0.2255(5) -0.1375(3)
O16 O -0.2166(5) 0.3797(5) -0.1723(3)
C4 C -0.0898(8) 0.3218(7) -0.1875(4)
O17 O -0.2339(5) -0.1780(4) -0.3206(3)
O18 O -0.0544(6) 0.0119(5) -0.2890(3)
C5 C -0.1135(8) -0.1160(7) -0.2718(4)
O19 O -0.0913(5) -0.3184(5) -0.1606(3)
O20 O 0.0984(5) -0.1380(5) -0.1404(3)
C6 C -0.0286(7) -0.1996(7) -0.1835(4)
O21 O 0.3679(6) 0.1803(5) -0.2910(3)
O22 O 0.5101(6) 0.3771(5) -0.3248(3)
C7 C 0.4339(7) 0.3104(7) -0.2745(4)
O23 O 0.3348(6) 0.3234(5) -0.1370(3)
O24 O 0.4955(6) 0.5125(5) -0.1648(3)
C8 C 0.4201(7) 0.3893(7) -0.1838(4)
H1 H 0.350(5) 0.038(8) -0.002(5)
H2 H 0.180(6) 0.071(8) 0.013(4)
H3 H 0.626(8) -0.322(4) -0.470(4)
H4 H 0.634(8) -0.502(3) -0.458(4)
Y1 Y 0.66085(4) -0.40464(7) -0.26612(3)
Y2 Y 0.19055(4) 0.09459(7) -0.19564(3)
Y1_2 Y -0.33915(4) 0.59536(7) -0.26612(3)
Y1_3 Y -0.33915(4) -0.40464(7) -0.26612(3)
Y1_4 Y 0.66085(4) 0.59536(7) -0.26612(3)
O14_2 O 0.8802(5) -0.5165(5) -0.3195(3)
O16_2 O 0.7834(5) -0.6203(5) -0.1723(3)
O17_2 O 0.7661(5) -0.1780(4) -0.3206(3)
O19_2 O 0.9087(5) -0.3184(5) -0.1606(3)
O22_2 O 0.5101(6) -0.6229(5) -0.3248(3)
O24_2 O 0.4955(6) -0.4875(5) -0.1648(3)
O3 O 0.2690(7) 0.6551(6) 0.0006(4)
H5 H 0.246(3) 0.699(9) -0.060(2)
H6 H 0.345(8) 0.723(8) 0.038(4)
O4 O 0.9853(7) 0.9696(7) 0.0270(3)
H7 H 0.898(7) 1.024(9) -0.011(4)
H8 H 0.969(9) 0.966(10) 0.088(2)
O5 O 0.7081(7) 0.6971(6) 0.0133(3)
H9 H 0.649(8) 0.763(8) 0.046(4)
H10 H 0.683(3) 0.734(8) -0.0494(18)
O6 O 0.0305(7) 0.4033(7) 0.0372(4)
H11 H -0.009(3) 0.314(5) 0.001(4)
H12 H 0.053(3) 0.373(8) 0.1006(15)
O7 O 0.5389(7) 0.9532(6) 0.0816(3)
H13 H 0.540(9) 0.883(7) 0.132(3)
H14 H 0.614(8) 1.034(6) 0.104(4)
O8 O 0.7004(6) 0.1634(6) -0.0431(3)
H15 H 0.725(9) 0.230(7) -0.090(3)
H16 H 0.626(8) 0.088(7) -0.074(4)
loop_
_geom_bond_atom_site_label_1
_geom_bond_atom_site_label_2
_geom_bond_site_symmetry_1
_geom_bond_site_symmetry_2
O1 H1 1_555 1_555
O2 H3 1_555 1_555
O3 H5 1_555 1_555
O4 H7 1_555 1_555
O5 H9 1_555 1_555
O6 H11 1_555 1_555
O7 H13 1_555 1_555
O8 H15 1_555 1_555
O9 C1 1_555 1_555
O10 C1 1_555 1_555
C1 C2 1_555 1_555
O11 C2 1_555 1_555
O12 C2 1_555 1_555
O13 C3 1_555 1_555
O14 C3 1_555 1_555
C3 C4 1_555 1_555
O15 C4 1_555 1_555
O16 C4 1_555 1_555
O17 C5 1_555 1_555
O18 C5 1_555 1_555
C5 C6 1_555 1_555
O19 C6 1_555 1_555
O20 C6 1_555 1_555
O21 C7 1_555 1_555
O22 C7 1_555 1_555
C7 C8 1_555 1_555
O23 C8 1_555 1_555
O24 C8 1_555 1_555
H2 O1 1_555 1_555
H4 O2 1_555 1_555
H6 O3 1_555 1_555
H8 O4 1_555 1_555
H10 O5 1_555 1_555
H12 O6 1_555 1_555
H14 O7 1_555 1_555
H16 O8 1_555 1_555
Y1 O2 1_555 1_555
Y2 O1 1_555 1_555
Y1_2 O14 1_555 1_555
Y1_3 O17 1_555 1_555
Y1_4 O22 1_555 1_555
O14_2 Y1 1_555 1_555
O16_2 Y1 1_555 1_555
O17_2 Y1 1_555 1_555
O19_2 Y1 1_555 1_555
O22_2 Y1 1_555 1_555
O24_2 Y1 1_555 1_555
O9 Y1 1_555 1_555
O10 Y2 1_555 1_555
O11 Y1 1_555 1_555
O12 Y2 1_555 1_555
O13 Y2 1_555 1_555
O15 Y2 1_555 1_555
O16 Y1_2 1_555 1_555
O18 Y2 1_555 1_555
O19 Y1_3 1_555 1_555
O20 Y2 1_555 1_555
O21 Y2 1_555 1_555
O23 Y2 1_555 1_555
O24 Y1_4 1_555 1_555

#END
