
#######################################################################
#
#                 Cambridge Crystallographic Data Centre
#                                CCDC 
#
#######################################################################
#
# If this CIF has been generated from an entry in the Cambridge 
# Structural Database, then it will include bibliographic, chemical, 
# crystal, experimental, refinement or atomic coordinate data resulting 
# from the CCDC's data processing and validation procedures.
#
#######################################################################

data_BOQQAB
_symmetry_cell_setting           cubic
_symmetry_space_group_name_H-M   'F m -3 m'
_symmetry_Int_Tables_number      225
_space_group_name_Hall           '-F 4 2 3'
loop_
_symmetry_equiv_pos_site_id
_symmetry_equiv_pos_as_xyz
1 x,y,z
2 x,-y,-z
3 -x,-y,z
4 -x,y,-z
5 -y,x,z
6 y,x,-z
7 y,-x,z
8 -y,-x,-z
9 y,z,x
10 -y,-z,x
11 y,-z,-x
12 -y,z,-x
13 -z,y,x
14 -z,-y,-x
15 z,-y,x
16 z,y,-x
17 z,x,y
18 -z,x,-y
19 -z,-x,y
20 z,-x,-y
21 -x,-z,-y
22 -x,z,y
23 x,-z,y
24 x,z,-y
25 x,1/2+y,1/2+z
26 x,1/2-y,1/2-z
27 -x,1/2-y,1/2+z
28 -x,1/2+y,1/2-z
29 -y,1/2+x,1/2+z
30 y,1/2+x,1/2-z
31 y,1/2-x,1/2+z
32 -y,1/2-x,1/2-z
33 y,1/2+z,1/2+x
34 -y,1/2-z,1/2+x
35 y,1/2-z,1/2-x
36 -y,1/2+z,1/2-x
37 -z,1/2+y,1/2+x
38 -z,1/2-y,1/2-x
39 z,1/2-y,1/2+x
40 z,1/2+y,1/2-x
41 z,1/2+x,1/2+y
42 -z,1/2+x,1/2-y
43 -z,1/2-x,1/2+y
44 z,1/2-x,1/2-y
45 -x,1/2-z,1/2-y
46 -x,1/2+z,1/2+y
47 x,1/2-z,1/2+y
48 x,1/2+z,1/2-y
49 1/2+x,y,1/2+z
50 1/2+x,-y,1/2-z
51 1/2-x,-y,1/2+z
52 1/2-x,y,1/2-z
53 1/2-y,x,1/2+z
54 1/2+y,x,1/2-z
55 1/2+y,-x,1/2+z
56 1/2-y,-x,1/2-z
57 1/2+y,z,1/2+x
58 1/2-y,-z,1/2+x
59 1/2+y,-z,1/2-x
60 1/2-y,z,1/2-x
61 1/2-z,y,1/2+x
62 1/2-z,-y,1/2-x
63 1/2+z,-y,1/2+x
64 1/2+z,y,1/2-x
65 1/2+z,x,1/2+y
66 1/2-z,x,1/2-y
67 1/2-z,-x,1/2+y
68 1/2+z,-x,1/2-y
69 1/2-x,-z,1/2-y
70 1/2-x,z,1/2+y
71 1/2+x,-z,1/2+y
72 1/2+x,z,1/2-y
73 1/2+x,1/2+y,z
74 1/2+x,1/2-y,-z
75 1/2-x,1/2-y,z
76 1/2-x,1/2+y,-z
77 1/2-y,1/2+x,z
78 1/2+y,1/2+x,-z
79 1/2+y,1/2-x,z
80 1/2-y,1/2-x,-z
81 1/2+y,1/2+z,x
82 1/2-y,1/2-z,x
83 1/2+y,1/2-z,-x
84 1/2-y,1/2+z,-x
85 1/2-z,1/2+y,x
86 1/2-z,1/2-y,-x
87 1/2+z,1/2-y,x
88 1/2+z,1/2+y,-x
89 1/2+z,1/2+x,y
90 1/2-z,1/2+x,-y
91 1/2-z,1/2-x,y
92 1/2+z,1/2-x,-y
93 1/2-x,1/2-z,-y
94 1/2-x,1/2+z,y
95 1/2+x,1/2-z,y
96 1/2+x,1/2+z,-y
97 -x,-y,-z
98 -x,y,z
99 x,y,-z
100 x,-y,z
101 y,-x,-z
102 -y,-x,z
103 -y,x,-z
104 y,x,z
105 -y,-z,-x
106 y,z,-x
107 -y,z,x
108 y,-z,x
109 z,-y,-x
110 z,y,x
111 -z,y,-x
112 -z,-y,x
113 -z,-x,-y
114 z,-x,y
115 z,x,-y
116 -z,x,y
117 x,z,y
118 x,-z,-y
119 -x,z,-y
120 -x,-z,y
121 -x,1/2-y,1/2-z
122 -x,1/2+y,1/2+z
123 x,1/2+y,1/2-z
124 x,1/2-y,1/2+z
125 y,1/2-x,1/2-z
126 -y,1/2-x,1/2+z
127 -y,1/2+x,1/2-z
128 y,1/2+x,1/2+z
129 -y,1/2-z,1/2-x
130 y,1/2+z,1/2-x
131 -y,1/2+z,1/2+x
132 y,1/2-z,1/2+x
133 z,1/2-y,1/2-x
134 z,1/2+y,1/2+x
135 -z,1/2+y,1/2-x
136 -z,1/2-y,1/2+x
137 -z,1/2-x,1/2-y
138 z,1/2-x,1/2+y
139 z,1/2+x,1/2-y
140 -z,1/2+x,1/2+y
141 x,1/2+z,1/2+y
142 x,1/2-z,1/2-y
143 -x,1/2+z,1/2-y
144 -x,1/2-z,1/2+y
145 1/2-x,-y,1/2-z
146 1/2-x,y,1/2+z
147 1/2+x,y,1/2-z
148 1/2+x,-y,1/2+z
149 1/2+y,-x,1/2-z
150 1/2-y,-x,1/2+z
151 1/2-y,x,1/2-z
152 1/2+y,x,1/2+z
153 1/2-y,-z,1/2-x
154 1/2+y,z,1/2-x
155 1/2-y,z,1/2+x
156 1/2+y,-z,1/2+x
157 1/2+z,-y,1/2-x
158 1/2+z,y,1/2+x
159 1/2-z,y,1/2-x
160 1/2-z,-y,1/2+x
161 1/2-z,-x,1/2-y
162 1/2+z,-x,1/2+y
163 1/2+z,x,1/2-y
164 1/2-z,x,1/2+y
165 1/2+x,z,1/2+y
166 1/2+x,-z,1/2-y
167 1/2-x,z,1/2-y
168 1/2-x,-z,1/2+y
169 1/2-x,1/2-y,-z
170 1/2-x,1/2+y,z
171 1/2+x,1/2+y,-z
172 1/2+x,1/2-y,z
173 1/2+y,1/2-x,-z
174 1/2-y,1/2-x,z
175 1/2-y,1/2+x,-z
176 1/2+y,1/2+x,z
177 1/2-y,1/2-z,-x
178 1/2+y,1/2+z,-x
179 1/2-y,1/2+z,x
180 1/2+y,1/2-z,x
181 1/2+z,1/2-y,-x
182 1/2+z,1/2+y,x
183 1/2-z,1/2+y,-x
184 1/2-z,1/2-y,x
185 1/2-z,1/2-x,-y
186 1/2+z,1/2-x,y
187 1/2+z,1/2+x,-y
188 1/2-z,1/2+x,y
189 1/2+x,1/2+z,y
190 1/2+x,1/2-z,-y
191 1/2-x,1/2+z,-y
192 1/2-x,1/2-z,y
_cell_length_a                   30.5557(17)
_cell_length_b                   30.5557(17)
_cell_length_c                   30.5557(17)
_cell_angle_alpha                90
_cell_angle_beta                 90
_cell_angle_gamma                90
_cell_volume                     28528.4
loop_
_atom_site_label
_atom_site_type_symbol
_atom_site_fract_x
_atom_site_fract_y
_atom_site_fract_z
O1 O 0.2500 0.2500 0.2500
O2 O 0.2763(2) 0.2763(2) 0.1519(3)
C1 C 0.2500 0.2500 0.1388(4)
C2 C 0.2500 0.2500 0.0894(3)
C3 C 0.2766(2) 0.2766(2) 0.0633(2)
H1 H 0.2970 0.2970 0.0728
C4 C 0.26619(11) 0.26619(11) 0.0193(3)
C5 C 0.2819(4) 0.2819(4) -0.01932(19)
H2 H 0.3030 0.3030 -0.0140
Zn1 Zn 0.28659(4) 0.28659(4) 0.21341(4)
O2E O 0.2763(2) 0.2763(2) -0.1519(3)
C1E C 0.2500 0.2500 -0.1388(4)
C2E C 0.2500 0.2500 -0.0894(3)
C3E C 0.2766(2) 0.2766(2) -0.0633(2)
H1E H 0.2970 0.2970 -0.0728
C4E C 0.26619(11) 0.26619(11) -0.0193(3)
C5E C 0.2819(4) 0.2819(4) 0.01932(19)
H2E H 0.3030 0.3030 0.0140
O2VB O 0.2237(2) 0.2237(2) 0.1519(3)
C3VB C 0.2234(2) 0.2234(2) 0.0633(2)
H1VB H 0.2030 0.2030 0.0728
C4VB C 0.23381(11) 0.23381(11) 0.0193(3)
C5VB C 0.2181(4) 0.2181(4) -0.01932(19)
H2VB H 0.1970 0.1970 -0.0140
O2AC O 0.2237(2) 0.2237(2) -0.1519(3)
C3AC C 0.2234(2) 0.2234(2) -0.0633(2)
H1AC H 0.2030 0.2030 -0.0728
C4AC C 0.23381(11) 0.23381(11) -0.0193(3)
C5AC C 0.2181(4) 0.2181(4) 0.01932(19)
H2AC H 0.1970 0.1970 0.0140
Zn1E Zn 0.28659(4) 0.28659(4) -0.21341(4)
O2H O 0.2763(2) 0.1519(3) 0.2763(2)
C1H C 0.2500 0.1388(4) 0.2500
C2H C 0.2500 0.0894(3) 0.2500
C3H C 0.2766(2) 0.0633(2) 0.2766(2)
H1H H 0.2970 0.0728 0.2970
C4H C 0.26619(11) 0.0193(3) 0.26619(11)
C5H C 0.2819(4) -0.01932(19) 0.2819(4)
H2H H 0.3030 -0.0140 0.3030
Zn1H Zn 0.28659(4) 0.21341(4) 0.28659(4)
O2V O 0.2763(2) -0.1519(3) 0.2763(2)
C1V C 0.2500 -0.1388(4) 0.2500
C2V C 0.2500 -0.0894(3) 0.2500
C3V C 0.2766(2) -0.0633(2) 0.2766(2)
H1V H 0.2970 -0.0728 0.2970
C4V C 0.26619(11) -0.0193(3) 0.26619(11)
C5V C 0.2819(4) 0.01932(19) 0.2819(4)
H2V H 0.3030 0.0140 0.3030
O2GB O 0.2237(2) 0.1519(3) 0.2237(2)
C3GB C 0.2234(2) 0.0633(2) 0.2234(2)
H1GB H 0.2030 0.0728 0.2030
C4GB C 0.23381(11) 0.0193(3) 0.23381(11)
C5GB C 0.2181(4) -0.01932(19) 0.2181(4)
H2GB H 0.1970 -0.0140 0.1970
O2PB O 0.2237(2) -0.1519(3) 0.2237(2)
C3PB C 0.2234(2) -0.0633(2) 0.2234(2)
H1PB H 0.2030 -0.0728 0.2030
C4PB C 0.23381(11) -0.0193(3) 0.23381(11)
C5PB C 0.2181(4) 0.01932(19) 0.2181(4)
H2PB H 0.1970 0.0140 0.1970
Zn1P Zn 0.21341(4) 0.28659(4) 0.28659(4)
O2HA O 0.2763(2) 0.3481(3) 0.2237(2)
C1HA C 0.2500 0.3612(4) 0.2500
C2HA C 0.2500 0.4106(3) 0.2500
C3HA C 0.2766(2) 0.4367(2) 0.2234(2)
H1HA H 0.2970 0.4272 0.2030
C4HA C 0.26619(11) 0.4807(3) 0.23381(11)
C5HA C 0.2819(4) 0.51932(19) 0.2181(4)
H2HA H 0.3030 0.5140 0.1970
O2UA O 0.2763(2) 0.6519(3) 0.2237(2)
C1UA C 0.2500 0.6388(4) 0.2500
C2UA C 0.2500 0.5894(3) 0.2500
C3UA C 0.2766(2) 0.5633(2) 0.2234(2)
H1UA H 0.2970 0.5728 0.2030
C4UA C 0.26619(11) 0.5193(3) 0.23381(11)
C5UA C 0.2819(4) 0.48068(19) 0.2181(4)
H2UA H 0.3030 0.4860 0.1970
O2CC O 0.2237(2) 0.3481(3) 0.2763(2)
C3CC C 0.2234(2) 0.4367(2) 0.2766(2)
H1CC H 0.2030 0.4272 0.2970
C4CC C 0.23381(11) 0.4807(3) 0.26619(11)
C5CC C 0.2181(4) 0.51932(19) 0.2819(4)
H2CC H 0.1970 0.5140 0.3030
O2OC O 0.2237(2) 0.6519(3) 0.2763(2)
C3OC C 0.2234(2) 0.5633(2) 0.2766(2)
H1OC H 0.2030 0.5728 0.2970
C4OC C 0.23381(11) 0.5193(3) 0.26619(11)
C5OC C 0.2181(4) 0.48068(19) 0.2819(4)
H2OC H 0.1970 0.4860 0.3030
O1E O 0.2500 0.2500 -0.2500
O2P O 0.1519(3) 0.2763(2) 0.2763(2)
O2Y O 0.2763(2) 0.2237(2) 0.3481(3)
O2TA O 0.2763(2) 0.3481(3) -0.2237(2)
O2YA O 0.2237(2) 0.2763(2) 0.3481(3)
O2HB O 0.3481(3) 0.2763(2) -0.2237(2)
O2MB O 0.3481(3) 0.2763(2) 0.2237(2)
O2LC O 0.3481(3) 0.2237(2) 0.2763(2)
Zn1F Zn 0.28659(4) 0.71341(4) 0.21341(4)
Zn1N Zn 0.21341(4) 0.71341(4) 0.28659(4)
Zn1V Zn 0.28659(4) -0.21341(4) 0.28659(4)
Zn1LA Zn 0.21341(4) 0.21341(4) -0.21341(4)
Zn1MA Zn 0.21341(4) -0.21341(4) 0.21341(4)
Zn1QA Zn 0.21341(4) 0.21341(4) 0.21341(4)
loop_
_geom_bond_atom_site_label_1
_geom_bond_atom_site_label_2
_geom_bond_site_symmetry_1
_geom_bond_site_symmetry_2
O1 Zn1 1_555 1_555
O2 C1 1_555 1_555
C1 C2 1_555 1_555
C2 C3 1_555 1_555
C3 H1 1_555 1_555
C4 C3 1_555 1_555
C5 H2 1_555 1_555
Zn1 O2 1_555 1_555
O2E C1E 1_555 1_555
C1E C2E 1_555 1_555
C2E C3E 1_555 1_555
C3E C5 1_555 1_555
H1E C3E 1_555 1_555
C4E C4 1_555 1_555
C5E C3 1_555 1_555
H2E C5E 1_555 1_555
O2VB C1 1_555 1_555
C3VB C2 1_555 1_555
H1VB C3VB 1_555 1_555
C4VB C4 1_555 1_555
C5VB H2VB 1_555 1_555
O2AC C1E 1_555 1_555
C3AC C2E 1_555 1_555
H1AC C3AC 1_555 1_555
C4AC C4E 1_555 1_555
C5AC C3VB 1_555 1_555
H2AC C5AC 1_555 1_555
Zn1E O2E 1_555 1_555
O2H C1H 1_555 1_555
C1H C2H 1_555 1_555
C2H C3H 1_555 1_555
C3H H1H 1_555 1_555
C4H C3H 1_555 1_555
C5H H2H 1_555 1_555
Zn1H O1 1_555 1_555
O2V C1V 1_555 1_555
C1V C2V 1_555 1_555
C2V C3V 1_555 1_555
C3V C5H 1_555 1_555
H1V C3V 1_555 1_555
C4V C4H 1_555 1_555
C5V C3H 1_555 1_555
H2V C5V 1_555 1_555
O2GB C1H 1_555 1_555
C3GB C2H 1_555 1_555
H1GB C3GB 1_555 1_555
C4GB C4H 1_555 1_555
C5GB H2GB 1_555 1_555
O2PB C1V 1_555 1_555
C3PB C2V 1_555 1_555
H1PB C3PB 1_555 1_555
C4PB C4V 1_555 1_555
C5PB C3GB 1_555 1_555
H2PB C5PB 1_555 1_555
Zn1P O1 1_555 1_555
O2HA Zn1 1_555 1_555
C1HA O2HA 1_555 1_555
C2HA C1HA 1_555 1_555
C3HA C2HA 1_555 1_555
H1HA C3HA 1_555 1_555
C4HA C3HA 1_555 1_555
C5HA H2HA 1_555 1_555
O2UA C1UA 1_555 1_555
C1UA C2UA 1_555 1_555
C2UA C3UA 1_555 1_555
C3UA C5HA 1_555 1_555
H1UA C3UA 1_555 1_555
C4UA C4HA 1_555 1_555
C5UA C3HA 1_555 1_555
H2UA C5UA 1_555 1_555
O2CC Zn1P 1_555 1_555
C3CC C2HA 1_555 1_555
H1CC C3CC 1_555 1_555
C4CC C4HA 1_555 1_555
C5CC H2CC 1_555 1_555
O2OC C1UA 1_555 1_555
C3OC C2UA 1_555 1_555
H1OC C3OC 1_555 1_555
C4OC C4UA 1_555 1_555
C5OC C3CC 1_555 1_555
H2OC C5OC 1_555 1_555
O1E Zn1E 1_555 1_555
O2P Zn1P 1_555 1_555
O2Y Zn1H 1_555 1_555
O2TA Zn1E 1_555 1_555
O2YA Zn1P 1_555 1_555
O2HB Zn1E 1_555 1_555
O2MB Zn1 1_555 1_555
O2LC Zn1H 1_555 1_555
Zn1F O2UA 1_555 1_555
Zn1N O2OC 1_555 1_555
Zn1V O2V 1_555 1_555
Zn1LA O2AC 1_555 1_555
Zn1MA O2PB 1_555 1_555
Zn1QA O1 1_555 1_555
C5 C5E 1_555 1_555
C3E C4E 1_555 1_555
O2VB Zn1QA 1_555 1_555
C3VB C4VB 1_555 1_555
C4VB C4AC 1_555 1_555
C5VB C3AC 1_555 1_555
C5VB C5AC 1_555 1_555
C3AC C4AC 1_555 1_555
O2H Zn1H 1_555 1_555
C5H C5V 1_555 1_555
C3V C4V 1_555 1_555
O2GB Zn1QA 1_555 1_555
C3GB C4GB 1_555 1_555
C4GB C4PB 1_555 1_555
C5GB C3PB 1_555 1_555
C5GB C5PB 1_555 1_555
C3PB C4PB 1_555 1_555
C1HA O2CC 1_555 1_555
C5HA C5UA 1_555 1_555
C3UA C4UA 1_555 1_555
C3CC C4CC 1_555 1_555
C4CC C4OC 1_555 1_555
C5CC C3OC 1_555 1_555
C5CC C5OC 1_555 1_555
C3OC C4OC 1_555 1_555
O1E Zn1LA 1_555 1_555

#END
