
#######################################################################
#
#                 Cambridge Crystallographic Data Centre
#                                CCDC 
#
#######################################################################
#
# If this CIF has been generated from an entry in the Cambridge 
# Structural Database, then it will include bibliographic, chemical, 
# crystal, experimental, refinement or atomic coordinate data resulting 
# from the CCDC's data processing and validation procedures.
#
#######################################################################

data_BOXYIY
_symmetry_cell_setting           triclinic
_symmetry_space_group_name_H-M   'P -1'
_symmetry_Int_Tables_number      2
_space_group_name_Hall           '-P 1'
loop_
_symmetry_equiv_pos_site_id
_symmetry_equiv_pos_as_xyz
1 x,y,z
2 -x,-y,-z
_cell_length_a                   8.0352(2)
_cell_length_b                   10.1895(2)
_cell_length_c                   16.0266(5)
_cell_angle_alpha                93.349(2)
_cell_angle_beta                 94.504(3)
_cell_angle_gamma                92.452(2)
_cell_volume                     1304.41
loop_
_atom_site_label
_atom_site_type_symbol
_atom_site_fract_x
_atom_site_fract_y
_atom_site_fract_z
N1 N 0.1148(3) 0.2649(3) 0.58673(17)
H4 H 0.1853 0.3106 0.5561
N2 N 0.0439(4) 0.4704(3) 0.70947(18)
H5 H -0.0261 0.4288 0.7415
H6 H 0.0592 0.5545 0.7299
C7 C -0.0489(4) 0.3286(4) 0.5828(2)
H7 H -0.1279 0.2770 0.6118
H8 H -0.0923 0.3304 0.5247
C8 C -0.0328(4) 0.4670(4) 0.6222(2)
H9 H 0.0355 0.5214 0.5892
H10 H -0.1425 0.5031 0.6219
C9 C 0.1899(4) 0.2683(3) 0.6754(2)
H11 H 0.2991 0.2310 0.6764
H12 H 0.1198 0.2149 0.7080
C10 C 0.2073(4) 0.4064(4) 0.7142(2)
H13 H 0.2499 0.4049 0.7725
H14 H 0.2870 0.4574 0.6854
C11 C 0.0929(5) 0.1283(4) 0.5499(2)
H15 H 0.1967 0.0855 0.5572
H16 H 0.0590 0.1293 0.4911
H17 H 0.0088 0.0815 0.5773
N3 N 0.1223(11) 0.1077(6) -0.0038(4)
H18 H 0.1168 0.1436 0.0492
C12 C -0.0472(14) 0.1047(7) -0.0451(4)
H19 H -0.0815 0.1945 -0.0486
H20 H -0.0448 0.0669 -0.1019
C13 C -0.1706(14) 0.0315(9) -0.0040(7)
H21 H -0.2781 0.0325 -0.0360
H22 H -0.1813 0.0727 0.0513
C14 C 0.281(2) 0.1894(14) -0.0450(8)
H23 H 0.2535 0.2794 -0.0508
H24 H 0.2978 0.1489 -0.0991
H25 H 0.3810 0.1863 -0.0086
N3A N -0.1223(11) -0.1077(6) 0.0038(4)
H18A H -0.1168 -0.1436 -0.0492
C12A C 0.0472(14) -0.1047(7) 0.0451(4)
H19A H 0.0815 -0.1945 0.0486
H20A H 0.0448 -0.0669 0.1019
C13A C 0.1706(14) -0.0315(9) 0.0040(7)
H21A H 0.2781 -0.0325 0.0360
H22A H 0.1813 -0.0727 -0.0513
C14A C -0.281(2) -0.1894(14) 0.0450(8)
H23A H -0.2535 -0.2794 0.0508
H24A H -0.2978 -0.1489 0.0991
H25A H -0.3810 -0.1863 0.0086
Mn1 Mn 0.38842(6) 0.55471(5) 0.13608(3)
Mn2 Mn 0.25600(6) 0.06321(5) 0.28629(3)
Mn3 Mn 0.55567(6) 0.24448(4) 0.42358(3)
P1 P 0.74158(13) 0.41041(10) 0.06410(5)
P2 P 0.86969(9) 0.16069(8) 0.30598(5)
O1 O 0.6086(4) 0.4877(4) 0.09627(19)
O2 O 0.7331(5) 0.3806(3) -0.02828(17)
O3 O 0.9061(4) 0.4937(4) 0.0965(2)
H1 H 0.9864 0.4611 0.0760
O4 O 0.7582(8) 0.2767(3) 0.1036(2)
H2 H 0.8107 0.2877 0.1496
O5 O 0.7648(3) 0.1711(3) 0.37964(18)
O6 O 1.0448(3) 0.1291(3) 0.33444(15)
O7 O 0.8624(4) 0.2812(2) 0.25503(17)
O8 O 0.7989(3) 0.0390(2) 0.24428(18)
H3 H 0.6971 0.0314 0.2451
O9 O 0.5131(3) 0.7487(2) 0.18150(17)
O10 O 0.4594(3) 0.9513(2) 0.23096(18)
O11 O 0.2039(3) 0.6643(2) 0.20875(16)
O12 O 0.1501(3) 0.8660(2) 0.25732(17)
O13 O 0.2326(4) 0.3666(3) 0.11926(16)
O14 O 0.2134(3) 0.1672(2) 0.16862(15)
O15 O 0.4265(3) 0.4526(2) 0.25792(15)
O16 O 0.4051(3) 0.2520(2) 0.30612(15)
O17 O 0.3664(3) 0.3596(2) 0.49034(16)
O18 O 0.3248(3) 0.5612(2) 0.54315(16)
O19 O 0.6035(3) 0.1454(2) 0.54306(15)
O20 O 0.5991(3) -0.0565(2) 0.59060(14)
C1 C 0.4218(4) 0.8316(3) 0.2112(2)
C2 C 0.2425(4) 0.7829(3) 0.22707(19)
C3 C 0.2639(4) 0.2857(3) 0.1729(2)
C4 C 0.3767(4) 0.3363(3) 0.2525(2)
C5 C 0.4108(4) 0.4771(3) 0.50997(19)
C6 C 0.5592(4) 0.0275(3) 0.53855(18)
O17A O 0.6336(3) 0.6404(2) 0.50966(16)
O18A O 0.6752(3) 0.4388(2) 0.45685(16)
C5A C 0.5892(4) 0.5229(3) 0.49003(19)
O19A O 0.3965(3) -0.1454(2) 0.45694(15)
O20A O 0.4009(3) 0.0565(2) 0.40940(14)
C6A C 0.4408(4) -0.0275(3) 0.46145(18)
Mn1A Mn 0.61158(6) -0.55471(5) 0.86392(3)
Mn2A Mn 0.74400(6) -0.06321(5) 0.71371(3)
Mn3A Mn 0.44433(6) -0.24448(4) 0.57642(3)
P1A P 0.25842(13) -0.41041(10) 0.93590(5)
P2A P 0.13031(9) -0.16069(8) 0.69402(5)
O1A O 0.3914(4) -0.4877(4) 0.90373(19)
O2A O 0.2669(5) -0.3806(3) 1.02828(17)
O3A O 0.0939(4) -0.4937(4) 0.9035(2)
H1A H 0.0136 -0.4611 0.9240
O4A O 0.2418(8) -0.2767(3) 0.8964(2)
H2A H 0.1893 -0.2877 0.8504
O5A O 0.2352(3) -0.1711(3) 0.62036(18)
O6A O -0.0448(3) -0.1291(3) 0.66556(15)
O7A O 0.1376(4) -0.2812(2) 0.74497(17)
O8A O 0.2011(3) -0.0390(2) 0.75572(18)
H3A H 0.3029 -0.0314 0.7549
O9A O 0.4869(3) -0.7487(2) 0.81850(17)
O10A O 0.5406(3) -0.9513(2) 0.76904(18)
O11A O 0.7961(3) -0.6643(2) 0.79125(16)
O12A O 0.8499(3) -0.8660(2) 0.74268(17)
O13A O 0.7674(4) -0.3666(3) 0.88074(16)
O14A O 0.7866(3) -0.1672(2) 0.83138(15)
O15A O 0.5735(3) -0.4526(2) 0.74208(15)
O16A O 0.5949(3) -0.2520(2) 0.69388(15)
C1A C 0.5782(4) -0.8316(3) 0.7888(2)
C2A C 0.7575(4) -0.7829(3) 0.77293(19)
C3A C 0.7361(4) -0.2857(3) 0.8271(2)
C4A C 0.6233(4) -0.3363(3) 0.7475(2)
Mn1_2 Mn 0.38842(6) -0.44529(5) 1.13608(3)
Mn1A_2 Mn 0.61158(6) 0.44529(5) -0.13608(3)
Mn2_2 Mn 0.25600(6) 1.06321(5) 0.28629(3)
Mn2_3 Mn 1.25600(6) 0.06321(5) 0.28629(3)
Mn2A_2 Mn -0.25600(6) -0.06321(5) 0.71371(3)
Mn2A_3 Mn 0.74400(6) -1.06321(5) 0.71371(3)
Mn3A_2 Mn 0.44433(6) 0.75552(4) 0.57642(3)
O2_2 O 0.7331(5) -0.6194(3) 0.97172(17)
O2A_2 O 0.2669(5) 0.6194(3) 0.02828(17)
O6_2 O 0.0448(3) 0.1291(3) 0.33444(15)
O6A_2 O 0.9552(3) -0.1291(3) 0.66556(15)
O10_2 O 0.4594(3) -0.0487(2) 0.23096(18)
O10A_2 O 0.5406(3) 0.0487(2) 0.76904(18)
O12_2 O 0.1501(3) -0.1340(2) 0.25732(17)
O12A_2 O 0.8499(3) 0.1340(2) 0.74268(17)
O17A_2 O 0.6336(3) -0.3596(2) 0.50966(16)
O18_2 O 0.3248(3) -0.4388(2) 0.54315(16)
loop_
_geom_bond_atom_site_label_1
_geom_bond_atom_site_label_2
_geom_bond_site_symmetry_1
_geom_bond_site_symmetry_2
Mn1 O1 1_555 1_555
Mn2 O14 1_555 1_555
Mn3 O5 1_555 1_555
P1 O1 1_555 1_555
P2 O5 1_555 1_555
O2 P1 1_555 1_555
O3 P1 1_555 1_555
H1 O3 1_555 1_555
O4 P1 1_555 1_555
H2 O4 1_555 1_555
O6 P2 1_555 1_555
O7 P2 1_555 1_555
O8 P2 1_555 1_555
H3 O8 1_555 1_555
O9 Mn1 1_555 1_555
O10 C1 1_555 1_555
O11 Mn1 1_555 1_555
O12 C2 1_555 1_555
O13 Mn1 1_555 1_555
O14 C3 1_555 1_555
O15 Mn1 1_555 1_555
O16 Mn2 1_555 1_555
O17 Mn3 1_555 1_555
O18 C5 1_555 1_555
O19 Mn3 1_555 1_555
O20 C6 1_555 1_555
C1 O9 1_555 1_555
C2 O11 1_555 1_555
C3 O13 1_555 1_555
C4 O15 1_555 1_555
C5 O17 1_555 1_555
C6 O19 1_555 1_555
N1 H4 1_555 1_555
N2 H5 1_555 1_555
H6 N2 1_555 1_555
C7 N1 1_555 1_555
H7 C7 1_555 1_555
H8 C7 1_555 1_555
C8 N2 1_555 1_555
H9 C8 1_555 1_555
H10 C8 1_555 1_555
C9 N1 1_555 1_555
H11 C9 1_555 1_555
H12 C9 1_555 1_555
C10 N2 1_555 1_555
H13 C10 1_555 1_555
H14 C10 1_555 1_555
C11 N1 1_555 1_555
H15 C11 1_555 1_555
H16 C11 1_555 1_555
H17 C11 1_555 1_555
N3 H18 1_555 1_555
C12 N3 1_555 1_555
H19 C12 1_555 1_555
H20 C12 1_555 1_555
C13 C12 1_555 1_555
H21 C13 1_555 1_555
H22 C13 1_555 1_555
C14 N3 1_555 1_555
H23 C14 1_555 1_555
H24 C14 1_555 1_555
H25 C14 1_555 1_555
O17A C5A 1_555 1_555
O18A Mn3 1_555 1_555
C5A C5 1_555 1_555
O19A C6A 1_555 1_555
O20A Mn2 1_555 1_555
C6A C6 1_555 1_555
Mn1A O1A 1_555 1_555
Mn2A O20 1_555 1_555
Mn3A O20 1_555 1_555
P1A O1A 1_555 1_555
P2A O5A 1_555 1_555
O2A P1A 1_555 1_555
O3A P1A 1_555 1_555
H1A O3A 1_555 1_555
O4A P1A 1_555 1_555
H2A O4A 1_555 1_555
O5A Mn3A 1_555 1_555
O6A P2A 1_555 1_555
O7A P2A 1_555 1_555
O8A P2A 1_555 1_555
H3A O8A 1_555 1_555
O9A Mn1A 1_555 1_555
O10A C1A 1_555 1_555
O11A Mn1A 1_555 1_555
O12A C2A 1_555 1_555
O13A Mn1A 1_555 1_555
O14A Mn2A 1_555 1_555
O15A Mn1A 1_555 1_555
O16A Mn2A 1_555 1_555
C1A O9A 1_555 1_555
C2A O11A 1_555 1_555
C3A O13A 1_555 1_555
C4A O15A 1_555 1_555
Mn1_2 O2A 1_555 1_555
Mn1A_2 O2 1_555 1_555
Mn2_2 O10 1_555 1_555
Mn2_3 O6 1_555 1_555
Mn2A_2 O6A 1_555 1_555
Mn2A_3 O10A 1_555 1_555
Mn3A_2 O18 1_555 1_555
O2_2 Mn1A 1_555 1_555
O2A_2 Mn1 1_555 1_555
O6_2 Mn2 1_555 1_555
O6A_2 Mn2A 1_555 1_555
O10_2 Mn2 1_555 1_555
O10A_2 Mn2A 1_555 1_555
O12_2 Mn2 1_555 1_555
O12A_2 Mn2A 1_555 1_555
O17A_2 Mn3A 1_555 1_555
O18_2 Mn3A 1_555 1_555
N3A C13 1_555 1_555
H18A N3A 1_555 1_555
C12A N3A 1_555 1_555
H19A C12A 1_555 1_555
H20A C12A 1_555 1_555
C13A N3 1_555 1_555
H21A C13A 1_555 1_555
H22A C13A 1_555 1_555
C14A N3A 1_555 1_555
H23A C14A 1_555 1_555
H24A C14A 1_555 1_555
H25A C14A 1_555 1_555
Mn3 O16 1_555 1_555
Mn3 O20A 1_555 1_555
O12 Mn2_2 1_555 1_555
O16 C4 1_555 1_555
C1 C2 1_555 1_555
C3 C4 1_555 1_555
C7 C8 1_555 1_555
C9 C10 1_555 1_555
O17A Mn3A_2 1_555 1_555
O18A C5A 1_555 1_555
O19A Mn3A 1_555 1_555
O20A C6A 1_555 1_555
Mn3A O16A 1_555 1_555
O12A Mn2A_3 1_555 1_555
O14A C3A 1_555 1_555
O16A C4A 1_555 1_555
C1A C2A 1_555 1_555
C3A C4A 1_555 1_555
C12A C13A 1_555 1_555

#END
