
#######################################################################
#
#                 Cambridge Crystallographic Data Centre
#                                CCDC 
#
#######################################################################
#
# If this CIF has been generated from an entry in the Cambridge 
# Structural Database, then it will include bibliographic, chemical, 
# crystal, experimental, refinement or atomic coordinate data resulting 
# from the CCDC's data processing and validation procedures.
#
#######################################################################

data_BUBJUF
_symmetry_cell_setting           orthorhombic
_symmetry_space_group_name_H-M   'P n m a'
_symmetry_Int_Tables_number      62
_space_group_name_Hall           '-P 2ac 2n'
loop_
_symmetry_equiv_pos_site_id
_symmetry_equiv_pos_as_xyz
1 x,y,z
2 1/2-x,-y,1/2+z
3 1/2+x,1/2-y,1/2-z
4 -x,1/2+y,-z
5 -x,-y,-z
6 1/2+x,y,1/2-z
7 1/2-x,1/2+y,1/2+z
8 x,1/2-y,z
_cell_length_a                   17.621(3)
_cell_length_b                   15.958(3)
_cell_length_c                   8.7728(18)
_cell_angle_alpha                90
_cell_angle_beta                 90
_cell_angle_gamma                90
_cell_volume                     2466.88
loop_
_atom_site_label
_atom_site_type_symbol
_atom_site_fract_x
_atom_site_fract_y
_atom_site_fract_z
C1 C 0.1675(4) 0.2500 1.0174(7)
C2 C 0.1147(4) 0.2500 0.8779(7)
C3 C -0.0087(2) 0.0284(3) 1.0672(5)
C4 C 0.2383(3) -0.0081(3) 0.6961(6)
N1 N 0.2253(2) 0.0547(2) 0.7927(5)
N2 N 0.2859(3) 0.1038(3) 0.7760(7)
N3 N 0.3321(3) 0.0716(3) 0.6781(7)
N4 N 0.3035(2) 0.0005(2) 0.6237(4)
N5 N 0.1892(3) -0.0715(4) 0.6709(9)
H1 H 0.1997 -0.1094 0.6044
H2 H 0.1474 -0.0741 0.7213
O1 O 0.18731(19) 0.18010(19) 1.0701(4)
O2 O 0.09449(18) 0.1802(2) 0.8278(4)
O3 O 0.04028(18) 0.0820(2) 1.1025(4)
O4 O -0.07020(17) 0.0166(2) 1.1355(4)
Zn1 Zn 0.14204(3) 0.07494(3) 0.96020(6)
O1G O 0.18731(19) 0.31990(19) 1.0701(4)
O2G O 0.09449(18) 0.3198(2) 0.8278(4)
C3D C 0.0087(2) -0.0284(3) 0.9328(5)
O3D O -0.04028(18) -0.0820(2) 0.8975(4)
O4D O 0.07020(17) -0.0166(2) 0.8645(4)
C4D C -0.2383(3) 0.0081(3) 1.3039(6)
N1D N -0.2253(2) -0.0547(2) 1.2073(5)
N2D N -0.2859(3) -0.1038(3) 1.2240(7)
N3D N -0.3321(3) -0.0716(3) 1.3219(7)
N4D N -0.3035(2) -0.0005(2) 1.3763(4)
N5D N -0.1892(3) 0.0715(4) 1.3291(9)
H1D H -0.1997 0.1094 1.3956
H2D H -0.1474 0.0741 1.2787
Zn1D Zn -0.14204(3) -0.07494(3) 1.03980(6)
N4A N 0.1965(2) -0.0005(2) 1.1237(4)
N4E N -0.1965(2) 0.0005(2) 0.8763(4)
O1D O -0.18731(19) -0.18010(19) 0.9299(4)
O2D O -0.09449(18) -0.1802(2) 1.1722(4)
Zn1A Zn 0.35796(3) -0.07494(3) 0.46020(6)
Zn1E Zn -0.35796(3) 0.07494(3) 1.53980(6)
Zn1G Zn 0.14204(3) 0.42506(3) 0.96020(6)
loop_
_geom_bond_atom_site_label_1
_geom_bond_atom_site_label_2
_geom_bond_site_symmetry_1
_geom_bond_site_symmetry_2
C1 C2 1_555 1_555
C2 O2 1_555 1_555
C3 O3 1_555 1_555
C4 N1 1_555 1_555
N1 N2 1_555 1_555
N2 N3 1_555 1_555
N3 N4 1_555 1_555
N4 C4 1_555 1_555
N5 C4 1_555 1_555
H1 N5 1_555 1_555
H2 N5 1_555 1_555
O1 C1 1_555 1_555
O2 Zn1 1_555 1_555
O3 Zn1 1_555 1_555
O4 C3 1_555 1_555
Zn1 N1 1_555 1_555
O1G C1 1_555 1_555
O2G C2 1_555 1_555
C3D C3 1_555 1_555
O3D C3D 1_555 1_555
O4D Zn1 1_555 1_555
C4D N1D 1_555 1_555
N1D N2D 1_555 1_555
N2D N3D 1_555 1_555
N3D N4D 1_555 1_555
N4D C4D 1_555 1_555
N5D C4D 1_555 1_555
H1D N5D 1_555 1_555
H2D N5D 1_555 1_555
Zn1D O4 1_555 1_555
N4A Zn1 1_555 1_555
N4E Zn1D 1_555 1_555
O1D Zn1D 1_555 1_555
O2D Zn1D 1_555 1_555
Zn1A N4 1_555 1_555
Zn1E N4D 1_555 1_555
Zn1G O1G 1_555 1_555
O1 Zn1 1_555 1_555
O2G Zn1G 1_555 1_555
C3D O4D 1_555 1_555
O3D Zn1D 1_555 1_555
N1D Zn1D 1_555 1_555

#END
