
#######################################################################
#
#                 Cambridge Crystallographic Data Centre
#                                CCDC 
#
#######################################################################
#
# If this CIF has been generated from an entry in the Cambridge 
# Structural Database, then it will include bibliographic, chemical, 
# crystal, experimental, refinement or atomic coordinate data resulting 
# from the CCDC's data processing and validation procedures.
#
#######################################################################

data_BUDDIO
_symmetry_cell_setting           monoclinic
_symmetry_space_group_name_H-M   'P 21/c'
_symmetry_Int_Tables_number      14
_space_group_name_Hall           '-P 2ybc'
loop_
_symmetry_equiv_pos_site_id
_symmetry_equiv_pos_as_xyz
1 x,y,z
2 -x,1/2+y,1/2-z
3 -x,-y,-z
4 x,1/2-y,1/2+z
_cell_length_a                   3.6769(6)
_cell_length_b                   8.2042(14)
_cell_length_c                   26.292(4)
_cell_angle_alpha                90
_cell_angle_beta                 92.924(2)
_cell_angle_gamma                90
_cell_volume                     792.092
loop_
_atom_site_label
_atom_site_type_symbol
_atom_site_fract_x
_atom_site_fract_y
_atom_site_fract_z
K1 K 0.06233(18) 0.72796(8) 0.22289(2)
O1 O -0.4091(6) 0.7368(3) 0.30066(8)
O2 O -0.5784(6) 0.4762(3) 0.29578(8)
O3 O -0.4507(7) 0.5466(3) 0.16339(11)
H1 H -0.501(13) 0.454(6) 0.1748(18)
H2 H -0.472(16) 0.539(7) 0.132(2)
N1 N -0.2341(7) 0.3947(3) 0.44667(10)
C1 C -0.0650(8) 0.5168(4) 0.47310(10)
C2 C -0.3473(8) 0.4234(4) 0.39788(11)
H3 H -0.4648 0.3375 0.3792
C3 C -0.3019(8) 0.5704(4) 0.37364(11)
C4 C -0.1256(8) 0.6938(4) 0.40162(11)
H4 H -0.0862 0.7968 0.3863
C5 C -0.0084(8) 0.6669(4) 0.45143(11)
H5 H 0.1106 0.7510 0.4707
C6 C -0.4418(8) 0.5960(4) 0.31898(11)
K1B K -0.06233(18) 0.27204(8) 0.77711(2)
K1A K -0.06233(18) 1.22796(8) 0.27711(2)
K1A_2 K -0.06233(18) 0.22796(8) 0.27711(2)
K1_2 K -0.93767(18) 0.72796(8) 0.22289(2)
K1A_3 K -1.06233(18) 0.22796(8) 0.27711(2)
K1B_2 K 0.93767(18) 0.27204(8) 0.77711(2)
K1C K 1.06233(18) 0.77204(8) 0.72289(2)
K1C_2 K 0.06233(18) 0.77204(8) 0.72289(2)
K1_3 K 1.06233(18) 0.72796(8) 0.22289(2)
K1C_3 K 0.06233(18) -0.22796(8) 0.72289(2)
O1B O 0.4091(6) 0.2632(3) 0.69934(8)
O1_2 O 0.5909(6) 0.7368(3) 0.30066(8)
O1B_2 O -0.5909(6) 0.2632(3) 0.69934(8)
O2B O 0.5784(6) 0.5238(3) 0.70422(8)
O2_2 O 0.4216(6) 0.4762(3) 0.29578(8)
O2A O -0.4216(6) 0.9762(3) 0.20422(8)
O2A_2 O 0.5784(6) 0.9762(3) 0.20422(8)
O2B_2 O -0.4216(6) 0.5238(3) 0.70422(8)
O2C O 0.4216(6) 0.0238(3) 0.79578(8)
O2C_2 O -0.5784(6) 0.0238(3) 0.79578(8)
O3_2 O 0.5493(7) 0.5466(3) 0.16339(11)
O3B O 0.4507(7) 0.4534(3) 0.83661(11)
O3B_2 O -0.5493(7) 0.4534(3) 0.83661(11)
H1_2 H 0.499(13) 0.454(6) 0.1748(18)
H1B H 0.501(13) 0.546(6) 0.8252(18)
H1B_2 H -0.499(13) 0.546(6) 0.8252(18)
H2_2 H 0.528(16) 0.539(7) 0.132(2)
H2B H 0.472(16) 0.461(7) 0.868(2)
H2B_2 H -0.528(16) 0.461(7) 0.868(2)
N1B N 0.2341(7) 0.6053(3) 0.55333(10)
C1B C 0.0650(8) 0.4832(4) 0.52690(10)
C2B C 0.3473(8) 0.5766(4) 0.60212(11)
H3B H 0.4648 0.6625 0.6208
C3B C 0.3019(8) 0.4296(4) 0.62636(11)
C4B C 0.1256(8) 0.3062(4) 0.59838(11)
H4B H 0.0862 0.2032 0.6137
C5B C 0.0084(8) 0.3331(4) 0.54857(11)
H5B H -0.1106 0.2490 0.5293
C6B C 0.4418(8) 0.4040(4) 0.68102(11)
O4 O 0.537(2) 0.0661(6) 0.44962(17)
loop_
_geom_bond_atom_site_label_1
_geom_bond_atom_site_label_2
_geom_bond_site_symmetry_1
_geom_bond_site_symmetry_2
K1 O1 1_555 1_555
O1 C6 1_555 1_555
O2 C6 1_555 1_555
O3 K1 1_555 1_555
H1 O3 1_555 1_555
H2 O3 1_555 1_555
N1 C1 1_555 1_555
C1 C5 1_555 1_555
C2 N1 1_555 1_555
H3 C2 1_555 1_555
C3 C2 1_555 1_555
C4 C3 1_555 1_555
H4 C4 1_555 1_555
C5 C4 1_555 1_555
H5 C5 1_555 1_555
C6 C3 1_555 1_555
K1B O1B 1_555 1_555
K1A O2A 1_555 1_555
K1A_2 O2 1_555 1_555
K1_2 O1 1_555 1_555
K1A_3 O2 1_555 1_555
K1B_2 O1B 1_555 1_555
K1C O2B 1_555 1_555
K1C_2 O2B 1_555 1_555
K1_3 O1_2 1_555 1_555
K1C_3 O2C 1_555 1_555
O1B C6B 1_555 1_555
O1_2 K1 1_555 1_555
O1B_2 K1B 1_555 1_555
O2B K1B_2 1_555 1_555
O2_2 K1 1_555 1_555
O2A K1 1_555 1_555
O2A_2 K1 1_555 1_555
O2B_2 K1B 1_555 1_555
O2C K1B 1_555 1_555
O2C_2 K1B 1_555 1_555
O3_2 K1 1_555 1_555
O3B K1B 1_555 1_555
O3B_2 K1B 1_555 1_555
H1_2 O3_2 1_555 1_555
H1B O3B 1_555 1_555
H1B_2 O3B_2 1_555 1_555
H2_2 O3_2 1_555 1_555
H2B O3B 1_555 1_555
H2B_2 O3B_2 1_555 1_555
N1B C1B 1_555 1_555
C1B C1 1_555 1_555
C2B N1B 1_555 1_555
H3B C2B 1_555 1_555
C3B C2B 1_555 1_555
C4B C3B 1_555 1_555
H4B C4B 1_555 1_555
C5B C1B 1_555 1_555
H5B C5B 1_555 1_555
C6B O2B 1_555 1_555
O2 K1_2 1_555 1_555
O3 K1_2 1_555 1_555
K1A_2 O2_2 1_555 1_555
K1_2 O2A 1_555 1_555
K1B_2 O2C 1_555 1_555
K1B_2 O3B 1_555 1_555
K1C_2 O2B_2 1_555 1_555
K1_3 O2A_2 1_555 1_555
K1_3 O3_2 1_555 1_555
C3B C6B 1_555 1_555
C4B C5B 1_555 1_555

#END
