
#######################################################################
#
#                 Cambridge Crystallographic Data Centre
#                                CCDC 
#
#######################################################################
#
# If this CIF has been generated from an entry in the Cambridge 
# Structural Database, then it will include bibliographic, chemical, 
# crystal, experimental, refinement or atomic coordinate data resulting 
# from the CCDC's data processing and validation procedures.
#
#######################################################################

data_BUKYAJ
_symmetry_cell_setting           monoclinic
_symmetry_space_group_name_H-M   'P 21/c'
_symmetry_Int_Tables_number      14
_space_group_name_Hall           '-P 2ybc'
loop_
_symmetry_equiv_pos_site_id
_symmetry_equiv_pos_as_xyz
1 x,y,z
2 -x,1/2+y,1/2-z
3 -x,-y,-z
4 x,1/2-y,1/2+z
_cell_length_a                   7.1555(2)
_cell_length_b                   12.4238(3)
_cell_length_c                   11.7575(3)
_cell_angle_alpha                90
_cell_angle_beta                 91.7820(10)
_cell_angle_gamma                90
_cell_volume                     1044.72
loop_
_atom_site_label
_atom_site_type_symbol
_atom_site_fract_x
_atom_site_fract_y
_atom_site_fract_z
O1 O 0.5313(2) 0.07955(10) 0.57876(11)
C1 C 0.5421(3) 0.15726(14) 0.65226(15)
N1 N 0.5675(3) 0.32677(14) 0.81497(15)
C2 C 0.4508(3) 0.15355(17) 0.75644(17)
H1 H 0.3790 0.0938 0.7742
C3 C 0.6448(3) 0.25154(15) 0.63423(16)
H2 H 0.7070 0.2606 0.5666
C4 C 0.6538(3) 0.33004(17) 0.71541(18)
H3 H 0.7254 0.3906 0.7005
C5 C 0.4671(3) 0.23741(18) 0.83185(17)
H4 H 0.4040 0.2319 0.8996
Li1 Li 0.6030(5) 0.0525(2) 0.4272(2)
O2 O 0.8733(2) 0.01156(12) 0.40659(13)
C6 C 1.0165(3) 0.08898(19) 0.4304(2)
H5 H 0.9740 0.1595 0.4056
H6 H 1.1267 0.0708 0.3885
C7 C 0.9345(4) -0.09212(18) 0.4454(2)
H7 H 1.0430 -0.1142 0.4037
H8 H 0.8361 -0.1445 0.4310
O2B O 1.1267(2) -0.01156(12) 0.59341(13)
C6B C 0.9835(3) -0.08898(19) 0.5696(2)
H5B H 1.0260 -0.1595 0.5944
H6B H 0.8733 -0.0708 0.6115
C7B C 1.0655(4) 0.09212(18) 0.5546(2)
H7B H 0.9570 0.1142 0.5963
H8B H 1.1639 0.1445 0.5690
O1B O 0.4687(2) -0.07955(10) 0.42124(11)
C1B C 0.4579(3) -0.15726(14) 0.34774(15)
N1B N 0.4325(3) -0.32677(14) 0.18503(15)
C2B C 0.5492(3) -0.15355(17) 0.24356(17)
H1B H 0.6210 -0.0938 0.2258
C3B C 0.3552(3) -0.25154(15) 0.36577(16)
H2B H 0.2930 -0.2606 0.4334
C4B C 0.3462(3) -0.33004(17) 0.28459(18)
H3B H 0.2746 -0.3906 0.2995
C5B C 0.5329(3) -0.23741(18) 0.16815(17)
H4B H 0.5960 -0.2319 0.1004
Li1B Li 0.3970(5) -0.0525(2) 0.5728(2)
N1A N 0.4325(3) -0.17323(14) 0.68503(15)
N1C N 0.5675(3) 0.17323(14) 0.31497(15)
Li1A Li 0.3970(5) -0.4475(2) 0.0728(2)
Li1B_2 Li 1.3970(5) -0.0525(2) 0.5728(2)
Li1C Li 0.6030(5) 0.4475(2) 0.9272(2)
O2B_2 O 0.1267(2) -0.01156(12) 0.59341(13)
O3 O 0.0212(6) 0.1107(3) 0.9954(4)
C8 C -0.0650(7) 0.0537(4) 0.9049(4)
H9 H 0.0272 0.0356 0.8492
H10 H -0.1599 0.0984 0.8679
C9 C 0.1507(7) 0.0447(5) 1.0532(5)
H11 H 0.2062 0.0842 1.1169
H12 H 0.2499 0.0259 1.0024
O3B O -0.0212(6) -0.1107(3) 1.0046(4)
C8B C 0.0650(7) -0.0537(4) 1.0951(4)
H9B H -0.0272 -0.0356 1.1508
H10B H 0.1599 -0.0984 1.1321
C9B C -0.1507(7) -0.0447(5) 0.9468(5)
H11B H -0.2062 -0.0842 0.8831
H12B H -0.2499 -0.0259 0.9976
loop_
_geom_bond_atom_site_label_1
_geom_bond_atom_site_label_2
_geom_bond_site_symmetry_1
_geom_bond_site_symmetry_2
O1 C1 1_555 1_555
C1 C2 1_555 1_555
N1 C4 1_555 1_555
C2 H1 1_555 1_555
C3 C1 1_555 1_555
H2 C3 1_555 1_555
C4 C3 1_555 1_555
H3 C4 1_555 1_555
C5 N1 1_555 1_555
H4 C5 1_555 1_555
Li1 O1 1_555 1_555
O2 Li1 1_555 1_555
C6 O2 1_555 1_555
H5 C6 1_555 1_555
H6 C6 1_555 1_555
C7 O2 1_555 1_555
H7 C7 1_555 1_555
H8 C7 1_555 1_555
O3 C8 1_555 1_555
C8 H9 1_555 1_555
H10 C8 1_555 1_555
C9 O3 1_555 1_555
H11 C9 1_555 1_555
H12 C9 1_555 1_555
O2B C6B 1_555 1_555
C6B C7 1_555 1_555
H5B C6B 1_555 1_555
H6B C6B 1_555 1_555
C7B C6 1_555 1_555
H7B C7B 1_555 1_555
H8B C7B 1_555 1_555
O1B Li1 1_555 1_555
C1B O1B 1_555 1_555
N1B C4B 1_555 1_555
C2B C1B 1_555 1_555
H1B C2B 1_555 1_555
C3B C1B 1_555 1_555
H2B C3B 1_555 1_555
C4B C3B 1_555 1_555
H3B C4B 1_555 1_555
C5B N1B 1_555 1_555
H4B C5B 1_555 1_555
Li1B O1 1_555 1_555
N1A Li1B 1_555 1_555
N1C Li1 1_555 1_555
Li1A N1B 1_555 1_555
Li1B_2 O2B 1_555 1_555
Li1C N1 1_555 1_555
O2B_2 Li1B 1_555 1_555
O3B C8B 1_555 1_555
C8B C9 1_555 1_555
H9B C8B 1_555 1_555
H10B C8B 1_555 1_555
C9B C8 1_555 1_555
H11B C9B 1_555 1_555
H12B C9B 1_555 1_555
C2 C5 1_555 1_555
O2B C7B 1_555 1_555
O1B Li1B 1_555 1_555
C2B C5B 1_555 1_555
O3B C9B 1_555 1_555

#END
