
#######################################################################
#
#                 Cambridge Crystallographic Data Centre
#                                CCDC 
#
#######################################################################
#
# If this CIF has been generated from an entry in the Cambridge 
# Structural Database, then it will include bibliographic, chemical, 
# crystal, experimental, refinement or atomic coordinate data resulting 
# from the CCDC's data processing and validation procedures.
#
#######################################################################

data_BURJOO
_symmetry_cell_setting           monoclinic
_symmetry_space_group_name_H-M   'C 2/c'
_symmetry_Int_Tables_number      15
_space_group_name_Hall           '-C 2yn'
loop_
_symmetry_equiv_pos_site_id
_symmetry_equiv_pos_as_xyz
1 x,y,z
2 -x,y,1/2-z
3 1/2+x,1/2+y,z
4 1/2-x,1/2+y,1/2-z
5 -x,-y,-z
6 x,-y,1/2+z
7 1/2-x,1/2-y,-z
8 1/2+x,1/2-y,1/2+z
_cell_length_a                   28.368(6)
_cell_length_b                   11.144(2)
_cell_length_c                   16.695(3)
_cell_angle_alpha                90
_cell_angle_beta                 116.37(3)
_cell_angle_gamma                90
_cell_volume                     4728.65
loop_
_atom_site_label
_atom_site_type_symbol
_atom_site_fract_x
_atom_site_fract_y
_atom_site_fract_z
Co1 Co 0.2500 0.2500 0.0000
Co2 Co 0.7500 0.2500 0.0000
C1 C 0.23502(16) -0.0008(4) 0.0715(3)
C2 C 0.22978(17) -0.0557(4) 0.1505(3)
C3 C 0.26565(17) -0.1420(4) 0.2072(3)
C4 C 0.31247(18) -0.1882(4) 0.1962(3)
C5 C 0.18955(18) -0.0138(4) 0.1682(3)
H1 H 0.1658 0.0429 0.1310
C6 C 0.18517(18) -0.0577(4) 0.2425(3)
C7 C 0.22113(17) -0.1408(4) 0.3004(3)
C8 C 0.26101(18) -0.1841(4) 0.2818(3)
H2 H 0.2845 -0.2410 0.3189
C9 C 0.16826(19) -0.0939(4) 0.3562(3)
H3 H 0.1523 -0.0893 0.3941
C10 C 0.35524(19) 0.0878(5) 0.0907(3)
H4 H 0.3368 0.0493 0.1176
C11 C 0.40658(19) 0.0522(5) 0.1156(3)
H5 H 0.4219 -0.0077 0.1583
C12 C 0.43481(18) 0.1070(4) 0.0760(3)
C13 C 0.40898(19) 0.1955(5) 0.0132(3)
H6 H 0.4260 0.2344 -0.0158
C14 C 0.35838(19) 0.2251(4) -0.0059(3)
H7 H 0.3423 0.2856 -0.0476
C15 C 0.48956(18) 0.0783(4) 0.0970(3)
C16 C 0.56348(19) 0.0912(5) 0.0951(3)
C17 C 0.60731(18) 0.1277(4) 0.0757(3)
C18 C 0.5989(2) 0.2139(5) 0.0107(4)
H8 H 0.5660 0.2497 -0.0195
C19 C 0.6395(2) 0.2458(5) -0.0086(4)
H9 H 0.6333 0.3032 -0.0527
C20 C 0.69547(19) 0.1156(5) 0.0953(3)
H10 H 0.7288 0.0819 0.1249
C21 C 0.65696(18) 0.0775(5) 0.1181(3)
H11 H 0.6642 0.0186 0.1614
N1 N 0.33033(14) 0.1731(3) 0.0314(2)
N2 N 0.51657(15) 0.1434(4) 0.0614(3)
N3 N 0.51726(15) -0.0116(4) 0.1492(3)
N4 N 0.56443(15) -0.0006(4) 0.1473(3)
N5 N 0.68742(15) 0.1984(3) 0.0327(3)
N6 N 0.15138(16) -0.0314(4) 0.2796(3)
N7 N 0.20942(15) -0.1620(3) 0.3727(2)
O1 O 0.23272(12) 0.1115(3) 0.0673(2)
O2 O 0.24094(13) -0.0676(3) 0.0159(2)
O3 O 0.30619(12) -0.2563(3) 0.1325(2)
O4 O 0.35703(14) -0.1623(4) 0.2569(3)
H17 H 0.5879 -0.0471 0.1772
H18 H 0.1263 0.0175 0.2600
Co1C Co 0.2500 -0.2500 0.5000
Co1C_2 Co 0.2500 -0.2500 -0.5000
Co2B Co 0.2500 -0.2500 0.0000
Co2_2 Co -0.2500 0.2500 0.0000
Co2A Co 0.2500 0.2500 -0.5000
C1E C 0.23502(16) 0.0008(4) -0.4285(3)
C2E C 0.22978(17) 0.0557(4) -0.3495(3)
C3E C 0.26565(17) 0.1420(4) -0.2928(3)
C4E C 0.31247(18) 0.1882(4) -0.3038(3)
C5E C 0.18955(18) 0.0138(4) -0.3318(3)
H1E H 0.1658 -0.0429 -0.3690
C6E C 0.18517(18) 0.0577(4) -0.2575(3)
C7E C 0.22113(17) 0.1408(4) -0.1996(3)
C8E C 0.26101(18) 0.1841(4) -0.2182(3)
H2E H 0.2845 0.2410 -0.1811
C9E C 0.16826(19) 0.0939(4) -0.1438(3)
H3E H 0.1523 0.0893 -0.1059
C10F C 0.14476(19) 0.4122(5) -0.0907(3)
H4F H 0.1632 0.4507 -0.1176
C11F C 0.09342(19) 0.4478(5) -0.1156(3)
H5F H 0.0781 0.5077 -0.1583
C12F C 0.06519(18) 0.3930(4) -0.0760(3)
C13F C 0.09102(19) 0.3045(5) -0.0132(3)
H6F H 0.0740 0.2656 0.0158
C14F C 0.14162(19) 0.2749(4) 0.0059(3)
H7F H 0.1577 0.2144 0.0476
C15F C 0.01044(18) 0.4217(4) -0.0970(3)
C16F C -0.06348(19) 0.4088(5) -0.0951(3)
C17F C -0.10731(18) 0.3723(4) -0.0757(3)
C18F C -0.0989(2) 0.2861(5) -0.0107(4)
H8F H -0.0660 0.2503 0.0195
C19F C -0.1395(2) 0.2542(5) 0.0086(4)
H9F H -0.1333 0.1968 0.0527
C20F C -0.19547(19) 0.3844(5) -0.0953(3)
H10F H -0.2288 0.4181 -0.1249
C21F C -0.15696(18) 0.4225(5) -0.1181(3)
H11F H -0.1642 0.4814 -0.1614
N1F N 0.16967(14) 0.3269(3) -0.0314(2)
N2F N -0.01657(15) 0.3566(4) -0.0614(3)
N3F N -0.01726(15) 0.5116(4) -0.1492(3)
N4F N -0.06443(15) 0.5006(4) -0.1473(3)
N5F N -0.18742(15) 0.3016(3) -0.0327(3)
N5F_2 N 0.81258(15) 0.3016(3) -0.0327(3)
N6E N 0.15138(16) 0.0314(4) -0.2204(3)
N7E N 0.20942(15) 0.1620(3) -0.1273(2)
N7C N 0.29058(15) 0.3380(3) 0.1273(2)
O1E O 0.23272(12) -0.1115(3) -0.4327(2)
O1F O 0.26728(12) 0.3885(3) -0.0673(2)
O2E O 0.24094(13) 0.0676(3) -0.4841(2)
O2B O 0.74094(13) 0.4324(3) 0.0159(2)
O2D O 0.75906(13) 0.0676(3) -0.0159(2)
O3E O 0.30619(12) 0.2563(3) -0.3675(2)
O3B O 0.80619(12) 0.2437(3) 0.1325(2)
O3D O 0.69381(12) 0.2563(3) -0.1325(2)
O4E O 0.35703(14) 0.1623(4) -0.2431(3)
H17F H -0.0879 0.5471 -0.1772
H18E H 0.1263 -0.0175 -0.2400
O5 O 0.4246(2) 0.6513(5) 0.2848(5)
H13 H 0.4200 0.6529 0.2369
H14 H 0.4127 0.7060 0.2941
O6 O 0.5000 0.7732(12) 0.2500
H12 H 0.5079 0.7512 0.2967
H12A H 0.4921 0.7512 0.2033
H15 H 0.5032 0.4083 1.0094
H16 H 0.4631 0.4230 0.9479
O7 O 0.4867(5) 0.3850(14) 0.9633(9)
O8 O 0.0508(13) 0.983(3) 0.358(2)
H19? H -0.0173 0.8644 0.2607
H20? H 0.0712 0.9850 0.4184
O9? O -0.004(2) 0.891(4) 0.283(3)
loop_
_geom_bond_atom_site_label_1
_geom_bond_atom_site_label_2
_geom_bond_site_symmetry_1
_geom_bond_site_symmetry_2
Co1 N1 1_555 1_555
Co2 N5 1_555 1_555
C1 C2 1_555 1_555
C2 C3 1_555 1_555
C3 C4 1_555 1_555
C4 O3 1_555 1_555
C5 C2 1_555 1_555
H1 C5 1_555 1_555
C6 C5 1_555 1_555
C7 C6 1_555 1_555
C8 C3 1_555 1_555
H2 C8 1_555 1_555
C9 H3 1_555 1_555
C10 H4 1_555 1_555
C11 C10 1_555 1_555
H5 C11 1_555 1_555
C12 C11 1_555 1_555
C13 C12 1_555 1_555
H6 C13 1_555 1_555
C14 C13 1_555 1_555
H7 C14 1_555 1_555
C15 C12 1_555 1_555
C16 C17 1_555 1_555
C17 C18 1_555 1_555
C18 H8 1_555 1_555
C19 C18 1_555 1_555
H9 C19 1_555 1_555
C20 H10 1_555 1_555
C21 C17 1_555 1_555
H11 C21 1_555 1_555
N1 C10 1_555 1_555
N2 C15 1_555 1_555
N3 C15 1_555 1_555
N4 C16 1_555 1_555
N5 C19 1_555 1_555
N6 C6 1_555 1_555
N7 C7 1_555 1_555
O1 Co1 1_555 1_555
O2 C1 1_555 1_555
O3 Co2B 1_555 1_555
O4 C4 1_555 1_555
O5 H13 1_555 1_555
O6 H12 1_555 1_555
H14 O5 1_555 1_555
H15 O7 1_555 1_555
H16 O7 1_555 1_555
H17 N4 1_555 1_555
H18 N6 1_555 1_555
Co1C N7 1_555 1_555
Co1C_2 O1E 1_555 1_555
Co2B O2 1_555 1_555
Co2_2 N5F 1_555 1_555
Co2A O2E 1_555 1_555
C1E C2E 1_555 1_555
C2E C3E 1_555 1_555
C3E C4E 1_555 1_555
C4E O3E 1_555 1_555
C5E C2E 1_555 1_555
H1E C5E 1_555 1_555
C6E C5E 1_555 1_555
C7E C6E 1_555 1_555
C8E C3E 1_555 1_555
H2E C8E 1_555 1_555
C9E H3E 1_555 1_555
C10F H4F 1_555 1_555
C11F C10F 1_555 1_555
H5F C11F 1_555 1_555
C12F C11F 1_555 1_555
C13F C12F 1_555 1_555
H6F C13F 1_555 1_555
C14F C13F 1_555 1_555
H7F C14F 1_555 1_555
C15F C12F 1_555 1_555
C16F C17F 1_555 1_555
C17F C18F 1_555 1_555
C18F H8F 1_555 1_555
C19F C18F 1_555 1_555
H9F C19F 1_555 1_555
C20F H10F 1_555 1_555
C21F C17F 1_555 1_555
H11F C21F 1_555 1_555
N1F Co1 1_555 1_555
N2F C15F 1_555 1_555
N3F C15F 1_555 1_555
N4F C16F 1_555 1_555
N5F C19F 1_555 1_555
N5F_2 Co2 1_555 1_555
N6E C6E 1_555 1_555
N7E Co1 1_555 1_555
N7C Co1 1_555 1_555
O1E C1E 1_555 1_555
O1F Co1 1_555 1_555
O2E C1E 1_555 1_555
O2B Co2 1_555 1_555
O2D Co2 1_555 1_555
O3E Co2A 1_555 1_555
O3B Co2 1_555 1_555
O3D Co2 1_555 1_555
O4E C4E 1_555 1_555
H12A O6 1_555 1_555
H17F N4F 1_555 1_555
H18E N6E 1_555 1_555
C1 O1 1_555 1_555
C7 C8 1_555 1_555
C9 N6 1_555 1_555
C9 N7 1_555 1_555
C14 N1 1_555 1_555
C16 N2 1_555 1_555
C20 C21 1_555 1_555
C20 N5 1_555 1_555
N3 N4 1_555 1_555
C7E C8E 1_555 1_555
C7E N7E 1_555 1_555
C9E N6E 1_555 1_555
C9E N7E 1_555 1_555
C10F N1F 1_555 1_555
C14F N1F 1_555 1_555
C16F N2F 1_555 1_555
C20F C21F 1_555 1_555
C20F N5F 1_555 1_555
N3F N4F 1_555 1_555

#END
