
#######################################################################
#
#                 Cambridge Crystallographic Data Centre
#                                CCDC 
#
#######################################################################
#
# If this CIF has been generated from an entry in the Cambridge 
# Structural Database, then it will include bibliographic, chemical, 
# crystal, experimental, refinement or atomic coordinate data resulting 
# from the CCDC's data processing and validation procedures.
#
#######################################################################

data_BUSGIG
_symmetry_cell_setting           monoclinic
_symmetry_space_group_name_H-M   'P 21/c'
_symmetry_Int_Tables_number      14
_space_group_name_Hall           '-P 2ybc'
loop_
_symmetry_equiv_pos_site_id
_symmetry_equiv_pos_as_xyz
1 x,y,z
2 -x,1/2+y,1/2-z
3 -x,-y,-z
4 x,1/2-y,1/2+z
_cell_length_a                   9.493(2)
_cell_length_b                   21.510(5)
_cell_length_c                   9.175(2)
_cell_angle_alpha                90
_cell_angle_beta                 116.483(3)
_cell_angle_gamma                90
_cell_volume                     1676.89
loop_
_atom_site_label
_atom_site_type_symbol
_atom_site_fract_x
_atom_site_fract_y
_atom_site_fract_z
Dy1 Dy 0.64255(3) 0.008265(12) -0.12484(3)
Cu1 Cu 0.69177(9) 0.14639(3) -0.46158(12)
O1 O 0.7852(5) -0.00386(18) 0.1604(5)
O2 O 0.6176(5) 0.05788(17) -0.3697(5)
O3 O 0.8560(4) -0.05696(17) -0.0898(5)
O4 O 0.6100(5) 0.11056(18) -0.0537(6)
C1 C 0.9919(6) -0.0355(3) -0.0119(7)
C2 C 0.7568(6) -0.0280(3) 0.2674(8)
C3 C 0.5225(6) 0.1184(3) 0.0133(7)
C4 C 0.8880(7) -0.0643(3) 0.4029(8)
C5 C 1.0183(7) -0.0820(3) 0.3855(8)
H1 H 1.0268 -0.0692 0.2929
C6 C 0.8787(7) -0.0813(3) 0.5404(8)
H2 H 0.7910 -0.0704 0.5548
C7 C 0.5784(7) 0.2319(3) 0.0292(8)
H3 H 0.6550 0.2225 -0.0044
C8 C 0.3486(8) 0.2589(3) 0.1186(9)
H4 H 0.2683 0.2697 0.1458
C9 C 0.3737(7) 0.1977(3) 0.0937(8)
H5 H 0.3132 0.1664 0.1076
N1 N 1.1347(6) -0.1169(2) 0.4957(7)
C10 C 0.9976(8) -0.1144(3) 0.6576(9)
H6 H 0.9951 -0.1240 0.7553
C11 C 1.1206(7) -0.1333(3) 0.6290(9)
H7 H 1.1976 -0.1586 0.7054
N2 N 0.5579(6) 0.2918(2) 0.0576(7)
C12 C 0.4904(6) 0.1834(3) 0.0478(7)
C13 C 0.4436(8) 0.3041(3) 0.1030(9)
H8 H 0.4283 0.3451 0.1247
O5 O 0.4597(5) 0.07543(19) 0.0542(5)
O6 O 0.6287(4) -0.0281(2) 0.2755(5)
O7 O 1.1173(4) -0.06583(17) 0.0516(5)
C14 C 0.5219(6) 0.0336(3) -0.5025(7)
O8 O 0.4609(5) 0.06098(17) -0.6362(5)
Dy1B Dy 0.35745(3) -0.008265(12) 0.12484(3)
Dy1B_2 Dy 1.35745(3) -0.008265(12) 0.12484(3)
Dy1B_3 Dy 0.35745(3) -0.008265(12) -0.87516(3)
Cu1B Cu 0.30823(9) -0.14639(3) -0.53842(12)
Cu1B_2 Cu 1.30823(9) -0.14639(3) 0.46158(12)
Cu1C Cu 0.69177(9) 0.35361(3) 0.03842(12)
Cu1A Cu 0.30823(9) -0.35361(3) -0.03842(12)
Cu1_2 Cu -0.30823(9) 0.14639(3) -0.46158(12)
O1B O 0.2148(5) 0.00386(18) -0.1604(5)
O2B O 0.3824(5) -0.05788(17) -0.6303(5)
O2B_2 O 0.3824(5) -0.05788(17) 0.3697(5)
O3B O 1.1440(4) 0.05696(17) 0.0898(5)
O3B_2 O 0.1440(4) 0.05696(17) 0.0898(5)
O4B O 0.3900(5) -0.11056(18) 0.0537(6)
C1B C 1.0081(6) 0.0355(3) 0.0119(7)
C2B C 0.2432(6) 0.0280(3) -0.2674(8)
C3B C 0.4775(6) -0.1184(3) -0.0133(7)
C4B C 0.1120(7) 0.0643(3) -0.4029(8)
C5B C -0.0183(7) 0.0820(3) -0.3855(8)
H1B H -0.0268 0.0692 -0.2929
C6B C 0.1213(7) 0.0813(3) -0.5404(8)
H2B H 0.2090 0.0704 -0.5548
C7B C 0.4216(7) -0.2319(3) -0.0292(8)
H3B H 0.3450 -0.2225 0.0044
C8B C 0.6514(8) -0.2589(3) -0.1186(9)
H4B H 0.7317 -0.2697 -0.1458
C9B C 0.6263(7) -0.1977(3) -0.0937(8)
H5B H 0.6868 -0.1664 -0.1076
N1B N -0.1347(6) 0.1169(2) -0.4957(7)
N1B_2 N 0.8653(6) 0.1169(2) -0.4957(7)
N1_2 N 0.1347(6) -0.1169(2) -0.5043(7)
C10B C 0.0024(8) 0.1144(3) -0.6576(9)
H6B H 0.0049 0.1240 -0.7553
C11B C -0.1206(7) 0.1333(3) -0.6290(9)
H7B H -0.1976 0.1586 -0.7054
N2B N 0.4421(6) -0.2918(2) -0.0576(7)
N2C N 0.5579(6) 0.2082(2) -0.4424(7)
N2A N 0.4421(6) -0.2082(2) -0.5576(7)
C12B C 0.5096(6) -0.1834(3) -0.0478(7)
C13B C 0.5564(8) -0.3041(3) -0.1030(9)
H8B H 0.5717 -0.3451 -0.1247
O5B O 0.5403(5) -0.07543(19) -0.0542(5)
O6B O 0.3713(4) 0.0281(2) -0.2755(5)
O7B O 0.8827(4) 0.06583(17) -0.0516(5)
O7_2 O 0.1173(4) -0.06583(17) 0.0516(5)
C14B C 0.4781(6) -0.0336(3) -0.4975(7)
O8B O 0.5391(5) -0.06098(17) -0.3638(5)
O8_2 O 0.4609(5) 0.06098(17) 0.3638(5)
O9 O 0.1016(8) 0.7987(3) 0.0487(9)
H9 H 0.065(12) 0.792(4) 0.116(10)
H10 H 0.108(11) 0.8382(7) 0.046(12)
O10 O 0.9610(9) 0.7643(3) 0.2574(10)
H11 H 1.038(9) 0.751(5) 0.243(13)
H12 H 0.968(13) 0.745(5) 0.342(9)
loop_
_geom_bond_atom_site_label_1
_geom_bond_atom_site_label_2
_geom_bond_site_symmetry_1
_geom_bond_site_symmetry_2
Dy1 O1 1_555 1_555
Cu1 O2 1_555 1_555
O1 C2 1_555 1_555
O2 Dy1 1_555 1_555
O3 Dy1 1_555 1_555
O4 Dy1 1_555 1_555
C1 O3 1_555 1_555
C2 C4 1_555 1_555
C3 O4 1_555 1_555
C4 C5 1_555 1_555
C5 H1 1_555 1_555
C6 C4 1_555 1_555
H2 C6 1_555 1_555
C7 H3 1_555 1_555
C8 H4 1_555 1_555
C9 C8 1_555 1_555
H5 C9 1_555 1_555
N1 C5 1_555 1_555
C10 C6 1_555 1_555
H6 C10 1_555 1_555
C11 N1 1_555 1_555
H7 C11 1_555 1_555
N2 C7 1_555 1_555
C12 C3 1_555 1_555
C13 C8 1_555 1_555
H8 C13 1_555 1_555
O5 C3 1_555 1_555
O6 C2 1_555 1_555
O7 C1 1_555 1_555
C14 O2 1_555 1_555
O8 C14 1_555 1_555
O9 H9 1_555 1_555
H10 O9 1_555 1_555
O10 H11 1_555 1_555
H12 O10 1_555 1_555
Dy1B O5 1_555 1_555
Dy1B_2 O7 1_555 1_555
Dy1B_3 O8 1_555 1_555
Cu1B O2B 1_555 1_555
Cu1B_2 N1 1_555 1_555
Cu1C N2 1_555 1_555
Cu1A N2B 1_555 1_555
Cu1_2 N1B 1_555 1_555
O1B Dy1B 1_555 1_555
O2B Dy1B_3 1_555 1_555
O2B_2 Dy1B 1_555 1_555
O3B Dy1B_2 1_555 1_555
O3B_2 Dy1B 1_555 1_555
O4B Dy1B 1_555 1_555
C1B C1 1_555 1_555
C2B O1B 1_555 1_555
C3B O4B 1_555 1_555
C4B C2B 1_555 1_555
C5B C4B 1_555 1_555
H1B C5B 1_555 1_555
C6B C4B 1_555 1_555
H2B C6B 1_555 1_555
C7B H3B 1_555 1_555
C8B H4B 1_555 1_555
C9B C8B 1_555 1_555
H5B C9B 1_555 1_555
N1B C5B 1_555 1_555
N1B_2 Cu1 1_555 1_555
N1_2 Cu1B 1_555 1_555
C10B C6B 1_555 1_555
H6B C10B 1_555 1_555
C11B N1B 1_555 1_555
H7B C11B 1_555 1_555
N2B C7B 1_555 1_555
N2C Cu1 1_555 1_555
N2A Cu1B 1_555 1_555
C12B C3B 1_555 1_555
C13B C8B 1_555 1_555
H8B C13B 1_555 1_555
O5B Dy1 1_555 1_555
O6B Dy1 1_555 1_555
O7B Dy1 1_555 1_555
O7_2 Dy1B 1_555 1_555
C14B C14 1_555 1_555
O8B Dy1 1_555 1_555
O8_2 Dy1B 1_555 1_555
C7 C12 1_555 1_555
C9 C12 1_555 1_555
C10 C11 1_555 1_555
N2 C13 1_555 1_555
O6 Dy1B 1_555 1_555
O2B C14B 1_555 1_555
O3B C1B 1_555 1_555
C1B O7B 1_555 1_555
C2B O6B 1_555 1_555
C3B O5B 1_555 1_555
C7B C12B 1_555 1_555
C9B C12B 1_555 1_555
C10B C11B 1_555 1_555
N2B C13B 1_555 1_555
C14B O8B 1_555 1_555

#END
