
#######################################################################
#
#                 Cambridge Crystallographic Data Centre
#                                CCDC 
#
#######################################################################
#
# If this CIF has been generated from an entry in the Cambridge 
# Structural Database, then it will include bibliographic, chemical, 
# crystal, experimental, refinement or atomic coordinate data resulting 
# from the CCDC's data processing and validation procedures.
#
#######################################################################

data_BUSRUE
_symmetry_cell_setting           monoclinic
_symmetry_space_group_name_H-M   'P 21/n'
_symmetry_Int_Tables_number      14
_space_group_name_Hall           '-P 2yn'
loop_
_symmetry_equiv_pos_site_id
_symmetry_equiv_pos_as_xyz
1 x,y,z
2 1/2-x,1/2+y,1/2-z
3 -x,-y,-z
4 1/2+x,1/2-y,1/2+z
_cell_length_a                   11.7797(6)
_cell_length_b                   29.1825(9)
_cell_length_c                   14.2285(6)
_cell_angle_alpha                90
_cell_angle_beta                 100.679(4)
_cell_angle_gamma                90
_cell_volume                     4806.49
loop_
_atom_site_label
_atom_site_type_symbol
_atom_site_fract_x
_atom_site_fract_y
_atom_site_fract_z
C1 C 0.3334(6) 0.1259(2) -0.1683(5)
C2 C 0.3054(7) 0.1731(2) -0.2080(6)
C3 C 0.3617(11) 0.2101(3) -0.1633(8)
H1 H 0.4192 0.2060 -0.1096
C4 C 0.2225(8) 0.1817(3) -0.2867(7)
H2 H 0.1800 0.1573 -0.3168
C5 C 0.3332(11) 0.2538(3) -0.1981(9)
H3 H 0.3684 0.2789 -0.1641
C6 C 0.1994(8) 0.2247(3) -0.3230(7)
H4 H 0.1440 0.2286 -0.3782
C7 C 0.2548(8) 0.2615(2) -0.2808(6)
C8 C 0.2311(7) 0.3096(2) -0.3147(6)
C9 C 0.2969(11) 0.3455(3) -0.2745(10)
H5 H 0.3596 0.3400 -0.2256
C10 C 0.1358(8) 0.3203(3) -0.3844(6)
H6 H 0.0891 0.2968 -0.4140
C11 C 0.2716(10) 0.3905(3) -0.3055(9)
H7 H 0.3217 0.4139 -0.2802
C12 C 0.1088(7) 0.3657(2) -0.4109(5)
H8 H 0.0432 0.3719 -0.4566
C13 C 0.1766(6) 0.4012(2) -0.3711(5)
C14 C 0.1483(6) 0.4500(2) -0.3933(5)
C15 C 0.1712(7) 0.0458(3) 0.0066(5)
H9 H 0.1397 0.0408 -0.0575
C16 C 0.3288(6) 0.0592(2) 0.1219(5)
H10 H 0.4081 0.0640 0.1388
C17 C 0.0977(6) 0.0474(3) 0.0712(5)
H11 H 0.0184 0.0440 0.0515
C18 C 0.2643(6) 0.0611(2) 0.1922(5)
H12 H 0.2983 0.0668 0.2554
C19 C 0.1455(7) 0.0543(2) 0.1657(5)
C20 C 0.0771(6) 0.0924(2) 0.2978(5)
C21 C 0.0143(6) 0.0127(2) 0.2480(5)
C22 C -0.0528(6) 0.0113(2) 0.3263(4)
C23 C 0.0125(6) 0.0893(2) 0.3784(5)
C24 C -0.0507(6) 0.0491(2) 0.3881(5)
C25 C -0.1157(6) -0.0271(2) 0.3384(5)
H13 H -0.1168 -0.0518 0.2969
C26 C 0.0115(7) 0.1252(2) 0.4376(5)
H14 H 0.0561 0.1510 0.4317
C27 C -0.1777(6) -0.0294(2) 0.4124(5)
H15 H -0.2194 -0.0558 0.4201
C28 C -0.0575(7) 0.1234(2) 0.5085(5)
H16 H -0.0610 0.1489 0.5470
C29 C -0.1785(6) 0.0065(2) 0.4741(5)
C30 C -0.1187(6) 0.0856(2) 0.5220(5)
C31 C -0.1159(6) 0.0474(2) 0.4612(5)
C32 C -0.2405(6) 0.0033(3) 0.5554(5)
C33 C -0.1930(7) 0.0849(3) 0.5946(5)
C34 C -0.3226(6) 0.0417(2) 0.6780(5)
C35 C -0.4334(7) 0.0277(3) 0.6522(5)
H17 H -0.4620 0.0188 0.5895
C36 C -0.2849(7) 0.0545(2) 0.7709(5)
H18 H -0.2086 0.0635 0.7917
C37 C -0.5030(7) 0.0267(3) 0.7192(5)
H19 H -0.5785 0.0164 0.7003
C38 C -0.3610(7) 0.0541(2) 0.8331(5)
H20 H -0.3355 0.0645 0.8953
N1 N 0.2847(5) 0.05106(16) 0.0309(4)
N2 N 0.0750(5) 0.05334(18) 0.2388(4)
N3 N -0.2469(5) 0.04298(19) 0.6100(4)
N4 N -0.4699(5) 0.03960(16) 0.8086(4)
O1 O 0.2787(5) 0.09250(15) -0.2059(4)
O2 O 0.4130(5) 0.12285(15) -0.0964(4)
O3 O 0.0618(4) 0.45949(14) -0.4576(3)
O4 O 0.2091(5) 0.48054(14) -0.3491(3)
O5 O 0.0186(4) -0.01891(17) 0.1963(3)
O6 O 0.1287(5) 0.12610(18) 0.2824(4)
O7 O -0.2079(6) 0.11783(18) 0.6403(4)
O8 O -0.2824(5) -0.03227(17) 0.5762(4)
Cd1 Cd 0.40048(4) 0.043765(14) -0.08574(3)
N4_2 N 0.5301(5) 0.03960(16) -0.1914(4)
O3A O 0.4382(4) -0.04051(14) -0.0424(3)
O3C O 0.5618(4) 0.04051(14) 0.0424(3)
O4A O 0.2909(5) -0.01946(14) -0.1509(3)
Cd1_2 Cd -0.59952(4) 0.043765(14) 0.91426(3)
Cd1A Cd 0.09952(4) 0.543765(14) -0.41426(3)
Cd1C Cd -0.09952(4) 0.456235(14) -0.58574(3)
C39 C -0.5637(16) -0.0959(6) 0.6141(13)
H21 H -0.5906 -0.0981 0.6714
C40 C -0.4326(18) -0.1323(8) 0.5052(13)
H22 H -0.3930 -0.1610 0.5037
H23 H -0.3776 -0.1077 0.5125
H24 H -0.4871 -0.1284 0.4466
C41 C -0.498(2) -0.1793(6) 0.6518(17)
H25 H -0.4485 -0.2007 0.6277
H26 H -0.5749 -0.1916 0.6434
H27 H -0.4695 -0.1740 0.7185
N5 N -0.5004(12) -0.1320(5) 0.5945(10)
O9 O -0.5902(8) -0.0624(4) 0.5710(7)
O10 O 0.128(3) 0.2277(10) 0.430(2)
O11 O -0.565(4) 0.3422(13) 0.419(3)
O12 O -0.115(3) 0.2375(9) 0.5878(19)
O13 O -0.342(3) 0.3259(12) 0.529(2)
O15 O -0.307(4) 0.2199(16) 0.781(3)
O14? O -0.255(4) 0.3022(13) 0.589(3)
loop_
_geom_bond_atom_site_label_1
_geom_bond_atom_site_label_2
_geom_bond_site_symmetry_1
_geom_bond_site_symmetry_2
C1 C2 1_555 1_555
C2 C3 1_555 1_555
C3 H1 1_555 1_555
C4 C2 1_555 1_555
H2 C4 1_555 1_555
C5 C3 1_555 1_555
H3 C5 1_555 1_555
C6 C4 1_555 1_555
H4 C6 1_555 1_555
C7 C5 1_555 1_555
C8 C7 1_555 1_555
C9 C8 1_555 1_555
H5 C9 1_555 1_555
C10 C8 1_555 1_555
H6 C10 1_555 1_555
C11 C9 1_555 1_555
H7 C11 1_555 1_555
C12 C10 1_555 1_555
H8 C12 1_555 1_555
C13 C11 1_555 1_555
C14 C13 1_555 1_555
C15 H9 1_555 1_555
C16 H10 1_555 1_555
C17 C15 1_555 1_555
H11 C17 1_555 1_555
C18 C16 1_555 1_555
H12 C18 1_555 1_555
C19 C17 1_555 1_555
C20 C23 1_555 1_555
C21 C22 1_555 1_555
C22 C24 1_555 1_555
C23 C24 1_555 1_555
C24 C31 1_555 1_555
C25 C22 1_555 1_555
H13 C25 1_555 1_555
C26 C23 1_555 1_555
H14 C26 1_555 1_555
C27 C25 1_555 1_555
H15 C27 1_555 1_555
C28 C26 1_555 1_555
H16 C28 1_555 1_555
C29 C27 1_555 1_555
C30 C28 1_555 1_555
C31 C29 1_555 1_555
C32 C29 1_555 1_555
C33 C30 1_555 1_555
C34 C35 1_555 1_555
C35 H17 1_555 1_555
C36 C34 1_555 1_555
H18 C36 1_555 1_555
C37 C35 1_555 1_555
H19 C37 1_555 1_555
C38 C36 1_555 1_555
H20 C38 1_555 1_555
N1 C15 1_555 1_555
N2 C19 1_555 1_555
N3 C32 1_555 1_555
N4 C37 1_555 1_555
O1 C1 1_555 1_555
O2 C1 1_555 1_555
O3 C14 1_555 1_555
O4 C14 1_555 1_555
O5 C21 1_555 1_555
O6 C20 1_555 1_555
O7 C33 1_555 1_555
O8 C32 1_555 1_555
Cd1 N1 1_555 1_555
C39 H21 1_555 1_555
C40 H22 1_555 1_555
H23 C40 1_555 1_555
H24 C40 1_555 1_555
C41 H25 1_555 1_555
H26 C41 1_555 1_555
H27 C41 1_555 1_555
N5 C39 1_555 1_555
O9 C39 1_555 1_555
N4_2 Cd1 1_555 1_555
O3A Cd1 1_555 1_555
O3C Cd1 1_555 1_555
O4A Cd1 1_555 1_555
Cd1_2 N4 1_555 1_555
Cd1A O3 1_555 1_555
Cd1C O3 1_555 1_555
C6 C7 1_555 1_555
C12 C13 1_555 1_555
C16 N1 1_555 1_555
C18 C19 1_555 1_555
C20 N2 1_555 1_555
C21 N2 1_555 1_555
C30 C31 1_555 1_555
C33 N3 1_555 1_555
C34 N3 1_555 1_555
C38 N4 1_555 1_555
O1 Cd1 1_555 1_555
O2 Cd1 1_555 1_555
O4 Cd1A 1_555 1_555
C40 N5 1_555 1_555
C41 N5 1_555 1_555

#END
