
#######################################################################
#
#                 Cambridge Crystallographic Data Centre
#                                CCDC 
#
#######################################################################
#
# If this CIF has been generated from an entry in the Cambridge 
# Structural Database, then it will include bibliographic, chemical, 
# crystal, experimental, refinement or atomic coordinate data resulting 
# from the CCDC's data processing and validation procedures.
#
#######################################################################

data_CAGSAG
_symmetry_cell_setting           triclinic
_symmetry_space_group_name_H-M   'P -1'
_symmetry_Int_Tables_number      2
_space_group_name_Hall           '-P 1'
loop_
_symmetry_equiv_pos_site_id
_symmetry_equiv_pos_as_xyz
1 x,y,z
2 -x,-y,-z
_cell_length_a                   17.672(6)
_cell_length_b                   19.850(7)
_cell_length_c                   20.915(7)
_cell_angle_alpha                72.383(4)
_cell_angle_beta                 70.947(5)
_cell_angle_gamma                69.724(5)
_cell_volume                     6354.75
loop_
_atom_site_label
_atom_site_type_symbol
_atom_site_fract_x
_atom_site_fract_y
_atom_site_fract_z
Zn1 Zn 0.95825(6) 0.27512(5) 0.45648(4)
Zn2 Zn 0.80976(7) 0.42122(5) 0.45790(5)
Zn3 Zn 0.80667(6) 0.29382(5) 0.58644(4)
Zn4 Zn 0.77187(7) 0.27558(5) 0.45265(5)
Zn5 Zn 0.21705(7) 0.85364(5) 1.01931(5)
Zn6 Zn 0.36738(6) 0.71217(5) 1.01399(5)
Zn7 Zn 0.39333(6) 0.85916(5) 1.02133(4)
Zn8 Zn 0.36715(7) 0.84177(5) 0.87970(5)
O1 O 0.7591(5) 0.4748(3) 0.5325(3)
O2 O 0.7591(4) 0.3798(3) 0.6262(3)
O3 O 0.4571(5) 0.7411(4) 0.8655(4)
O4 O 0.4307(4) 0.6473(4) 0.9519(3)
O5 O 0.0154(5) 1.2261(4) 0.5324(3)
O6 O -0.0950(5) 1.2431(4) 0.6232(3)
O7 O 0.0196(4) 0.3463(4) 1.3962(4)
O8 O -0.0862(5) 0.4508(4) 1.4105(4)
O9 O 0.7475(7) 0.4649(5) 1.3908(5)
O10 O 0.7601(6) 0.3583(5) 1.3647(4)
O11 O 0.7574(6) 1.1882(4) 0.5404(4)
O12 O 0.7336(5) 1.2331(4) 0.6320(4)
O13 O -0.0088(5) 1.2029(4) 1.4014(4)
O14 O -0.1346(4) 1.2036(4) 1.3965(3)
O15 O 0.6664(6) 0.3472(5) 0.5132(5)
O16 O 0.2725(5) 0.6752(4) 1.0692(4)
O17 O 0.1616(4) 0.7755(3) 1.0684(3)
O18 O 0.4403(5) 0.6840(4) 1.0779(4)
O19 O 0.4742(4) 0.7847(3) 1.0697(3)
O20 O 0.4645(5) 0.8824(4) 0.8712(3)
O21 O 0.4455(4) 0.9324(3) 0.9585(3)
O22 O 0.2773(5) 0.9435(4) 0.8762(4)
O23 O 0.1587(4) 0.9305(4) 0.9572(3)
O24 O 0.1924(4) 0.9037(4) 1.0949(3)
O25 O 0.3162(5) 0.9147(4) 1.0917(3)
O26 O 0.3952(5) 0.8683(4) 0.7705(3)
O27 O 0.2731(6) 0.7951(5) 0.8852(4)
O28 O 0.6879(5) 0.2425(5) 0.4269(5)
O29 O 0.8388(4) 0.3153(3) 0.4867(3)
O30 O 0.3362(4) 0.8173(3) 0.9840(3)
N1 N 0.2006(10) 0.7611(9) 0.8288(8)
N2 N 0.6460(11) 0.1526(9) 0.4082(8)
C1 C 0.7435(13) 0.4449(12) 0.5981(10)
C2 C 0.6940(8) 0.5009(5) 0.6440(4)
C3 C 0.6726(7) 0.5762(5) 0.6168(4)
H1 H 0.6907 0.5935 0.5683
C4 C 0.6257(7) 0.6269(6) 0.6583(5)
H2 H 0.6114 0.6781 0.6388
C5 C 0.5999(6) 0.6002(5) 0.7302(5)
C6 C 0.5488(7) 0.6484(6) 0.7749(5)
H3 H 0.5327 0.6998 0.7565
C7 C 0.5221(7) 0.6218(5) 0.8448(5)
C8 C 0.5480(7) 0.5436(5) 0.8743(5)
H4 H 0.5301 0.5253 0.9227
C9 C 0.5973(7) 0.4979(6) 0.8325(5)
H5 H 0.6146 0.4468 0.8518
C10 C 0.6249(5) 0.5235(4) 0.7596(4)
C11 C 0.6717(6) 0.4753(5) 0.7142(5)
H6 H 0.6882 0.4239 0.7327
C12 C 0.4655(7) 0.6740(5) 0.8918(5)
C13 C -0.0151(6) 1.2173(6) 0.5964(5)
C14 C -0.0133(8) 0.4159(6) 1.3809(6)
C15 C 0.7430(13) 0.4258(13) 1.3568(10)
C16 C 0.7277(9) 1.1926(7) 0.6033(5)
C17 C -0.0583(7) 1.1851(5) 1.3815(5)
C18 C 0.1996(7) 0.7054(6) 1.0884(5)
C19 C 0.1453(6) 0.6609(6) 1.1407(5)
C20 C 0.1792(8) 0.5860(6) 1.1649(6)
H7 H 0.2353 0.5639 1.1436
C21 C 0.1347(7) 0.5418(6) 1.2187(6)
C22 C 0.1630(8) 0.4691(6) 1.2434(6)
H8 H 0.2173 0.4451 1.2202
C23 C 0.1236(8) 0.4286(6) 1.2958(7)
H9 H 0.1512 0.3795 1.3142
C24 C 0.0399(7) 0.4594(5) 1.3241(5)
C25 C 0.0036(8) 0.5323(6) 1.2987(6)
H10 H -0.0537 0.5533 1.3178
C26 C 0.0489(7) 0.5760(5) 1.2459(6)
C27 C 0.0116(7) 0.6520(6) 1.2193(7)
H11 H -0.0458 0.6742 1.2368
C28 C 0.0614(7) 0.6925(6) 1.1674(6)
H12 H 0.0375 0.7430 1.1497
C29 C 0.4798(13) 0.7156(12) 1.0910(10)
C30 C 0.5361(7) 0.6712(5) 1.1365(5)
C31 C 0.5435(9) 0.5983(6) 1.1610(6)
H13 H 0.5153 0.5763 1.1449
C32 C 0.5897(8) 0.5542(6) 1.2079(7)
C33 C 0.5961(9) 0.4792(6) 1.2351(6)
H14 H 0.5672 0.4562 1.2208
C34 C 0.6428(11) 0.4383(7) 1.2817(7)
H15 H 0.6452 0.3877 1.2999
C35 C 0.6887(9) 0.4722(8) 1.3032(6)
C36 C 0.6863(9) 0.5454(6) 1.2759(6)
H16 H 0.7155 0.5680 1.2903
C37 C 0.6390(9) 0.5865(7) 1.2258(6)
C38 C 0.6343(9) 0.6616(7) 1.1996(6)
H17 H 0.6651 0.6840 1.2125
C39 C 0.5847(9) 0.7015(6) 1.1555(6)
H18 H 0.5828 0.7519 1.1367
C40 C 0.4671(7) 0.9320(5) 0.8940(5)
C41 C 0.5108(6) 0.9894(5) 0.8457(5)
C42 C 0.5115(6) 1.0474(5) 0.8718(5)
H19 H 0.4865 1.0496 0.9191
C43 C 0.5482(7) 1.0996(5) 0.8284(4)
H20 H 0.5457 1.1405 0.8444
C44 C 0.5913(6) 1.0935(5) 0.7577(4)
C45 C 0.6356(7) 1.1427(6) 0.7141(5)
H21 H 0.6355 1.1829 0.7298
C46 C 0.6801(8) 1.1337(7) 0.6473(6)
C47 C 0.6787(8) 1.0767(6) 0.6235(6)
H22 H 0.7099 1.0701 0.5782
C48 C 0.6334(8) 1.0303(7) 0.6643(6)
H23 H 0.6288 0.9945 0.6453
C49 C 0.5933(6) 1.0327(5) 0.7325(5)
C50 C 0.5509(6) 0.9816(5) 0.7784(5)
H24 H 0.5498 0.9416 0.7631
C51 C 0.2035(8) 0.9576(6) 0.8987(5)
C52 C 0.1483(7) 1.0170(6) 0.8520(5)
C53 C 0.0644(6) 1.0501(5) 0.8787(5)
H25 H 0.0394 1.0378 0.9268
C54 C 0.0175(6) 1.1020(4) 0.8335(4)
H26 H -0.0382 1.1278 0.8519
C55 C 0.0519(6) 1.1164(6) 0.7608(5)
C56 C 0.0023(6) 1.1634(6) 0.7136(5)
H27 H -0.0547 1.1871 0.7306
C57 C 0.0372(7) 1.1740(6) 0.6443(5)
C58 C 0.1233(8) 1.1413(7) 0.6188(6)
H28 H 0.1481 1.1520 0.5705
C59 C 0.1688(7) 1.0967(7) 0.6611(5)
H29 H 0.2251 1.0722 0.6429
C60 C 0.1345(7) 1.0844(7) 0.7351(5)
C61 C 0.1845(7) 1.0326(6) 0.7821(5)
H30 H 0.2417 1.0097 0.7646
C62 C 0.2357(8) 0.9272(5) 1.1153(4)
C63 C 0.1945(6) 0.9755(5) 1.1651(4)
C64 C 0.2397(7) 1.0137(6) 1.1793(5)
H31 H 0.2962 1.0101 1.1548
C65 C 0.2020(8) 1.0561(7) 1.2285(6)
H32 H 0.2343 1.0756 1.2429
C66 C 0.1154(6) 1.0704(5) 1.2575(5)
C67 C 0.0701(8) 1.1187(5) 1.3055(5)
H33 H 0.0997 1.1422 1.3185
C68 C -0.0143(7) 1.1315(5) 1.3329(5)
C69 C -0.0568(8) 1.0949(7) 1.3173(6)
H34 H -0.1146 1.1024 1.3386
C70 C -0.0180(8) 1.0461(8) 1.2705(7)
H35 H -0.0491 1.0212 1.2611
C71 C 0.0691(7) 1.0358(6) 1.2383(6)
C72 C 0.1106(7) 0.9870(6) 1.1932(6)
H36 H 0.0806 0.9622 1.1823
C73 C 0.2702(11) 0.7775(9) 0.8375(9)
H37 H 0.3188 0.7737 0.8004
C74 C 0.2055(12) 0.7340(11) 0.7713(9)
H38 H 0.1493 0.7376 0.7700
H39 H 0.2387 0.6825 0.7762
H40 H 0.2318 0.7633 0.7284
C75 C 0.1139(12) 0.7883(11) 0.8774(9)
H41 H 0.1051 0.7497 0.9190
H42 H 0.0704 0.7999 0.8532
H43 H 0.1116 0.8325 0.8905
C76 C 0.7002(11) 0.1779(11) 0.4289(11)
H44 H 0.7466 0.1431 0.4444
C77 C 0.5703(12) 0.2007(11) 0.3931(9)
H45 H 0.5373 0.2248 0.4319
H46 H 0.5389 0.1726 0.3859
H47 H 0.5825 0.2380 0.3511
C78 C 0.6719(12) 0.0711(11) 0.4182(9)
H48 H 0.7037 0.0573 0.3738
H49 H 0.6224 0.0529 0.4359
H50 H 0.7067 0.0495 0.4514
N3 N 0.5252(7) 0.3827(8) 0.5657(8)
C79 C 0.4426(9) 0.3921(10) 0.5559(9)
H51 H 0.4190 0.4438 0.5357
H52 H 0.4054 0.3775 0.6007
H53 H 0.4486 0.3613 0.5247
C80 C 0.5933(9) 0.3556(10) 0.5141(9)
H54 H 0.5830 0.3431 0.4779
C81 C 0.5399(12) 0.4005(10) 0.6199(9)
H55 H 0.5807 0.3588 0.6404
H56 H 0.4877 0.4114 0.6554
H57 H 0.5617 0.4436 0.6018
Zn1_2 Zn -0.04175(6) 0.27512(5) 1.45648(4)
Zn1_3 Zn -0.04175(6) 1.27512(5) 0.45648(4)
Zn1_4 Zn -0.04175(6) 1.27512(5) 1.45648(4)
Zn2_2 Zn -0.19024(7) 0.42122(5) 1.45790(5)
Zn2_3 Zn 0.80976(7) 0.42122(5) 1.45790(5)
Zn3_2 Zn -0.19333(6) 1.29382(5) 0.58644(4)
Zn3_3 Zn 0.80667(6) 1.29382(5) 0.58644(4)
Zn4_2 Zn -0.22813(7) 1.27558(5) 1.45265(5)
Zn4_3 Zn 0.77187(7) 0.27558(5) 1.45265(5)
Zn4_4 Zn 0.77187(7) 1.27558(5) 0.45265(5)
O5_2 O 1.0154(5) 0.2261(4) 0.5324(3)
O6_2 O 0.9050(5) 0.2431(4) 0.6232(3)
O7_2 O 1.0196(4) 0.3463(4) 0.3962(4)
O8_2 O 0.9138(5) 0.4508(4) 0.4105(4)
O9_2 O 0.7475(7) 0.4649(5) 0.3908(5)
O10_2 O 0.7601(6) 0.3583(5) 0.3647(4)
O11_2 O 0.7574(6) 0.1882(4) 0.5404(4)
O12_2 O 0.7336(5) 0.2331(4) 0.6320(4)
O13_2 O 0.9912(5) 0.2029(4) 0.4014(4)
O14_2 O 0.8654(4) 0.2036(4) 0.3965(3)
loop_
_geom_bond_atom_site_label_1
_geom_bond_atom_site_label_2
_geom_bond_site_symmetry_1
_geom_bond_site_symmetry_2
Zn1 O29 1_555 1_555
Zn2 O1 1_555 1_555
Zn3 O2 1_555 1_555
Zn4 O15 1_555 1_555
Zn5 O17 1_555 1_555
Zn6 O4 1_555 1_555
Zn7 O19 1_555 1_555
Zn8 O3 1_555 1_555
O1 C1 1_555 1_555
O2 C1 1_555 1_555
O3 C12 1_555 1_555
O4 C12 1_555 1_555
O5 C13 1_555 1_555
O6 C13 1_555 1_555
O7 C14 1_555 1_555
O8 C14 1_555 1_555
O9 C15 1_555 1_555
O10 C15 1_555 1_555
O11 C16 1_555 1_555
O12 C16 1_555 1_555
O13 C17 1_555 1_555
O14 C17 1_555 1_555
O15 C80 1_555 1_555
O16 Zn6 1_555 1_555
O17 C18 1_555 1_555
O18 Zn6 1_555 1_555
O19 C29 1_555 1_555
O20 Zn8 1_555 1_555
O21 Zn7 1_555 1_555
O22 Zn8 1_555 1_555
O23 Zn5 1_555 1_555
O24 Zn5 1_555 1_555
O25 Zn7 1_555 1_555
O26 Zn8 1_555 1_555
O27 Zn8 1_555 1_555
O28 Zn4 1_555 1_555
O29 Zn2 1_555 1_555
O30 Zn5 1_555 1_555
N1 C73 1_555 1_555
N2 C76 1_555 1_555
C1 C2 1_555 1_555
C2 C3 1_555 1_555
C3 H1 1_555 1_555
C4 C3 1_555 1_555
H2 C4 1_555 1_555
C5 C4 1_555 1_555
C6 C5 1_555 1_555
H3 C6 1_555 1_555
C7 C6 1_555 1_555
C8 C7 1_555 1_555
H4 C8 1_555 1_555
C9 C8 1_555 1_555
H5 C9 1_555 1_555
C10 C5 1_555 1_555
C11 C2 1_555 1_555
H6 C11 1_555 1_555
C12 C7 1_555 1_555
C13 C57 1_555 1_555
C14 C24 1_555 1_555
C15 C35 1_555 1_555
C16 C46 1_555 1_555
C17 C68 1_555 1_555
C18 O16 1_555 1_555
C19 C18 1_555 1_555
C20 C19 1_555 1_555
H7 C20 1_555 1_555
C21 C20 1_555 1_555
C22 C21 1_555 1_555
H8 C22 1_555 1_555
C23 C22 1_555 1_555
H9 C23 1_555 1_555
C24 C23 1_555 1_555
C25 C24 1_555 1_555
H10 C25 1_555 1_555
C26 C21 1_555 1_555
C27 C26 1_555 1_555
H11 C27 1_555 1_555
C28 C19 1_555 1_555
H12 C28 1_555 1_555
C29 O18 1_555 1_555
C30 C29 1_555 1_555
C31 C30 1_555 1_555
H13 C31 1_555 1_555
C32 C31 1_555 1_555
C33 C32 1_555 1_555
H14 C33 1_555 1_555
C34 C33 1_555 1_555
H15 C34 1_555 1_555
C35 C34 1_555 1_555
C36 C35 1_555 1_555
H16 C36 1_555 1_555
C37 C32 1_555 1_555
C38 C37 1_555 1_555
H17 C38 1_555 1_555
C39 C30 1_555 1_555
H18 C39 1_555 1_555
C40 O20 1_555 1_555
C41 C40 1_555 1_555
C42 C41 1_555 1_555
H19 C42 1_555 1_555
C43 C42 1_555 1_555
H20 C43 1_555 1_555
C44 C43 1_555 1_555
C45 C44 1_555 1_555
H21 C45 1_555 1_555
C46 C45 1_555 1_555
C47 C46 1_555 1_555
H22 C47 1_555 1_555
C48 C47 1_555 1_555
H23 C48 1_555 1_555
C49 C44 1_555 1_555
C50 C41 1_555 1_555
H24 C50 1_555 1_555
C51 O22 1_555 1_555
C52 C51 1_555 1_555
C53 C52 1_555 1_555
H25 C53 1_555 1_555
C54 C53 1_555 1_555
H26 C54 1_555 1_555
C55 C54 1_555 1_555
C56 C55 1_555 1_555
H27 C56 1_555 1_555
C57 C56 1_555 1_555
C58 C57 1_555 1_555
H28 C58 1_555 1_555
C59 C58 1_555 1_555
H29 C59 1_555 1_555
C60 C55 1_555 1_555
C61 C52 1_555 1_555
H30 C61 1_555 1_555
C62 O24 1_555 1_555
C63 C62 1_555 1_555
C64 C63 1_555 1_555
H31 C64 1_555 1_555
C65 C64 1_555 1_555
H32 C65 1_555 1_555
C66 C65 1_555 1_555
C67 C66 1_555 1_555
H33 C67 1_555 1_555
C68 C67 1_555 1_555
C69 C68 1_555 1_555
H34 C69 1_555 1_555
C70 C69 1_555 1_555
H35 C70 1_555 1_555
C71 C66 1_555 1_555
C72 C63 1_555 1_555
H36 C72 1_555 1_555
C73 O27 1_555 1_555
H37 C73 1_555 1_555
C74 N1 1_555 1_555
H38 C74 1_555 1_555
H39 C74 1_555 1_555
H40 C74 1_555 1_555
C75 N1 1_555 1_555
H41 C75 1_555 1_555
H42 C75 1_555 1_555
H43 C75 1_555 1_555
C76 O28 1_555 1_555
H44 C76 1_555 1_555
C77 N2 1_555 1_555
H45 C77 1_555 1_555
H46 C77 1_555 1_555
H47 C77 1_555 1_555
C78 N2 1_555 1_555
H48 C78 1_555 1_555
H49 C78 1_555 1_555
H50 C78 1_555 1_555
N3 C79 1_555 1_555
C79 H51 1_555 1_555
H52 C79 1_555 1_555
H53 C79 1_555 1_555
C80 N3 1_555 1_555
H54 C80 1_555 1_555
C81 N3 1_555 1_555
H55 C81 1_555 1_555
H56 C81 1_555 1_555
H57 C81 1_555 1_555
Zn1_2 O7 1_555 1_555
Zn1_3 O5 1_555 1_555
Zn1_4 O13 1_555 1_555
Zn2_2 O8 1_555 1_555
Zn2_3 O9 1_555 1_555
Zn3_2 O6 1_555 1_555
Zn3_3 O12 1_555 1_555
Zn4_2 O14 1_555 1_555
Zn4_3 O10 1_555 1_555
Zn4_4 O11 1_555 1_555
O5_2 Zn1 1_555 1_555
O6_2 Zn3 1_555 1_555
O7_2 Zn1 1_555 1_555
O8_2 Zn2 1_555 1_555
O9_2 Zn2 1_555 1_555
O10_2 Zn4 1_555 1_555
O11_2 Zn4 1_555 1_555
O12_2 Zn3 1_555 1_555
O13_2 Zn1 1_555 1_555
O14_2 Zn4 1_555 1_555
Zn3 O29 1_555 1_555
Zn4 O29 1_555 1_555
Zn6 O30 1_555 1_555
Zn7 O30 1_555 1_555
Zn8 O30 1_555 1_555
O21 C40 1_555 1_555
O23 C51 1_555 1_555
O25 C62 1_555 1_555
C9 C10 1_555 1_555
C10 C11 1_555 1_555
C25 C26 1_555 1_555
C27 C28 1_555 1_555
C36 C37 1_555 1_555
C38 C39 1_555 1_555
C48 C49 1_555 1_555
C49 C50 1_555 1_555
C59 C60 1_555 1_555
C60 C61 1_555 1_555
C70 C71 1_555 1_555
C71 C72 1_555 1_555

#END
