
#######################################################################
#
#                 Cambridge Crystallographic Data Centre
#                                CCDC 
#
#######################################################################
#
# If this CIF has been generated from an entry in the Cambridge 
# Structural Database, then it will include bibliographic, chemical, 
# crystal, experimental, refinement or atomic coordinate data resulting 
# from the CCDC's data processing and validation procedures.
#
#######################################################################

data_CAVREY
_symmetry_cell_setting           orthorhombic
_symmetry_space_group_name_H-M   'P n m a'
_symmetry_Int_Tables_number      62
_space_group_name_Hall           '-P 2ac 2n'
loop_
_symmetry_equiv_pos_site_id
_symmetry_equiv_pos_as_xyz
1 x,y,z
2 1/2-x,-y,1/2+z
3 1/2+x,1/2-y,1/2-z
4 -x,1/2+y,-z
5 -x,-y,-z
6 1/2+x,y,1/2-z
7 1/2-x,1/2+y,1/2+z
8 x,1/2-y,z
_cell_length_a                   15.585(4)
_cell_length_b                   19.237(5)
_cell_length_c                   25.305(7)
_cell_angle_alpha                90
_cell_angle_beta                 90
_cell_angle_gamma                90
_cell_volume                     7586.66
loop_
_atom_site_label
_atom_site_type_symbol
_atom_site_fract_x
_atom_site_fract_y
_atom_site_fract_z
Zn1 Zn 0.44622(8) 0.66246(8) 0.77113(5)
Zn2 Zn 0.47159(9) 0.53562(8) 0.54951(5)
Zn3 Zn 0.31579(11) 0.7500 0.69614(7)
N1 N 0.3713(6) 0.6654(5) 0.6657(3)
N2 N 0.4299(6) 0.6305(5) 0.6957(3)
N3 N 0.4309(6) 0.5846(5) 0.6161(4)
N4 N 0.1910(9) 0.7500 0.7039(5)
N5 N 0.0591(6) 0.7148(5) 0.7212(4)
O1 O 0.4845(6) 0.6211(5) 0.5017(4)
O2 O 0.5242(6) 0.5660(5) 0.4281(4)
O3 O 0.1006(6) 0.5383(5) 0.9379(4)
O4 O 0.1405(6) 0.4826(5) 1.0104(4)
O5 O 0.3251(9) 0.6053(8) 0.8071(5)
O6 O 0.4565(7) 0.5894(8) 0.8271(4)
O7 O 0.3752(7) 0.7500 0.7652(4)
H1 H 0.3341 0.7500 0.7901
O8 O 0.5454(18) 0.7500 0.2912(7)
H2 H 0.5148 0.7500 0.2615
O9 O 0.4471(13) 0.4248(17) 0.9815(12)
H3 H 0.4830 0.4509 0.9944
C1 C 0.3154(10) 0.6569(8) 0.5742(5)
H4 H 0.3470 0.6845 0.5493
H5 H 0.2684 0.6836 0.5880
H6 H 0.2935 0.6162 0.5568
C2 C 0.3727(8) 0.6357(7) 0.6181(4)
C3 C 0.4644(7) 0.5822(7) 0.6651(4)
C4 C 0.5307(10) 0.5322(8) 0.6828(6)
H7 H 0.5864 0.5531 0.6796
H8 H 0.5282 0.4912 0.6613
H9 H 0.5206 0.5200 0.7191
C5 C 0.5071(8) 0.6198(7) 0.4534(5)
C6 C 0.5112(9) 0.6868(7) 0.4255(5)
C7 C 0.5030(11) 0.7500 0.4515(7)
H10 H 0.4917 0.7500 0.4876
C8 C 0.5255(12) 0.6861(8) 0.3706(6)
H11 H 0.5337 0.6443 0.3529
C9 C 0.527(2) 0.7500 0.3426(9)
C10 C 0.1553(9) 0.5108(8) 0.9665(5)
C11 C 0.2451(9) 0.5046(10) 0.9462(6)
C12 C 0.3030(13) 0.4666(16) 0.9715(10)
H12 H 0.2869 0.4413 1.0013
C13 C 0.3853(15) 0.464(2) 0.9546(14)
C14 C 0.4129(13) 0.4983(16) 0.9087(10)
H13 H 0.4685 0.4936 0.8959
C15 C 0.3528(9) 0.5391(9) 0.8838(6)
C16 C 0.2701(8) 0.5414(8) 0.9013(5)
H14 H 0.2298 0.5678 0.8830
C17 C 0.3794(11) 0.5815(9) 0.8364(6)
C18 C 0.1666(9) 0.6211(7) 0.7081(6)
H15 H 0.1967 0.6133 0.6755
H16 H 0.1169 0.5917 0.7095
H17 H 0.2037 0.6105 0.7373
C19 C 0.1396(8) 0.6950(7) 0.7112(5)
Zn1G Zn 0.44622(8) 0.83754(8) 0.77113(5)
Zn1E Zn -0.05378(8) 0.66246(8) 0.72887(5)
Zn1B Zn -0.05378(8) 0.83754(8) 0.72887(5)
Zn1E_2 Zn 0.94622(8) 0.66246(8) 0.72887(5)
Zn2G Zn 0.47159(9) 0.96438(8) 0.54951(5)
Zn2D Zn 0.52841(9) 0.46438(8) 0.45049(5)
Zn2E Zn -0.02841(9) 0.53562(8) 0.95049(5)
Zn2A Zn 0.02841(9) 0.46438(8) 1.04951(5)
Zn2C Zn 0.52841(9) 1.03562(8) 0.45049(5)
N1G N 0.3713(6) 0.8346(5) 0.6657(3)
N2G N 0.4299(6) 0.8695(5) 0.6957(3)
N3G N 0.4309(6) 0.9154(5) 0.6161(4)
N5G N 0.0591(6) 0.7852(5) 0.7212(4)
N5E N 0.5591(6) 0.7148(5) 0.7788(4)
N5B N 0.5591(6) 0.7852(5) 0.7788(4)
O1G O 0.4845(6) 0.8789(5) 0.5017(4)
O2G O 0.5242(6) 0.9340(5) 0.4281(4)
O2D O 0.4758(6) 0.4340(5) 0.5719(4)
O2C O 0.4758(6) 1.0660(5) 0.5719(4)
O3E O 0.6006(6) 0.5383(5) 0.5621(4)
O3B O 0.6006(6) 0.9617(5) 0.5621(4)
O4E O 0.6405(6) 0.4826(5) 0.4896(4)
O4A O 0.3595(6) 0.5174(5) 0.5104(4)
O4F O 0.3595(6) 0.9826(5) 0.5104(4)
O5E O 0.8251(9) 0.6053(8) 0.6929(5)
O6E O 0.9565(7) 0.5894(8) 0.6729(4)
O6G O 0.4565(7) 0.9106(8) 0.8271(4)
O9E O 0.9471(13) 0.4248(17) 0.5185(12)
H3E H 0.9830 0.4509 0.5056
C1G C 0.3154(10) 0.8431(8) 0.5742(5)
H4G H 0.3470 0.8155 0.5493
H5G H 0.2684 0.8164 0.5880
H6G H 0.2935 0.8838 0.5568
C2G C 0.3727(8) 0.8643(7) 0.6181(4)
C3G C 0.4644(7) 0.9178(7) 0.6651(4)
C4G C 0.5307(10) 0.9678(8) 0.6828(6)
H7G H 0.5864 0.9469 0.6796
H8G H 0.5282 1.0088 0.6613
H9G H 0.5206 0.9800 0.7191
C5G C 0.5071(8) 0.8802(7) 0.4534(5)
C6G C 0.5112(9) 0.8132(7) 0.4255(5)
C8G C 0.5255(12) 0.8139(8) 0.3706(6)
H11G H 0.5337 0.8557 0.3529
C10E C 0.6553(9) 0.5108(8) 0.5335(5)
C11E C 0.7451(9) 0.5046(10) 0.5538(6)
C12E C 0.8030(13) 0.4666(16) 0.5285(10)
H12E H 0.7869 0.4413 0.4987
C13E C 0.8853(15) 0.464(2) 0.5454(14)
C14E C 0.9129(13) 0.4983(16) 0.5913(10)
H13E H 0.9685 0.4936 0.6041
C15E C 0.8528(9) 0.5391(9) 0.6162(6)
C16E C 0.7701(8) 0.5414(8) 0.5987(5)
H14E H 0.7298 0.5678 0.6170
C17E C 0.8794(11) 0.5815(9) 0.6636(6)
C18G C 0.1666(9) 0.8789(7) 0.7081(6)
H15G H 0.1967 0.8867 0.6755
H16G H 0.1169 0.9083 0.7095
H17G H 0.2037 0.8895 0.7373
C19G C 0.1396(8) 0.8050(7) 0.7112(5)
N6 N 0.6595(13) 0.7500 0.6031(7)
O10 O 0.734(2) 0.7500 0.6892(10)
C20 C 0.676(3) 0.7500 0.5518(16)
C21 C 0.570(2) 0.7500 0.6145(19)
C22 C 0.741(4) 0.7500 0.6424(11)
H18 H 0.7959 0.7500 0.6279
O11 O 0.477(4) 0.2500 0.0635(18)
H19 H 0.5067 0.2500 0.0349
H20 H 0.4235 0.2500 0.0559
O12 O 0.058(4) 0.624(3) 0.263(2)
H21 H 0.0078 0.6244 0.2493
H22 H 0.0919 0.5974 0.2441
O13 O 0.398(4) 0.900(3) 0.084(2)
H23 H 0.3538 0.8748 0.0750
H24 H 0.3805 0.9296 0.1083
H25? H 0.6711 0.7035 0.5384
H26? H 0.7327 0.7672 0.5453
H27? H 0.6349 0.7793 0.5343
H28? H 0.5593 0.7781 0.6451
H29? H 0.5512 0.7033 0.6211
H30? H 0.5391 0.7687 0.5849
loop_
_geom_bond_atom_site_label_1
_geom_bond_atom_site_label_2
_geom_bond_site_symmetry_1
_geom_bond_site_symmetry_2
Zn1 N2 1_555 1_555
Zn2 N3 1_555 1_555
Zn3 N1 1_555 1_555
N1 N2 1_555 1_555
N2 C3 1_555 1_555
N3 C2 1_555 1_555
N4 Zn3 1_555 1_555
N5 C19 1_555 1_555
O1 Zn2 1_555 1_555
O2 C5 1_555 1_555
O3 C10 1_555 1_555
O4 C10 1_555 1_555
O5 C17 1_555 1_555
O6 Zn1 1_555 1_555
O7 Zn1 1_555 1_555
H1 O7 1_555 1_555
O8 H2 1_555 1_555
O9 H3 1_555 1_555
C1 H4 1_555 1_555
H5 C1 1_555 1_555
H6 C1 1_555 1_555
C2 N1 1_555 1_555
C3 N3 1_555 1_555
C4 C3 1_555 1_555
H7 C4 1_555 1_555
H8 C4 1_555 1_555
H9 C4 1_555 1_555
C5 O1 1_555 1_555
C6 C5 1_555 1_555
C7 C6 1_555 1_555
H10 C7 1_555 1_555
C8 C6 1_555 1_555
H11 C8 1_555 1_555
C9 O8 1_555 1_555
C10 C11 1_555 1_555
C11 C12 1_555 1_555
C12 H12 1_555 1_555
C13 O9 1_555 1_555
C14 C13 1_555 1_555
H13 C14 1_555 1_555
C15 C14 1_555 1_555
C16 C11 1_555 1_555
H14 C16 1_555 1_555
C17 O6 1_555 1_555
C18 H15 1_555 1_555
H16 C18 1_555 1_555
H17 C18 1_555 1_555
C19 N4 1_555 1_555
N6 C20 1_555 1_555
O10 C22 1_555 1_555
C21 N6 1_555 1_555
C22 N6 1_555 1_555
H18 C22 1_555 1_555
O11 H19 1_555 1_555
H20 O11 1_555 1_555
O12 H21 1_555 1_555
H22 O12 1_555 1_555
O13 H23 1_555 1_555
H24 O13 1_555 1_555
Zn1G O7 1_555 1_555
Zn1E N5 1_555 1_555
Zn1B N5G 1_555 1_555
Zn1E_2 O6E 1_555 1_555
Zn2G N3G 1_555 1_555
Zn2D O2 1_555 1_555
Zn2E O3 1_555 1_555
Zn2A O4 1_555 1_555
Zn2C O2G 1_555 1_555
N1G Zn3 1_555 1_555
N2G Zn1G 1_555 1_555
N3G C2G 1_555 1_555
N5G N5 1_555 1_555
N5E Zn1 1_555 1_555
N5B Zn1G 1_555 1_555
O1G Zn2G 1_555 1_555
O2G C5G 1_555 1_555
O2D Zn2 1_555 1_555
O2C Zn2G 1_555 1_555
O3E Zn2 1_555 1_555
O3B Zn2G 1_555 1_555
O4E Zn2D 1_555 1_555
O4A Zn2 1_555 1_555
O4F Zn2G 1_555 1_555
O5E C17E 1_555 1_555
O6E C17E 1_555 1_555
O6G Zn1G 1_555 1_555
O9E H3E 1_555 1_555
C1G H4G 1_555 1_555
H5G C1G 1_555 1_555
H6G C1G 1_555 1_555
C2G N1G 1_555 1_555
C3G N2G 1_555 1_555
C4G C3G 1_555 1_555
H7G C4G 1_555 1_555
H8G C4G 1_555 1_555
H9G C4G 1_555 1_555
C5G O1G 1_555 1_555
C6G C7 1_555 1_555
C8G C9 1_555 1_555
H11G C8G 1_555 1_555
C10E O3E 1_555 1_555
C11E C10E 1_555 1_555
C12E C11E 1_555 1_555
H12E C12E 1_555 1_555
C13E O9E 1_555 1_555
C14E C13E 1_555 1_555
H13E C14E 1_555 1_555
C15E C14E 1_555 1_555
C16E C11E 1_555 1_555
H14E C16E 1_555 1_555
C17E C15E 1_555 1_555
C18G H15G 1_555 1_555
H16G C18G 1_555 1_555
H17G C18G 1_555 1_555
C19G N4 1_555 1_555
Zn3 O7 1_555 1_555
C1 C2 1_555 1_555
C8 C9 1_555 1_555
C12 C13 1_555 1_555
C15 C16 1_555 1_555
C15 C17 1_555 1_555
C18 C19 1_555 1_555
N1G N2G 1_555 1_555
N3G C3G 1_555 1_555
N5G C19G 1_555 1_555
N5E N5B 1_555 1_555
O4E C10E 1_555 1_555
C1G C2G 1_555 1_555
C5G C6G 1_555 1_555
C6G C8G 1_555 1_555
C12E C13E 1_555 1_555
C15E C16E 1_555 1_555
C18G C19G 1_555 1_555

#END
