
#######################################################################
#
#                 Cambridge Crystallographic Data Centre
#                                CCDC 
#
#######################################################################
#
# If this CIF has been generated from an entry in the Cambridge 
# Structural Database, then it will include bibliographic, chemical, 
# crystal, experimental, refinement or atomic coordinate data resulting 
# from the CCDC's data processing and validation procedures.
#
#######################################################################

data_CAVTAW
_symmetry_cell_setting           monoclinic
_symmetry_space_group_name_H-M   'P 21'
_symmetry_Int_Tables_number      4
_space_group_name_Hall           'P 2yb'
loop_
_symmetry_equiv_pos_site_id
_symmetry_equiv_pos_as_xyz
1 x,y,z
2 -x,1/2+y,-z
_cell_length_a                   12.5035(6)
_cell_length_b                   18.1874(10)
_cell_length_c                   5.82000(33)
_cell_angle_alpha                90
_cell_angle_beta                 101.923(4)
_cell_angle_gamma                90
_cell_volume                     1294.95
loop_
_atom_site_label
_atom_site_type_symbol
_atom_site_fract_x
_atom_site_fract_y
_atom_site_fract_z
La1 La 0.6695(4) 0.2500 0.3763(11)
P1 P 0.4652(16) 0.0889(13) 0.180(5)
P2 P -0.2521(14) 0.1126(11) 0.914(4)
O1 O 0.4299(30) 0.0892(24) -0.086(5)
O2 O 0.4996(22) 0.1682(16) 0.259(8)
O3 O 0.5493(26) 0.0301(19) 0.278(8)
O4 O -0.1270(16) 0.1066(24) 0.931(9)
O5 O -0.3049(35) 0.1630(20) 0.710(6)
O6 O -0.2815(31) 0.1341(15) 1.151(5)
C1 C 0.3484(23) 0.0732(23) 0.319(7)
C2 C -0.3091(33) 0.0229(14) 0.833(6)
N1 N 0.2429(19) 0.0320(16) 0.287(6)
C3 C 0.1529(28) 0.0878(23) 0.274(7)
C4 C 0.1237(30) 0.0992(24) 0.510(8)
C5 C 0.0166(34) 0.0652(25) 0.524(10)
P3 P -0.4468(15) -0.1014(12) 0.797(5)
P4 P 0.2068(15) -0.1196(10) 0.073(4)
O7 O -0.4326(30) -0.1341(22) 1.045(5)
O8 O -0.5169(25) -0.1514(18) 0.602(6)
O9 O -0.4922(27) -0.0241(15) 0.767(8)
O10 O 0.0820(17) -0.1320(24) 0.041(8)
O11 O 0.268(4) -0.1532(21) 0.306(6)
O12 O 0.2484(31) -0.1513(19) -0.140(6)
C6 C -0.3115(20) -0.1057(15) 0.721(8)
C7 C 0.2312(34) -0.0217(10) 0.087(7)
N2 N -0.3003(28) -0.0285(17) 0.636(6)
C8 C -0.2093(33) -0.0137(26) 0.510(6)
C9 C -0.0970(33) -0.0373(28) 0.643(10)
C10 C -0.001(4) -0.0151(25) 0.541(13)
La1_2 La -0.3305(4) 0.2500 0.3763(11)
La1_3 La -0.3305(4) 0.2500 1.3763(11)
La1A La -0.6695(4) -0.2500 0.6237(11)
La1A_2 La 0.3305(4) -0.2500 -0.3763(11)
La1A_3 La 0.3305(4) -0.2500 0.6237(11)
O5_2 O 0.6951(35) 0.1630(20) 0.710(6)
O6_2 O 0.7185(31) 0.1341(15) 0.151(5)
O8A O 0.5169(25) 0.3486(18) 0.398(6)
O11A O 0.732(4) 0.3468(21) 0.694(6)
O12A O 0.7516(31) 0.3487(19) 0.140(6)
O13 O 0.0549(30) 0.257(5) 0.104(7)
O14 O 0.2776(29) 0.2722(29) 0.574(7)
loop_
_geom_bond_atom_site_label_1
_geom_bond_atom_site_label_2
_geom_bond_site_symmetry_1
_geom_bond_site_symmetry_2
La1 O2 1_555 1_555
P1 O1 1_555 1_555
P2 O4 1_555 1_555
O2 P1 1_555 1_555
O3 P1 1_555 1_555
O5 P2 1_555 1_555
O6 P2 1_555 1_555
C1 P1 1_555 1_555
C2 P2 1_555 1_555
N1 C1 1_555 1_555
C3 N1 1_555 1_555
C4 C3 1_555 1_555
C5 C4 1_555 1_555
P3 O7 1_555 1_555
P4 O10 1_555 1_555
O8 P3 1_555 1_555
O9 P3 1_555 1_555
O11 P4 1_555 1_555
O12 P4 1_555 1_555
C6 P3 1_555 1_555
C7 N1 1_555 1_555
N2 C2 1_555 1_555
C8 N2 1_555 1_555
C9 C8 1_555 1_555
C10 C5 1_555 1_555
La1_2 O5 1_555 1_555
La1_3 O6 1_555 1_555
La1A O8 1_555 1_555
La1A_2 O12 1_555 1_555
La1A_3 O11 1_555 1_555
O5_2 La1 1_555 1_555
O6_2 La1 1_555 1_555
O8A La1 1_555 1_555
O11A La1 1_555 1_555
O12A La1 1_555 1_555
P4 C7 1_555 1_555
C6 N2 1_555 1_555
C9 C10 1_555 1_555

#END
