
#######################################################################
#
#                 Cambridge Crystallographic Data Centre
#                                CCDC 
#
#######################################################################
#
# If this CIF has been generated from an entry in the Cambridge 
# Structural Database, then it will include bibliographic, chemical, 
# crystal, experimental, refinement or atomic coordinate data resulting 
# from the CCDC's data processing and validation procedures.
#
#######################################################################

data_CAVVUS
_symmetry_cell_setting           monoclinic
_symmetry_space_group_name_H-M   'P 21/n'
_symmetry_Int_Tables_number      14
_space_group_name_Hall           '-P 2yn'
loop_
_symmetry_equiv_pos_site_id
_symmetry_equiv_pos_as_xyz
1 x,y,z
2 1/2-x,1/2+y,1/2-z
3 -x,-y,-z
4 1/2+x,1/2-y,1/2+z
_cell_length_a                   10.7666(15)
_cell_length_b                   16.462(2)
_cell_length_c                   17.912(3)
_cell_angle_alpha                90
_cell_angle_beta                 91.098(2)
_cell_angle_gamma                90
_cell_volume                     3174.14
loop_
_atom_site_label
_atom_site_type_symbol
_atom_site_fract_x
_atom_site_fract_y
_atom_site_fract_z
Zn1 Zn 0.07851(5) 0.55672(3) -0.08887(3)
Zn2 Zn -0.38428(5) 0.54334(3) -0.08384(3)
P1 P -0.14551(11) 0.43135(7) -0.08550(6)
P2 P 0.15533(11) 0.95375(7) -0.40947(6)
O1 O -0.2857(3) 0.44564(18) -0.08472(18)
O2 O -0.0775(3) 0.5058(2) -0.1119(2)
O3 O -0.0969(3) 0.3983(2) -0.01119(18)
O4 O -0.1405(3) 0.1391(2) -0.35379(19)
O5 O -0.0857(5) 0.0686(2) -0.2547(2)
O6 O -0.0461(4) 0.7102(3) -0.1308(3)
O7 O 0.1189(3) 0.6410(2) -0.16323(18)
O8 O 0.0635(3) 1.02364(19) -0.40301(18)
O9 O 0.2880(3) 0.9797(2) -0.3970(2)
O10 O 0.1356(3) 0.90749(19) -0.48342(17)
C1 C -0.1261(4) 0.3483(3) -0.1502(2)
C2 C -0.0347(5) 0.2894(3) -0.1369(3)
H1 H 0.0232 0.2969 -0.0984
C3 C -0.0296(5) 0.2204(3) -0.1804(3)
H2 H 0.0291 0.1805 -0.1696
C4 C -0.1123(5) 0.2106(3) -0.2404(3)
C5 C -0.1995(5) 0.2704(3) -0.2561(3)
H3 H -0.2528 0.2655 -0.2973
C6 C -0.2066(5) 0.3381(3) -0.2095(3)
H4 H -0.2675 0.3771 -0.2188
C7 C -0.1111(5) 0.1330(3) -0.2844(3)
C8 C 0.1244(4) 0.8800(3) -0.3372(3)
C9 C 0.0431(5) 0.8967(3) -0.2802(3)
H5 H 0.0039 0.9470 -0.2785
C10 C 0.0195(5) 0.8397(3) -0.2261(3)
H6 H -0.0359 0.8518 -0.1885
C11 C 0.0774(5) 0.7644(3) -0.2269(3)
C12 C 0.1615(5) 0.7488(3) -0.2819(3)
H7 H 0.2046 0.6998 -0.2815
C13 C 0.1829(5) 0.8049(3) -0.3380(3)
H8 H 0.2367 0.7921 -0.3763
C14 C 0.0461(5) 0.7018(3) -0.1687(3)
Zn1B Zn -0.07851(5) 0.44328(3) 0.08887(3)
Zn1A Zn 0.42149(5) 1.05672(3) -0.41113(3)
Zn2A Zn -0.11572(5) 0.04334(3) -0.41616(3)
Zn2A_2 Zn -0.11572(5) 1.04334(3) -0.41616(3)
Zn2C Zn 0.11572(5) 0.95666(3) -0.58384(3)
O3B O 0.0969(3) 0.6017(2) 0.01119(18)
O4A O -0.3595(3) 0.6391(2) -0.14621(19)
O8A O -0.5635(3) 0.52364(19) -0.09699(18)
O9A O 0.2120(3) 0.4797(2) -0.1030(2)
O10C O -0.3644(3) 0.59251(19) 0.01658(17)
Zn3 Zn -0.38038(6) 0.22854(4) 0.03568(4)
N1 N -0.3768(5) 0.1328(3) -0.0454(3)
N2 N -0.3619(5) 0.1253(3) 0.1028(3)
C15 C -0.3839(7) 0.1428(5) -0.1187(4)
H9 H -0.4025 0.1942 -0.1372
C16 C -0.3648(8) 0.0801(6) -0.1697(5)
H10 H -0.3684 0.0887 -0.2210
C17 C -0.3399(9) 0.0035(7) -0.1389(8)
H11 H -0.3282 -0.0407 -0.1702
C18 C -0.3327(9) -0.0068(5) -0.0639(6)
H12 H -0.3156 -0.0580 -0.0443
C19 C -0.3508(6) 0.0593(4) -0.0156(4)
C20 C -0.3450(6) 0.0547(4) 0.0663(4)
C21 C -0.3307(9) -0.0161(5) 0.1088(6)
H13 H -0.3197 -0.0657 0.0851
C22 C -0.3328(9) -0.0126(6) 0.1851(6)
H14 H -0.3175 -0.0593 0.2130
C23 C -0.3570(8) 0.0579(5) 0.2200(5)
H15 H -0.3659 0.0602 0.2715
C24 C -0.3677(6) 0.1256(4) 0.1766(4)
H16 H -0.3799 0.1752 0.2002
O11 O -0.1880(4) 0.2424(3) 0.0227(3)
H17 H -0.133(4) 0.206(2) 0.026(4)
H18 H -0.155(5) 0.2884(17) 0.026(4)
O12 O -0.3616(4) 0.3150(2) 0.1247(2)
H19 H -0.287(3) 0.322(3) 0.140(4)
H20 H -0.385(5) 0.3649(18) 0.114(4)
O13 O -0.4234(4) 0.3151(2) -0.0391(3)
H21 H -0.490(3) 0.335(3) -0.025(4)
H22 H -0.381(5) 0.352(3) -0.059(4)
O14 O -0.5767(4) 0.2256(3) 0.0631(3)
H23 H -0.647(3) 0.204(4) 0.066(4)
H24 H -0.580(6) 0.268(3) 0.091(3)
O15 O -1.0035(8) 0.1240(4) 0.0164(4)
H25 H -1.000(12) 0.104(7) -0.027(2)
H26 H -0.960(10) 0.093(6) 0.044(5)
O16 O -0.8112(6) 0.2717(5) 0.0080(3)
H27 H -0.819(10) 0.2181(16) 0.002(5)
H28 H -0.851(8) 0.279(5) 0.049(3)
O17 O -0.4947(8) 0.5222(5) 0.6085(4)
H29 H -0.425(6) 0.516(10) 0.588(6)
H30 H -0.478(11) 0.536(8) 0.653(3)
loop_
_geom_bond_atom_site_label_1
_geom_bond_atom_site_label_2
_geom_bond_site_symmetry_1
_geom_bond_site_symmetry_2
Zn1 O2 1_555 1_555
Zn2 O1 1_555 1_555
Zn3 N1 1_555 1_555
P1 O1 1_555 1_555
P2 O8 1_555 1_555
O2 P1 1_555 1_555
O3 P1 1_555 1_555
O4 C7 1_555 1_555
O5 C7 1_555 1_555
O6 C14 1_555 1_555
O7 Zn1 1_555 1_555
O8 Zn2A_2 1_555 1_555
O9 P2 1_555 1_555
O10 P2 1_555 1_555
C1 P1 1_555 1_555
C2 C1 1_555 1_555
H1 C2 1_555 1_555
C3 C2 1_555 1_555
H2 C3 1_555 1_555
C4 C3 1_555 1_555
C5 C4 1_555 1_555
H3 C5 1_555 1_555
C6 C1 1_555 1_555
H4 C6 1_555 1_555
C7 C4 1_555 1_555
C8 P2 1_555 1_555
C9 C8 1_555 1_555
H5 C9 1_555 1_555
C10 C9 1_555 1_555
H6 C10 1_555 1_555
C11 C10 1_555 1_555
C12 C11 1_555 1_555
H7 C12 1_555 1_555
C13 C8 1_555 1_555
H8 C13 1_555 1_555
C14 O7 1_555 1_555
N1 C15 1_555 1_555
N2 Zn3 1_555 1_555
C15 H9 1_555 1_555
C16 C15 1_555 1_555
H10 C16 1_555 1_555
C17 C16 1_555 1_555
H11 C17 1_555 1_555
C18 C17 1_555 1_555
H12 C18 1_555 1_555
C19 N1 1_555 1_555
C20 N2 1_555 1_555
C21 C20 1_555 1_555
H13 C21 1_555 1_555
C22 C21 1_555 1_555
H14 C22 1_555 1_555
C23 C22 1_555 1_555
H15 C23 1_555 1_555
C24 N2 1_555 1_555
H16 C24 1_555 1_555
O11 Zn3 1_555 1_555
H17 O11 1_555 1_555
H18 O11 1_555 1_555
O12 Zn3 1_555 1_555
H19 O12 1_555 1_555
H20 O12 1_555 1_555
O13 Zn3 1_555 1_555
H21 O13 1_555 1_555
H22 O13 1_555 1_555
O14 Zn3 1_555 1_555
H23 O14 1_555 1_555
H24 O14 1_555 1_555
O15 H25 1_555 1_555
H26 O15 1_555 1_555
O16 H27 1_555 1_555
H28 O16 1_555 1_555
O17 H29 1_555 1_555
H30 O17 1_555 1_555
Zn1B O3 1_555 1_555
Zn1A O9 1_555 1_555
Zn2A O4 1_555 1_555
Zn2C O10 1_555 1_555
O3B Zn1 1_555 1_555
O4A Zn2 1_555 1_555
O8A Zn2 1_555 1_555
O9A Zn1 1_555 1_555
O10C Zn2 1_555 1_555
C5 C6 1_555 1_555
C11 C14 1_555 1_555
C12 C13 1_555 1_555
C18 C19 1_555 1_555
C19 C20 1_555 1_555
C23 C24 1_555 1_555

#END
