
#######################################################################
#
#                 Cambridge Crystallographic Data Centre
#                                CCDC 
#
#######################################################################
#
# If this CIF has been generated from an entry in the Cambridge 
# Structural Database, then it will include bibliographic, chemical, 
# crystal, experimental, refinement or atomic coordinate data resulting 
# from the CCDC's data processing and validation procedures.
#
#######################################################################

data_CAXTUS
_symmetry_cell_setting           hexagonal
_symmetry_space_group_name_H-M   'P 65 2 2'
_symmetry_Int_Tables_number      179
_space_group_name_Hall           "P 65 2' (0,0,1)"
loop_
_symmetry_equiv_pos_site_id
_symmetry_equiv_pos_as_xyz
1 x,y,z
2 x-y,x,5/6+z
3 -y,x-y,2/3+z
4 -x,-y,1/2+z
5 -x+y,-x,1/3+z
6 y,-x+y,1/6+z
7 -y,-x,1/6-z
8 x-y,-y,-z
9 x,x-y,5/6-z
10 y,x,2/3-z
11 -x+y,y,1/2-z
12 -x,-x+y,1/3-z
_cell_length_a                   24.057(3)
_cell_length_b                   24.057(3)
_cell_length_c                   26.996(5)
_cell_angle_alpha                90
_cell_angle_beta                 90
_cell_angle_gamma                120
_cell_volume                     13530.5
loop_
_atom_site_label
_atom_site_type_symbol
_atom_site_fract_x
_atom_site_fract_y
_atom_site_fract_z
Zn1 Zn 0.534630(9) 0.456531(9) 0.020726(7)
S1 S 0.54390(5) 0.54390(5) -0.1667
O1 O 0.51184(9) 0.43904(8) -0.04923(5)
O2 O 0.49334(9) 0.36941(6) 0.04965(6)
O3 O 0.50654(7) 0.37519(10) 0.13014(6)
O4 O 0.48471(11) -0.50480(11) 0.04318(7)
O5 O 0.5769(2) 0.54038(14) -0.05961(12)
C1 C 0.48770(10) 0.34584(8) 0.09106(7)
C2 C 0.45320(12) 0.27333(9) 0.09428(7)
C3 C 0.42618(17) 0.23695(11) 0.05099(9)
H1 H 0.4307 0.2575 0.0209
C4 C 0.44580(14) 0.24208(10) 0.13816(9)
H2 H 0.4631 0.2655 0.1671
C5 C 0.41248(14) 0.17550(10) 0.13970(9)
H3 H 0.4094 0.1548 0.1695
C6 C 0.38370(14) 0.13940(10) 0.09776(9)
C7 C 0.39360(19) 0.17184(11) 0.05329(10)
H4 H 0.3775 0.1484 0.0242
C8 C 0.34415(12) 0.06780(9) 0.09920(8)
C9 C 0.36143(11) 0.03123(10) 0.12795(8)
H5 H 0.3966 0.0512 0.1490
C10 C 0.32598(9) -0.03581(9) 0.12539(8)
H6 H 0.3379 -0.0598 0.1452
C11 C 0.27373(9) -0.06736(8) 0.09423(7)
C12 C 0.25564(13) -0.03005(11) 0.06694(11)
H7 H 0.2197 -0.0500 0.0466
C13 C 0.29003(15) 0.03602(11) 0.06944(11)
H8 H 0.2767 0.0598 0.0508
C14 C 0.23843(9) -0.13793(8) 0.08916(7)
C15 C 0.17178(6) -0.17178(6) 0.0833
H9 H 0.1495 -0.1495 0.0833
C16 C 0.27162(8) -0.17167(9) 0.08888(7)
H10 H 0.3160 -0.1496 0.0924
C17 C 0.23855(6) -0.23855(6) 0.0833
C18 C 0.27450(6) -0.27450(6) 0.0833
C19 C 0.33013(11) -0.25301(11) 0.11080(10)
H11 H 0.3455 -0.2158 0.1296
C20 C 0.36340(13) -0.28668(13) 0.11057(11)
H12 H 0.4007 -0.2714 0.1292
C21 C 0.34212(7) -0.34212(7) 0.0833
C22 C 0.37772(7) -0.37772(7) 0.0833
C23 C 0.41267(17) -0.37744(18) 0.12458(12)
H13 H 0.4138 -0.3539 0.1523
C24 C 0.48159(7) -0.48159(7) 0.0833
C25 C 0.44576(7) -0.44576(7) 0.0833
C26 C 0.44591(16) -0.41099(17) 0.12588(12)
H14 H 0.4680 -0.4106 0.1543
C27 C 0.50502(14) 0.48319(14) -0.12472(9)
C28 C 0.44964(15) 0.43649(14) -0.14398(10)
H15 H 0.4228 0.3985 -0.1273
C29 C 0.53379(16) 0.48932(15) -0.07411(10)
Zn1I Zn 0.456531(9) 0.534630(9) -0.354059(7)
Zn1F Zn 0.543469(9) 0.465370(9) 0.145941(7)
Zn1_2 Zn 0.534630(9) -0.543469(9) 0.020726(7)
Zn1F_2 Zn -0.456531(9) -0.534630(9) 0.145941(7)
Zn1_3 Zn -0.465370(9) -0.543469(9) 0.020726(7)
Zn1F_3 Zn 0.543469(9) -0.534630(9) 0.145941(7)
O1I O 0.43904(8) 0.51184(9) -0.28410(5)
O2F O -0.36941(6) -0.49334(9) 0.11702(6)
O2I O 0.36941(6) 0.49334(9) -0.38298(6)
O3F O -0.37519(10) -0.50654(7) 0.03653(6)
O3F_2 O 0.62481(10) 0.49346(7) 0.03653(6)
O3C O 0.49346(7) 0.62481(10) -0.36986(6)
O4F O 0.50480(11) -0.48471(11) 0.12349(7)
O4_2 O 0.48471(11) 0.49520(11) 0.04318(7)
O4I O 0.49520(11) 0.48471(11) -0.37651(7)
O5I O 0.54038(14) 0.5769(2) -0.27372(12)
C1F C -0.34584(8) -0.48770(10) 0.07561(7)
C2F C -0.27333(9) -0.45320(12) 0.07239(7)
C3F C -0.23695(11) -0.42618(17) 0.11568(9)
H1F H -0.2575 -0.4307 0.1458
C4F C -0.24208(10) -0.44580(14) 0.02851(9)
H2F H -0.2655 -0.4631 -0.0004
C5F C -0.17550(10) -0.41248(14) 0.02697(9)
H3F H -0.1548 -0.4094 -0.0028
C6F C -0.13940(10) -0.38370(14) 0.06891(9)
C7F C -0.17184(11) -0.39360(19) 0.11338(10)
H4F H -0.1484 -0.3775 0.1425
C8F C -0.06780(9) -0.34415(12) 0.06747(8)
C9F C -0.03123(10) -0.36143(11) 0.03872(8)
H5F H -0.0512 -0.3966 0.0177
C10F C 0.03581(9) -0.32598(9) 0.04128(8)
H6F H 0.0598 -0.3379 0.0215
C11F C 0.06736(8) -0.27373(9) 0.07244(7)
C12F C 0.03005(11) -0.25564(13) 0.09973(11)
H7F H 0.0500 -0.2197 0.1201
C13F C -0.03602(11) -0.29003(15) 0.09723(11)
H8F H -0.0598 -0.2767 0.1159
C14F C 0.13793(8) -0.23843(9) 0.07751(7)
C16F C 0.17167(9) -0.27162(8) 0.07779(7)
H10F H 0.1496 -0.3160 0.0743
C19F C 0.25301(11) -0.33013(11) 0.05587(10)
H11F H 0.2158 -0.3455 0.0371
C20F C 0.28668(13) -0.36340(13) 0.05610(11)
H12F H 0.2714 -0.4007 0.0375
C23F C 0.37744(18) -0.41267(17) 0.04209(12)
H13F H 0.3539 -0.4138 0.0144
C26F C 0.41099(17) -0.44591(16) 0.04079(12)
H14F H 0.4106 -0.4680 0.0124
C27I C 0.48319(14) 0.50502(14) -0.20861(9)
C28I C 0.43649(14) 0.44964(15) -0.18935(10)
H15I H 0.3985 0.4228 -0.2060
C29I C 0.48932(15) 0.53379(16) -0.25922(10)
loop_
_geom_bond_atom_site_label_1
_geom_bond_atom_site_label_2
_geom_bond_site_symmetry_1
_geom_bond_site_symmetry_2
Zn1 O1 1_555 1_555
S1 C27 1_555 1_555
O1 C29 1_555 1_555
O2 Zn1 1_555 1_555
O3 C1 1_555 1_555
O4 C24 1_555 1_555
O5 C29 1_555 1_555
C1 O2 1_555 1_555
C2 C1 1_555 1_555
C3 C2 1_555 1_555
H1 C3 1_555 1_555
C4 C2 1_555 1_555
H2 C4 1_555 1_555
C5 C4 1_555 1_555
H3 C5 1_555 1_555
C6 C5 1_555 1_555
C7 C3 1_555 1_555
H4 C7 1_555 1_555
C8 C6 1_555 1_555
C9 C8 1_555 1_555
H5 C9 1_555 1_555
C10 C9 1_555 1_555
H6 C10 1_555 1_555
C11 C10 1_555 1_555
C12 C11 1_555 1_555
H7 C12 1_555 1_555
C13 C8 1_555 1_555
H8 C13 1_555 1_555
C14 C11 1_555 1_555
C15 C14 1_555 1_555
H9 C15 1_555 1_555
C16 C14 1_555 1_555
H10 C16 1_555 1_555
C17 C16 1_555 1_555
C18 C17 1_555 1_555
C19 C18 1_555 1_555
H11 C19 1_555 1_555
C20 C19 1_555 1_555
H12 C20 1_555 1_555
C21 C20 1_555 1_555
C22 C21 1_555 1_555
C23 C22 1_555 1_555
H13 C23 1_555 1_555
C24 C25 1_555 1_555
C25 C26 1_555 1_555
C26 C23 1_555 1_555
H14 C26 1_555 1_555
C27 C28 1_555 1_555
C28 H15 1_555 1_555
C29 C27 1_555 1_555
Zn1I O1I 1_555 1_555
Zn1F O3 1_555 1_555
Zn1_2 O4 1_555 1_555
Zn1F_2 O2F 1_555 1_555
Zn1_3 O3F 1_555 1_555
Zn1F_3 O4F 1_555 1_555
O1I C29I 1_555 1_555
O2F C1F 1_555 1_555
O2I Zn1I 1_555 1_555
O3F C1F 1_555 1_555
O3F_2 Zn1 1_555 1_555
O3C Zn1I 1_555 1_555
O4F C24 1_555 1_555
O4_2 Zn1 1_555 1_555
O4I Zn1I 1_555 1_555
O5I C29I 1_555 1_555
C1F C2F 1_555 1_555
C2F C3F 1_555 1_555
C3F H1F 1_555 1_555
C4F C2F 1_555 1_555
H2F C4F 1_555 1_555
C5F C4F 1_555 1_555
H3F C5F 1_555 1_555
C6F C5F 1_555 1_555
C7F C3F 1_555 1_555
H4F C7F 1_555 1_555
C8F C6F 1_555 1_555
C9F C8F 1_555 1_555
H5F C9F 1_555 1_555
C10F C9F 1_555 1_555
H6F C10F 1_555 1_555
C11F C10F 1_555 1_555
C12F C11F 1_555 1_555
H7F C12F 1_555 1_555
C13F C8F 1_555 1_555
H8F C13F 1_555 1_555
C14F C15 1_555 1_555
C16F C17 1_555 1_555
H10F C16F 1_555 1_555
C19F C18 1_555 1_555
H11F C19F 1_555 1_555
C20F C21 1_555 1_555
H12F C20F 1_555 1_555
C23F C22 1_555 1_555
H13F C23F 1_555 1_555
C26F C25 1_555 1_555
H14F C26F 1_555 1_555
C27I S1 1_555 1_555
C28I C28 1_555 1_555
H15I C28I 1_555 1_555
C29I C27I 1_555 1_555
C6 C7 1_555 1_555
C12 C13 1_555 1_555
C6F C7F 1_555 1_555
C11F C14F 1_555 1_555
C12F C13F 1_555 1_555
C14F C16F 1_555 1_555
C19F C20F 1_555 1_555
C23F C26F 1_555 1_555
C27I C28I 1_555 1_555

#END
