
#######################################################################
#
#                 Cambridge Crystallographic Data Centre
#                                CCDC 
#
#######################################################################
#
# If this CIF has been generated from an entry in the Cambridge 
# Structural Database, then it will include bibliographic, chemical, 
# crystal, experimental, refinement or atomic coordinate data resulting 
# from the CCDC's data processing and validation procedures.
#
#######################################################################

data_CEHKUW
_symmetry_cell_setting           tetragonal
_symmetry_space_group_name_H-M   'P 43 2 2'
_symmetry_Int_Tables_number      95
_space_group_name_Hall           'P 4cw 2c'
loop_
_symmetry_equiv_pos_site_id
_symmetry_equiv_pos_as_xyz
1 x,y,z
2 -x,-y,1/2+z
3 -y,x,3/4+z
4 y,-x,1/4+z
5 -x,y,-z
6 x,-y,1/2-z
7 y,x,1/4-z
8 -y,-x,3/4-z
_cell_length_a                   10.3503(4)
_cell_length_b                   10.3503(4)
_cell_length_c                   52.557(3)
_cell_angle_alpha                90
_cell_angle_beta                 90
_cell_angle_gamma                90
_cell_volume                     5630.36
loop_
_atom_site_label
_atom_site_type_symbol
_atom_site_fract_x
_atom_site_fract_y
_atom_site_fract_z
Cd1 Cd 0.35845(4) 1.05972(4) 1.023612(7)
Cd2 Cd 0.14533(5) 1.24293(5) 0.828830(8)
N1 N 0.247(2) 0.824(3) 0.7908(6)
O1 O 0.3595(5) 1.0037(5) 0.98233(8)
O2 O 0.4714(5) 1.0718(6) 0.94956(9)
O3 O 0.2580(6) 1.1836(9) 0.86790(10)
O4 O 0.0516(6) 1.1824(8) 0.86602(10)
O5 O -0.1318(5) 1.0874(6) 0.97835(8)
O6 O -0.2149(4) 1.0648(5) 0.93981(8)
O7 O 0.3418(6) 0.8485(5) 1.03678(9)
O8 O 0.3315(7) 0.6709(5) 1.05928(10)
O9 O 0.4088(6) 0.2579(5) 1.01150(12)
O10 O 0.2077(8) 1.0510(7) 0.81017(16)
O11 O 0.0850(7) 1.4509(9) 0.84069(13)
C1 C 0.3682(6) 1.0507(7) 0.96051(11)
C2 C 0.2449(6) 1.0802(7) 0.94595(12)
C3 C 0.2548(6) 1.1117(8) 0.92059(13)
H1 H 0.3359 1.1199 0.9131
C4 C 0.1423(7) 1.1320(7) 0.90571(11)
C5 C 0.0233(6) 1.1185(7) 0.91704(11)
H2 H -0.0511 1.1271 0.9073
C6 C 0.0125(6) 1.0920(6) 0.94301(11)
C7 C 0.1238(6) 1.0725(6) 0.95758(11)
H3 H 0.1173 1.0545 0.9749
C8 C 0.1521(7) 1.1666(9) 0.87792(12)
C9 C -0.1179(6) 1.0805(6) 0.95441(12)
C10 C 0.3659(7) 0.7297(6) 1.03987(13)
C11 C 0.4336(7) 0.6578(6) 1.01885(11)
C12 C 0.5000 0.7260(8) 1.0000
H4 H 0.5000 0.8159 1.0000
C13 C 0.4356(7) 0.5245(6) 1.01879(11)
H5 H 0.3931 0.4791 1.0316
C14 C 0.5000 0.4584(9) 1.0000
C15 C 0.5000 0.3110(8) 1.0000
C16 C 0.212(2) 0.933(3) 0.8054(11)
H6 H 0.1669 0.8970 0.8190
C17 C 0.228(3) 0.885(3) 0.7673(5)
H7 H 0.2428 0.8243 0.7538
H8 H 0.2870 0.9560 0.7657
H9 H 0.1408 0.9164 0.7663
C18 C 0.269(3) 0.744(4) 0.8119(6)
H10 H 0.2554 0.7928 0.8272
H11 H 0.3566 0.7133 0.8115
H12 H 0.2108 0.6723 0.8114
Cd1D Cd 0.64155(4) 1.05972(4) 0.976388(7)
Cd1D_2 Cd -0.35845(4) 1.05972(4) 0.976388(7)
Cd1_2 Cd 0.35845(4) 0.05972(4) 1.023612(7)
Cd1D_3 Cd 0.64155(4) 0.05972(4) 0.976388(7)
Cd1_3 Cd 1.35845(4) 1.05972(4) 1.023612(7)
Cd2D Cd 0.85467(5) 1.24293(5) 1.171170(8)
Cd2G Cd -0.24293(5) 0.85467(5) 0.921170(8)
Cd2C Cd 0.24293(5) 0.85467(5) 1.078830(8)
Cd2G_2 Cd 0.75707(5) 0.85467(5) 0.921170(8)
Cd2C_2 Cd 1.24293(5) 0.85467(5) 1.078830(8)
N1D N 0.753(2) 0.824(3) 1.2092(6)
O1D O 0.6405(5) 1.0037(5) 1.01767(8)
O2D O 0.5286(5) 1.0718(6) 1.05044(9)
O3D O 0.7420(6) 1.1836(9) 1.13210(10)
O4D O 0.9484(6) 1.1824(8) 1.13398(10)
O5D O 1.1318(5) 1.0874(6) 1.02165(8)
O5D_2 O 0.1318(5) 1.0874(6) 1.02165(8)
O5_2 O 0.8682(5) 1.0874(6) 0.97835(8)
O6D O 1.2149(4) 1.0648(5) 1.06019(8)
O6D_2 O 0.2149(4) 1.0648(5) 1.06019(8)
O6G O -0.0648(5) 1.2149(4) 0.81019(8)
O6_2 O 0.7851(4) 1.0648(5) 0.93981(8)
O6C O 1.0648(5) 1.2149(4) 1.18981(8)
O7D O 0.6582(6) 0.8485(5) 0.96322(9)
O7B O 0.1515(5) 1.3418(6) 0.78678(9)
O7F O 0.8485(5) 1.3418(6) 1.21322(9)
O8D O 0.6685(7) 0.6709(5) 0.94072(10)
O8B O 0.3291(5) 1.3315(7) 0.80928(10)
O8F O 0.6709(5) 1.3315(7) 1.19072(10)
O9D O 0.5912(6) 0.2579(5) 0.98850(12)
O9_2 O 0.4088(6) 1.2579(5) 1.01150(12)
O9D_2 O 0.5912(6) 1.2579(5) 0.98850(12)
O10D O 0.7923(8) 1.0510(7) 1.18983(16)
O11D O 0.9150(7) 1.4509(9) 1.15931(13)
C1D C 0.6318(6) 1.0507(7) 1.03949(11)
C2D C 0.7551(6) 1.0802(7) 1.05405(12)
C3D C 0.7452(6) 1.1117(8) 1.07941(13)
H1D H 0.6641 1.1199 1.0869
C4D C 0.8577(7) 1.1320(7) 1.09429(11)
C5D C 0.9767(6) 1.1185(7) 1.08296(11)
H2D H 1.0511 1.1271 1.0927
C6D C 0.9875(6) 1.0920(6) 1.05699(11)
C7D C 0.8762(6) 1.0725(6) 1.04242(11)
H3D H 0.8827 1.0545 1.0251
C8D C 0.8479(7) 1.1666(9) 1.12208(12)
C9D C 1.1179(6) 1.0805(6) 1.04559(12)
C10D C 0.6341(7) 0.7297(6) 0.96013(13)
C11D C 0.5664(7) 0.6578(6) 0.98115(11)
C13D C 0.5644(7) 0.5245(6) 0.98121(11)
H5D H 0.6069 0.4791 0.9684
C16D C 0.788(2) 0.933(3) 1.1946(11)
H6D H 0.8331 0.8970 1.1810
C17D C 0.772(3) 0.885(3) 1.2327(5)
H7D H 0.7572 0.8243 1.2462
H8D H 0.7130 0.9560 1.2343
H9D H 0.8592 0.9164 1.2337
C18D C 0.731(3) 0.744(4) 1.1881(6)
H10D H 0.7446 0.7928 1.1728
H11D H 0.6434 0.7133 1.1885
H12D H 0.7892 0.6723 1.1886
O12 O 0.379(3) 0.379(3) 0.1250
loop_
_geom_bond_atom_site_label_1
_geom_bond_atom_site_label_2
_geom_bond_site_symmetry_1
_geom_bond_site_symmetry_2
Cd1 O1 1_555 1_555
Cd2 O3 1_555 1_555
N1 C16 1_555 1_555
O1 C1 1_555 1_555
O2 C1 1_555 1_555
O3 C8 1_555 1_555
O4 Cd2 1_555 1_555
O5 C9 1_555 1_555
O6 C9 1_555 1_555
O7 Cd1 1_555 1_555
O8 C10 1_555 1_555
O9 C15 1_555 1_555
O10 Cd2 1_555 1_555
O11 Cd2 1_555 1_555
C1 C2 1_555 1_555
C2 C3 1_555 1_555
C3 H1 1_555 1_555
C4 C3 1_555 1_555
C5 C4 1_555 1_555
H2 C5 1_555 1_555
C6 C5 1_555 1_555
C7 C2 1_555 1_555
H3 C7 1_555 1_555
C8 O4 1_555 1_555
C9 C6 1_555 1_555
C10 O7 1_555 1_555
C11 C10 1_555 1_555
C12 C11 1_555 1_555
H4 C12 1_555 1_555
C13 C11 1_555 1_555
H5 C13 1_555 1_555
C14 C13 1_555 1_555
C15 C14 1_555 1_555
C16 O10 1_555 1_555
H6 C16 1_555 1_555
C17 N1 1_555 1_555
H7 C17 1_555 1_555
H8 C17 1_555 1_555
H9 C17 1_555 1_555
C18 N1 1_555 1_555
H10 C18 1_555 1_555
H11 C18 1_555 1_555
H12 C18 1_555 1_555
Cd1D O2 1_555 1_555
Cd1D_2 O5 1_555 1_555
Cd1_2 O9 1_555 1_555
Cd1D_3 O9D 1_555 1_555
Cd1_3 O5D 1_555 1_555
Cd2D O3D 1_555 1_555
Cd2G O6 1_555 1_555
Cd2C O7 1_555 1_555
Cd2G_2 O6_2 1_555 1_555
Cd2C_2 O6D 1_555 1_555
N1D C16D 1_555 1_555
O1D Cd1D 1_555 1_555
O2D Cd1 1_555 1_555
O3D C8D 1_555 1_555
O4D Cd2D 1_555 1_555
O5D C9D 1_555 1_555
O5D_2 Cd1 1_555 1_555
O5_2 Cd1D 1_555 1_555
O6D Cd1_3 1_555 1_555
O6D_2 Cd1 1_555 1_555
O6G Cd2 1_555 1_555
O6_2 Cd1D 1_555 1_555
O6C Cd2D 1_555 1_555
O7D Cd1D 1_555 1_555
O7B Cd2 1_555 1_555
O7F Cd2D 1_555 1_555
O8D Cd2G_2 1_555 1_555
O8B Cd2 1_555 1_555
O8F Cd2D 1_555 1_555
O9D C15 1_555 1_555
O9_2 Cd1 1_555 1_555
O9D_2 Cd1D 1_555 1_555
O10D Cd2D 1_555 1_555
O11D Cd2D 1_555 1_555
C1D O1D 1_555 1_555
C2D C1D 1_555 1_555
C3D C2D 1_555 1_555
H1D C3D 1_555 1_555
C4D C3D 1_555 1_555
C5D C4D 1_555 1_555
H2D C5D 1_555 1_555
C6D C5D 1_555 1_555
C7D C2D 1_555 1_555
H3D C7D 1_555 1_555
C8D O4D 1_555 1_555
C9D O6D 1_555 1_555
C10D O7D 1_555 1_555
C11D C12 1_555 1_555
C13D C14 1_555 1_555
H5D C13D 1_555 1_555
C16D O10D 1_555 1_555
H6D C16D 1_555 1_555
C17D N1D 1_555 1_555
H7D C17D 1_555 1_555
H8D C17D 1_555 1_555
H9D C17D 1_555 1_555
C18D N1D 1_555 1_555
H10D C18D 1_555 1_555
H11D C18D 1_555 1_555
H12D C18D 1_555 1_555
O6 Cd1D_2 1_555 1_555
O8 Cd2C 1_555 1_555
C4 C8 1_555 1_555
C6 C7 1_555 1_555
Cd2C O6D_2 1_555 1_555
Cd2G_2 O7D 1_555 1_555
O2D C1D 1_555 1_555
O8D C10D 1_555 1_555
C4D C8D 1_555 1_555
C6D C7D 1_555 1_555
C6D C9D 1_555 1_555
C10D C11D 1_555 1_555
C11D C13D 1_555 1_555

#END
