
#######################################################################
#
#                 Cambridge Crystallographic Data Centre
#                                CCDC 
#
#######################################################################
#
# If this CIF has been generated from an entry in the Cambridge 
# Structural Database, then it will include bibliographic, chemical, 
# crystal, experimental, refinement or atomic coordinate data resulting 
# from the CCDC's data processing and validation procedures.
#
#######################################################################

data_CEHLAD
_symmetry_cell_setting           tetragonal
_symmetry_space_group_name_H-M   'P 41 21 2'
_symmetry_Int_Tables_number      92
_space_group_name_Hall           'P 4abw 2nw'
loop_
_symmetry_equiv_pos_site_id
_symmetry_equiv_pos_as_xyz
1 x,y,z
2 -x,-y,1/2+z
3 1/2-y,1/2+x,1/4+z
4 1/2+y,1/2-x,3/4+z
5 1/2-x,1/2+y,1/4-z
6 1/2+x,1/2-y,3/4-z
7 y,x,-z
8 -y,-x,1/2-z
_cell_length_a                   13.6929(19)
_cell_length_b                   13.6929(19)
_cell_length_c                   50.664(10)
_cell_angle_alpha                90
_cell_angle_beta                 90
_cell_angle_gamma                90
_cell_volume                     9499.27
loop_
_atom_site_label
_atom_site_type_symbol
_atom_site_fract_x
_atom_site_fract_y
_atom_site_fract_z
Zn1 Zn 1.00475(3) 0.41549(3) 0.117667(9)
Zn2 Zn 0.63802(3) 0.51201(3) 0.244680(9)
Zn3 Zn 1.05397(4) 0.26897(4) 0.168110(11)
N1 N 0.9000(4) 0.0137(4) 0.13961(12)
N2 N 1.2800(3) 0.0873(4) 0.19485(11)
N3 N 0.8692(4) 0.5945(4) 0.20265(10)
O1 O 0.9386(2) 0.3410(2) 0.14751(7)
O2 O 0.8529(3) 0.3134(3) 0.11174(7)
O3 O 0.6789(3) 0.3999(2) 0.22024(7)
O4 O 0.5584(2) 0.2918(3) 0.22468(7)
O5 O 0.6147(3) 0.0384(3) 0.12197(8)
O6 O 0.5368(2) 0.0177(2) 0.15941(7)
O7 O 1.0706(2) 0.3109(2) 0.09653(7)
O8 O 1.1315(3) 0.2402(3) 0.13250(6)
O9 O 0.9728(2) 0.0428(3) 0.03175(7)
O10 O 1.0869(3) -0.0658(3) 0.02201(7)
O11 O 1.3852(2) -0.0148(2) 0.11498(7)
O12 O 1.3753(2) -0.1003(2) 0.07741(6)
O13 O 0.9812(3) 0.1299(3) 0.16260(10)
O14 O 1.1666(3) 0.2027(3) 0.18772(8)
O15 O 0.7405(2) 0.6002(2) 0.23102(7)
O16 O 0.9800(3) 0.2779(4) 0.20358(9)
C1 C 0.8613(3) 0.3080(3) 0.13567(10)
C2 C 0.7797(3) 0.2661(3) 0.15238(8)
C3 C 0.7271(3) 0.1886(3) 0.14209(10)
H1 H 0.7432 0.1638 0.1256
C4 C 0.6503(3) 0.1476(3) 0.15630(10)
C5 C 0.6237(3) 0.1901(3) 0.18017(9)
H2 H 0.5729 0.1631 0.1899
C6 C 0.6714(3) 0.2718(3) 0.18966(9)
C7 C 0.7521(3) 0.3087(3) 0.17635(9)
H3 H 0.7873 0.3608 0.1833
C8 C 0.5963(4) 0.0628(3) 0.14526(11)
C9 C 0.6346(4) 0.3247(3) 0.21356(9)
C10 C 1.1136(3) 0.2443(3) 0.10811(9)
C11 C 1.1480(3) 0.1583(3) 0.09194(9)
C12 C 1.0929(3) 0.1255(3) 0.07045(9)
H4 H 1.0379 0.1604 0.0653
C13 C 1.1183(3) 0.0439(3) 0.05710(9)
C14 C 1.2023(3) -0.0068(3) 0.06348(8)
H5 H 1.2207 -0.0614 0.0537
C15 C 1.2598(3) 0.0249(3) 0.08486(9)
C16 C 1.2304(3) 0.1059(3) 0.09911(9)
H6 H 1.2665 0.1255 0.1137
C17 C 1.0540(3) 0.0043(3) 0.03460(8)
C18 C 1.3486(3) -0.0357(3) 0.09239(9)
C19 C 0.9562(5) 0.0915(4) 0.14211(15)
H7 H 0.9790 0.1197 0.1266
C20 C 0.8562(7) -0.0369(6) 0.16063(19)
H8 H 0.8754 -0.0076 0.1770
H9 H 0.8769 -0.1039 0.1603
H10 H 0.7865 -0.0338 0.1589
C21 C 0.8765(7) -0.0235(7) 0.11423(17)
H11 H 0.9083 0.0153 0.1010
H12 H 0.8071 -0.0209 0.1117
H13 H 0.8983 -0.0899 0.1129
C22 C 1.2033(5) 0.1253(5) 0.18323(13)
H14 H 1.1743 0.0880 0.1701
C23 C 1.3311(8) 0.1450(8) 0.2133(2)
H15 H 1.2965 0.2050 0.2161
H16 H 1.3953 0.1590 0.2066
H17 H 1.3364 0.1103 0.2297
C24 C 1.3209(7) -0.0063(6) 0.1871(2)
H18 H 1.2791 -0.0365 0.1743
H19 H 1.3261 -0.0477 0.2024
H20 H 1.3845 0.0035 0.1796
C25 C 0.8160(4) 0.5637(4) 0.22191(11)
H21 H 0.8371 0.5065 0.2300
C26 C 0.8294(8) 0.6813(10) 0.1886(3)
H22 H 0.7714 0.7034 0.1974
H23 H 0.8140 0.6640 0.1708
H24 H 0.8772 0.7326 0.1887
C27 C 0.9585(6) 0.5473(5) 0.19405(17)
H25 H 0.9748 0.4957 0.2061
H26 H 1.0105 0.5943 0.1937
H27 H 0.9493 0.5209 0.1767
Zn1D Zn 0.49525(3) -0.08451(3) 0.132333(9)
Zn1D_2 Zn 1.49525(3) -0.08451(3) 0.132333(9)
Zn2G Zn 0.48799(3) 0.36198(3) 0.255320(9)
Zn2D Zn 0.86198(3) 0.01201(3) 0.005320(9)
Zn2C Zn 1.01201(3) -0.13802(3) -0.005320(9)
Zn3D Zn 1.44603(4) -0.23103(4) 0.081890(11)
O4G O 0.7082(3) 0.4416(2) 0.27532(7)
O5D O 0.8853(3) 0.5384(3) 0.12803(8)
O6D O 0.9632(2) 0.5177(2) 0.09059(7)
O9D O 0.5272(2) 0.5428(3) 0.21825(7)
O10B O 0.5658(3) 0.5869(3) 0.27201(7)
O11D O 1.1148(2) 0.4852(2) 0.13502(7)
O12D O 1.1247(2) 0.3997(2) 0.17259(6)
N4 N 0.4037(4) 0.2995(4) 0.12170(11)
O17 O 0.4491(9) 0.2673(9) 0.08048(18)
C28 C 0.4492(8) 0.2424(7) 0.10396(16)
H28 H 0.4801 0.1852 0.1092
C29 C 0.3845(6) 0.2676(8) 0.14842(14)
H29 H 0.4163 0.2061 0.1515
H30 H 0.3154 0.2603 0.1509
H31 H 0.4092 0.3153 0.1606
C30 C 0.3627(7) 0.3893(6) 0.1136(2)
H32 H 0.3804 0.4021 0.0956
H33 H 0.3869 0.4408 0.1247
H34 H 0.2928 0.3861 0.1151
O18 O 0.1386(9) 0.3906(8) 0.2676(2)
loop_
_geom_bond_atom_site_label_1
_geom_bond_atom_site_label_2
_geom_bond_site_symmetry_1
_geom_bond_site_symmetry_2
Zn1 O1 1_555 1_555
Zn2 O3 1_555 1_555
Zn3 O1 1_555 1_555
N1 C19 1_555 1_555
N2 C22 1_555 1_555
N3 C25 1_555 1_555
O1 C1 1_555 1_555
O2 C1 1_555 1_555
O3 C9 1_555 1_555
O4 C9 1_555 1_555
O5 C8 1_555 1_555
O6 C8 1_555 1_555
O7 Zn1 1_555 1_555
O8 Zn3 1_555 1_555
O9 C17 1_555 1_555
O10 C17 1_555 1_555
O11 C18 1_555 1_555
O12 C18 1_555 1_555
O13 Zn3 1_555 1_555
O14 Zn3 1_555 1_555
O15 Zn2 1_555 1_555
O16 Zn3 1_555 1_555
C1 C2 1_555 1_555
C2 C3 1_555 1_555
C3 H1 1_555 1_555
C4 C3 1_555 1_555
C5 C4 1_555 1_555
H2 C5 1_555 1_555
C6 C5 1_555 1_555
C7 C2 1_555 1_555
H3 C7 1_555 1_555
C8 C4 1_555 1_555
C9 C6 1_555 1_555
C10 O7 1_555 1_555
C11 C10 1_555 1_555
C12 C11 1_555 1_555
H4 C12 1_555 1_555
C13 C12 1_555 1_555
C14 C13 1_555 1_555
H5 C14 1_555 1_555
C15 C14 1_555 1_555
C16 C11 1_555 1_555
H6 C16 1_555 1_555
C17 C13 1_555 1_555
C18 C15 1_555 1_555
C19 O13 1_555 1_555
H7 C19 1_555 1_555
C20 N1 1_555 1_555
H8 C20 1_555 1_555
H9 C20 1_555 1_555
H10 C20 1_555 1_555
C21 N1 1_555 1_555
H11 C21 1_555 1_555
H12 C21 1_555 1_555
H13 C21 1_555 1_555
C22 O14 1_555 1_555
H14 C22 1_555 1_555
C23 N2 1_555 1_555
H15 C23 1_555 1_555
H16 C23 1_555 1_555
H17 C23 1_555 1_555
C24 N2 1_555 1_555
H18 C24 1_555 1_555
H19 C24 1_555 1_555
H20 C24 1_555 1_555
C25 O15 1_555 1_555
H21 C25 1_555 1_555
C26 N3 1_555 1_555
H22 C26 1_555 1_555
H23 C26 1_555 1_555
H24 C26 1_555 1_555
C27 N3 1_555 1_555
H25 C27 1_555 1_555
H26 C27 1_555 1_555
H27 C27 1_555 1_555
N4 C28 1_555 1_555
O17 C28 1_555 1_555
C28 H28 1_555 1_555
C29 N4 1_555 1_555
H29 C29 1_555 1_555
H30 C29 1_555 1_555
H31 C29 1_555 1_555
C30 N4 1_555 1_555
H32 C30 1_555 1_555
H33 C30 1_555 1_555
H34 C30 1_555 1_555
Zn1D O5 1_555 1_555
Zn1D_2 O11 1_555 1_555
Zn2G Zn2 1_555 1_555
Zn2D O9 1_555 1_555
Zn2C O10 1_555 1_555
Zn3D O12 1_555 1_555
O4G Zn2 1_555 1_555
O5D Zn1 1_555 1_555
O6D Zn1 1_555 1_555
O9D Zn2 1_555 1_555
O10B Zn2 1_555 1_555
O11D Zn1 1_555 1_555
O12D Zn3 1_555 1_555
O4 Zn2G 1_555 1_555
O6 Zn1D 1_555 1_555
O8 C10 1_555 1_555
C6 C7 1_555 1_555
C15 C16 1_555 1_555
Zn2D Zn2C 1_555 1_555

#END
