
#######################################################################
#
#                 Cambridge Crystallographic Data Centre
#                                CCDC 
#
#######################################################################
#
# If this CIF has been generated from an entry in the Cambridge 
# Structural Database, then it will include bibliographic, chemical, 
# crystal, experimental, refinement or atomic coordinate data resulting 
# from the CCDC's data processing and validation procedures.
#
#######################################################################

data_CEKROB
_symmetry_cell_setting           trigonal
_symmetry_space_group_name_H-M   'P 32 2 1'
_symmetry_Int_Tables_number      154
_space_group_name_Hall           'P 32 2"'
loop_
_symmetry_equiv_pos_site_id
_symmetry_equiv_pos_as_xyz
1 x,y,z
2 -y,x-y,2/3+z
3 -x+y,-x,1/3+z
4 y,x,-z
5 x-y,-y,1/3-z
6 -x,-x+y,2/3-z
_cell_length_a                   16.2948(3)
_cell_length_b                   16.2948(3)
_cell_length_c                   19.3671(6)
_cell_angle_alpha                90
_cell_angle_beta                 90
_cell_angle_gamma                120
_cell_volume                     4453.42
loop_
_atom_site_label
_atom_site_type_symbol
_atom_site_fract_x
_atom_site_fract_y
_atom_site_fract_z
Fe1 Fe 0.53315(2) 1.0000 0.1667
Mn1 Mn 0.500650(19) 0.78404(2) 0.384410(13)
O1 O 0.44909(9) 0.82162(9) 0.45757(6)
O2 O 0.62195(9) 0.88088(9) 0.41056(6)
N1 N 0.36758(11) 0.68875(11) 0.35500(7)
N2 N 0.55854(11) 0.74930(11) 0.30471(7)
N3 N 0.49293(11) 0.89456(11) 0.30768(8)
N4 N 0.33598(11) 0.84091(11) 0.11339(8)
N5 N 0.59574(12) 0.85805(13) 0.12105(9)
C1 C 0.37484(13) 0.83401(14) 0.45056(9)
C2 C 0.36728(14) 0.89984(14) 0.49327(9)
H2 H 0.4156 0.9352 0.5261
C3 C 0.29073(15) 0.91358(15) 0.48794(10)
H3 H 0.2866 0.9585 0.5168
C4 C 0.21961(15) 0.86173(14) 0.44034(10)
C5 C 0.22316(15) 0.79533(14) 0.39901(10)
H4 H 0.1730 0.7589 0.3677
C6 C 0.30166(14) 0.78134(14) 0.40322(9)
C7 C 0.29870(14) 0.70521(14) 0.36305(10)
H5 H 0.2407 0.6635 0.3405
C8 C 0.34631(13) 0.59937(13) 0.32082(9)
H6 H 0.2786 0.5648 0.3074
H7 H 0.3567 0.5594 0.3541
C9 C 0.40689(13) 0.61404(13) 0.25647(9)
C10 C 0.51132(13) 0.65235(14) 0.27555(10)
H8 H 0.5152 0.6091 0.3096
H9 H 0.5461 0.6522 0.2337
C11 C 0.63844(12) 0.80960(13) 0.27766(9)
H10 H 0.6575 0.7899 0.2375
C12 C 0.70185(13) 0.90432(13) 0.30241(9)
C13 C 0.78237(14) 0.96270(14) 0.26239(10)
H11 H 0.7915 0.9407 0.2192
C14 C 0.84746(14) 1.05093(14) 0.28542(11)
C15 C 0.83507(15) 1.08497(14) 0.34818(11)
H12 H 0.8799 1.1472 0.3629
C16 C 0.75752(14) 1.02818(13) 0.38889(10)
H13 H 0.7494 1.0515 0.4317
C17 C 0.69036(12) 0.93598(12) 0.36743(9)
C18 C 0.39524(14) 0.67854(15) 0.20544(10)
H14 H 0.3281 0.6509 0.1933
H15 H 0.4320 0.6853 0.1636
H16 H 0.4181 0.7410 0.2264
C19 C 0.37270(13) 0.51572(15) 0.22489(11)
H17 H 0.3052 0.4863 0.2134
H18 H 0.3821 0.4759 0.2582
H19 H 0.4089 0.5222 0.1828
C20 C 0.40639(13) 0.90251(12) 0.13404(8)
C21 C 0.57365(13) 0.91231(13) 0.13713(9)
C22 C 0.50598(13) 0.93670(12) 0.25679(8)
Cl1 Cl 0.12431(4) 0.88233(4) 0.43255(3)
Cl2 Cl 0.94738(4) 1.12270(4) 0.23530(3)
Mn1D Mn 0.716610(28) 1.21596(2) -0.051077(13)
Mn1A Mn 0.21596(2) 0.716610(28) 0.051077(13)
Mn1E Mn 0.499350(19) 1.283390(28) 0.282257(13)
O1D O 0.62747(13) 1.17838(9) -0.12424(6)
O2D O 0.74107(13) 1.11912(9) -0.07723(6)
N1D N 0.67883(16) 1.31125(11) -0.02167(7)
N2D N 0.80924(16) 1.25070(11) 0.02862(7)
N3D N 0.59837(16) 1.10544(11) 0.02565(8)
N4D N 0.49507(16) 1.15909(11) 0.21994(8)
N4B N 0.50493(16) 0.66402(11) 0.44672(8)
N4C N 0.84091(11) 1.33598(11) -0.11339(8)
N5D N 0.73769(18) 1.14195(13) 0.21228(9)
C1D C 0.54083(19) 1.16599(14) -0.11723(9)
C2D C 0.46744(20) 1.10016(14) -0.15994(9)
H2D H 0.4804 1.0648 -0.1928
C3D C 0.37715(21) 1.08642(15) -0.15461(10)
H3D H 0.3281 1.0415 -0.1835
C4D C 0.35788(21) 1.13827(14) -0.10701(10)
C5D C 0.42783(21) 1.20467(14) -0.06568(10)
H4D H 0.4141 1.2411 -0.0344
C6D C 0.52032(20) 1.21866(14) -0.06989(9)
C7D C 0.59349(20) 1.29479(14) -0.02972(10)
H5D H 0.5772 1.3365 -0.0072
C8D C 0.74694(18) 1.40063(13) 0.01251(9)
H6D H 0.7138 1.4352 0.0259
H7D H 0.7973 1.4406 -0.0208
C9D C 0.79285(18) 1.38596(13) 0.07686(9)
C10D C 0.85897(19) 1.34765(14) 0.05778(10)
H8D H 0.9061 1.3909 0.0237
H9D H 0.8939 1.3478 0.0996
C11D C 0.82884(18) 1.19040(13) 0.05567(9)
H10D H 0.8676 1.2101 0.0958
C12D C 0.79753(18) 1.09568(13) 0.03092(9)
C13D C 0.81967(20) 1.03730(14) 0.07094(10)
H11D H 0.8508 1.0593 0.1141
C14D C 0.79653(20) 0.94907(14) 0.04791(11)
C15D C 0.75010(21) 0.91503(14) -0.01485(11)
H12D H 0.7327 0.8528 -0.0296
C16D C 0.72934(19) 0.97182(13) -0.05556(10)
H13D H 0.6979 0.9485 -0.0984
C17D C 0.75438(17) 1.06402(12) -0.03410(9)
C18D C 0.71670(21) 1.32146(15) 0.12789(10)
H14D H 0.6772 1.3491 0.1400
H15D H 0.7467 1.3147 0.1697
H16D H 0.6771 1.2590 0.1069
C19D C 0.85698(20) 1.48428(15) 0.10844(11)
H17D H 0.8189 1.5137 0.1199
H18D H 0.9062 1.5241 0.0751
H19D H 0.8867 1.4778 0.1505
C20D C 0.50388(18) 1.09749(12) 0.19929(8)
C21D C 0.66134(18) 1.08769(13) 0.19620(9)
C22D C 0.56928(18) 1.06330(12) 0.07654(8)
Cl1D Cl 0.24198(6) 1.11767(4) -0.09922(3)
Cl2D Cl 0.82468(6) 0.87730(4) 0.09803(3)
O3 O 0.13242(13) 0.67291(15) 0.25294(8)
H1 H 0.1570 0.6738 0.2146
C27 C 0.03970(18) 0.6548(2) 0.24275(12)
H30 H 0.0297 0.7000 0.2697
H31 H -0.0053 0.5902 0.2578
H32 H 0.0298 0.6616 0.1936
N6 N 0.18822(14) 1.0000 0.1667
C23 C 0.20166(19) 0.92238(18) 0.19840(12)
H20 H 0.1388 0.8698 0.2125
H21 H 0.2266 0.8976 0.1624
C24 C 0.2669(2) 0.9511(3) 0.25994(15)
H22 H 0.3269 1.0082 0.2487
H23 H 0.2788 0.8996 0.2720
H24 H 0.2372 0.9643 0.2992
C25 C 0.15971(17) 1.04727(15) 0.22069(11)
H25 H 0.1539 1.0988 0.1983
H26 H 0.2113 1.0769 0.2552
C26 C 0.0687(2) 0.9837(2) 0.25815(13)
H27 H 0.0162 0.9561 0.2250
H28 H 0.0569 1.0208 0.2925
H29 H 0.0736 0.9329 0.2813
C23D C 0.27928(26) 1.07762(18) 0.13493(12)
H20D H 0.2690 1.1302 0.1208
H21D H 0.3290 1.1024 0.1709
C24D C 0.3158(4) 1.0489(3) 0.07339(15)
H22D H 0.3187 0.9918 0.0846
H23D H 0.3792 1.1004 0.0613
H24D H 0.2729 1.0357 0.0341
C25D C 0.11244(23) 0.95273(15) 0.11264(11)
H25D H 0.0551 0.9012 0.1350
H26D H 0.1344 0.9231 0.0781
C26D C 0.0850(3) 1.0163(2) 0.07518(13)
H27D H 0.0601 1.0439 0.1083
H28D H 0.0361 0.9792 0.0408
H29D H 0.1407 1.0671 0.0520
O4 O 0.5614(6) 0.6763(5) 0.0929(4)
H33 H 0.5701 0.7309 0.1003
C28 C 0.5839(4) 0.6695(4) 0.0251(3)
H34 H 0.5751 0.7142 -0.0035
H35 H 0.5424 0.6048 0.0083
H36 H 0.6500 0.6846 0.0223
C29? C 0.5206(5) 0.6370(6) 0.0522(4)
H37? H 0.5036 0.5704 0.0559
H38? H 0.5313 0.6563 0.0036
H39? H 0.4690 0.6449 0.0706
H40? H 0.6081 0.7461 0.0992
O5? O 0.6041(5) 0.6938(7) 0.0903(6)
loop_
_geom_bond_atom_site_label_1
_geom_bond_atom_site_label_2
_geom_bond_site_symmetry_1
_geom_bond_site_symmetry_2
Fe1 C20 1_555 1_555
Mn1 O1 1_555 1_555
O1 C1 1_555 1_555
O2 Mn1 1_555 1_555
O3 H1 1_555 1_555
N1 Mn1 1_555 1_555
N2 Mn1 1_555 1_555
N3 Mn1 1_555 1_555
N4 C20 1_555 1_555
N5 C21 1_555 1_555
N6 C23 1_555 1_555
C1 C2 1_555 1_555
C2 H2 1_555 1_555
C3 C2 1_555 1_555
H3 C3 1_555 1_555
C4 C3 1_555 1_555
C5 C4 1_555 1_555
H4 C5 1_555 1_555
C6 C1 1_555 1_555
C7 N1 1_555 1_555
H5 C7 1_555 1_555
C8 N1 1_555 1_555
H6 C8 1_555 1_555
H7 C8 1_555 1_555
C9 C8 1_555 1_555
C10 N2 1_555 1_555
H8 C10 1_555 1_555
H9 C10 1_555 1_555
C11 N2 1_555 1_555
H10 C11 1_555 1_555
C12 C11 1_555 1_555
C13 C12 1_555 1_555
H11 C13 1_555 1_555
C14 C13 1_555 1_555
C15 C14 1_555 1_555
H12 C15 1_555 1_555
C16 C15 1_555 1_555
H13 C16 1_555 1_555
C17 O2 1_555 1_555
C18 C9 1_555 1_555
H14 C18 1_555 1_555
H15 C18 1_555 1_555
H16 C18 1_555 1_555
C19 C9 1_555 1_555
H17 C19 1_555 1_555
H18 C19 1_555 1_555
H19 C19 1_555 1_555
C21 Fe1 1_555 1_555
C22 Fe1 1_555 1_555
C23 H20 1_555 1_555
H21 C23 1_555 1_555
C24 C23 1_555 1_555
H22 C24 1_555 1_555
H23 C24 1_555 1_555
H24 C24 1_555 1_555
C25 N6 1_555 1_555
H25 C25 1_555 1_555
H26 C25 1_555 1_555
C26 C25 1_555 1_555
H27 C26 1_555 1_555
H28 C26 1_555 1_555
H29 C26 1_555 1_555
C27 O3 1_555 1_555
H30 C27 1_555 1_555
H31 C27 1_555 1_555
H32 C27 1_555 1_555
O4 H33 1_555 1_555
C28 O4 1_555 1_555
H34 C28 1_555 1_555
H35 C28 1_555 1_555
H36 C28 1_555 1_555
Cl1 C4 1_555 1_555
Cl2 C14 1_555 1_555
Mn1D O1D 1_555 1_555
Mn1A N4 1_555 1_555
Mn1E N4D 1_555 1_555
O1D C1D 1_555 1_555
O2D Mn1D 1_555 1_555
N1D Mn1D 1_555 1_555
N2D Mn1D 1_555 1_555
N3D Mn1D 1_555 1_555
N4D C20D 1_555 1_555
N4B Mn1 1_555 1_555
N4C Mn1D 1_555 1_555
N5D C21D 1_555 1_555
C1D C2D 1_555 1_555
C2D H2D 1_555 1_555
C3D C2D 1_555 1_555
H3D C3D 1_555 1_555
C4D C3D 1_555 1_555
C5D C4D 1_555 1_555
H4D C5D 1_555 1_555
C6D C1D 1_555 1_555
C7D N1D 1_555 1_555
H5D C7D 1_555 1_555
C8D N1D 1_555 1_555
H6D C8D 1_555 1_555
H7D C8D 1_555 1_555
C9D C8D 1_555 1_555
C10D N2D 1_555 1_555
H8D C10D 1_555 1_555
H9D C10D 1_555 1_555
C11D N2D 1_555 1_555
H10D C11D 1_555 1_555
C12D C11D 1_555 1_555
C13D C12D 1_555 1_555
H11D C13D 1_555 1_555
C14D C13D 1_555 1_555
C15D C14D 1_555 1_555
H12D C15D 1_555 1_555
C16D C15D 1_555 1_555
H13D C16D 1_555 1_555
C17D O2D 1_555 1_555
C18D C9D 1_555 1_555
H14D C18D 1_555 1_555
H15D C18D 1_555 1_555
H16D C18D 1_555 1_555
C19D C9D 1_555 1_555
H17D C19D 1_555 1_555
H18D C19D 1_555 1_555
H19D C19D 1_555 1_555
C20D Fe1 1_555 1_555
C21D Fe1 1_555 1_555
C22D Fe1 1_555 1_555
C23D N6 1_555 1_555
H20D C23D 1_555 1_555
H21D C23D 1_555 1_555
C24D C23D 1_555 1_555
H22D C24D 1_555 1_555
H23D C24D 1_555 1_555
H24D C24D 1_555 1_555
C25D N6 1_555 1_555
H25D C25D 1_555 1_555
H26D C25D 1_555 1_555
C26D C25D 1_555 1_555
H27D C26D 1_555 1_555
H28D C26D 1_555 1_555
H29D C26D 1_555 1_555
Cl1D C4D 1_555 1_555
Cl2D C14D 1_555 1_555
N3 C22 1_555 1_555
C5 C6 1_555 1_555
C6 C7 1_555 1_555
C9 C10 1_555 1_555
C12 C17 1_555 1_555
C16 C17 1_555 1_555
N3D C22D 1_555 1_555
C5D C6D 1_555 1_555
C6D C7D 1_555 1_555
C9D C10D 1_555 1_555
C12D C17D 1_555 1_555
C16D C17D 1_555 1_555

#END
