
#######################################################################
#
#                 Cambridge Crystallographic Data Centre
#                                CCDC 
#
#######################################################################
#
# If this CIF has been generated from an entry in the Cambridge 
# Structural Database, then it will include bibliographic, chemical, 
# crystal, experimental, refinement or atomic coordinate data resulting 
# from the CCDC's data processing and validation procedures.
#
#######################################################################

data_CELZUQ
_symmetry_cell_setting           tetragonal
_symmetry_space_group_name_H-M   'I 41'
_symmetry_Int_Tables_number      80
_space_group_name_Hall           'I 4bw'
loop_
_symmetry_equiv_pos_site_id
_symmetry_equiv_pos_as_xyz
1 x,y,z
2 -x,-y,z
3 1/2-x,1/2-y,1/2+z
4 -y,1/2+x,1/4+z
5 1/2-y,x,3/4+z
6 y,1/2-x,1/4+z
7 1/2+y,-x,3/4+z
8 1/2+x,1/2+y,1/2+z
_cell_length_a                   21.547(69)
_cell_length_b                   21.547(69)
_cell_length_c                   10.378(33)
_cell_angle_alpha                90
_cell_angle_beta                 90
_cell_angle_gamma                90
_cell_volume                     4818.23
loop_
_atom_site_label
_atom_site_type_symbol
_atom_site_fract_x
_atom_site_fract_y
_atom_site_fract_z
Al1 Al 0.2544(10) 0.3183(11) 0.3719(20)
Al2 Al 0.2470(13) 0.6826(12) 0.3518(28)
C1 C 0.2048(18) 0.3864(10) 0.1290(24)
C2 C 0.2933(21) 0.3834(13) 0.6020(32)
C3 C 0.2971(16) 0.6121(11) 0.5804(27)
C4 C 0.2051(13) 0.6170(21) 0.1368(33)
C5 C 0.2026(24) 0.44846(96) 0.0598(21)
C6 C 0.2170(25) 0.4981(23) 0.1338(27)
C7 C 0.2071(30) 0.5564(10) 0.0665(27)
C8 C 0.1816(32) 0.5681(10) -0.0581(28)
C9 C 0.1729(39) 0.5141(15) -0.1232(32)
C10 C 0.1829(36) 0.4550(13) -0.0661(31)
C11 C 0.3148(16) 0.5565(11) 0.6611(23)
C12 C 0.2927(19) 0.5071(18) 0.5910(25)
C13 C 0.3019(19) 0.4480(11) 0.6502(29)
C14 C 0.3321(21) 0.4474(13) 0.7749(29)
C15 C 0.3422(20) 0.5029(25) 0.8439(31)
C16 C 0.3452(20) 0.5609(12) 0.7816(25)
O1 O 0.3197(25) 0.6575(13) 0.6328(60)
O2 O 0.3194(27) 0.3357(11) 0.6414(49)
O3 O 0.2412(23) 0.3742(19) 0.2241(21)
O4 O 0.2497(24) 0.7455(26) 0.4688(53)
O5 O 0.1944(22) 0.3412(13) 0.0592(47)
O6 O 0.1847(19) 0.6691(11) 0.0980(37)
O7 O 0.2653(20) 0.3897(20) 0.4923(21)
O8 O 0.2703(22) 0.2551(20) 0.4808(32)
O9 O 0.2608(21) 0.6165(20) 0.4831(30)
O10 O 0.2446(19) 0.6121(23) 0.2306(25)
Al1D Al 0.1817(11) 0.2544(10) 0.1219(20)
Al1E Al 0.3183(11) 0.2456(10) 0.6219(20)
Al2C Al 0.3174(12) 0.7470(13) 0.6018(28)
Al2F Al 0.1826(12) 0.7530(13) 0.1018(28)
O1F O 0.1575(13) 0.6803(25) 0.3828(60)
O2D O 0.1643(11) 0.3194(27) 0.3914(49)
O4F O 0.2455(26) 0.7503(24) 0.2188(53)
O5E O 0.3412(13) 0.3056(22) 0.3092(47)
O6C O 0.3309(11) 0.6847(19) 0.3480(37)
O8D O 0.2449(20) 0.2703(22) 0.2308(32)
loop_
_geom_bond_atom_site_label_1
_geom_bond_atom_site_label_2
_geom_bond_site_symmetry_1
_geom_bond_site_symmetry_2
Al1 O3 1_555 1_555
Al2 O4 1_555 1_555
C1 C5 1_555 1_555
C2 C13 1_555 1_555
C3 C11 1_555 1_555
C4 C7 1_555 1_555
C5 C6 1_555 1_555
C6 C7 1_555 1_555
C7 C8 1_555 1_555
C8 C9 1_555 1_555
C9 C10 1_555 1_555
C10 C5 1_555 1_555
C11 C12 1_555 1_555
C12 C13 1_555 1_555
C13 C14 1_555 1_555
C14 C15 1_555 1_555
C15 C16 1_555 1_555
C16 C11 1_555 1_555
O1 C3 1_555 1_555
O2 C2 1_555 1_555
O3 C1 1_555 1_555
O4 Al2C 1_555 1_555
O5 C1 1_555 1_555
O6 C4 1_555 1_555
O7 Al1 1_555 1_555
O8 Al1 1_555 1_555
O9 Al2 1_555 1_555
O10 Al2 1_555 1_555
Al1D O5 1_555 1_555
Al1E O2 1_555 1_555
Al2C O1 1_555 1_555
Al2F O6 1_555 1_555
O1F Al2 1_555 1_555
O2D Al1 1_555 1_555
O4F Al2 1_555 1_555
O5E Al1 1_555 1_555
O6C Al2 1_555 1_555
O8D Al1 1_555 1_555
C2 O7 1_555 1_555
C3 O9 1_555 1_555
C4 O10 1_555 1_555
O8 Al1E 1_555 1_555
Al1D O8D 1_555 1_555
Al2F O4F 1_555 1_555

#END
