
#######################################################################
#
#                 Cambridge Crystallographic Data Centre
#                                CCDC 
#
#######################################################################
#
# If this CIF has been generated from an entry in the Cambridge 
# Structural Database, then it will include bibliographic, chemical, 
# crystal, experimental, refinement or atomic coordinate data resulting 
# from the CCDC's data processing and validation procedures.
#
#######################################################################

data_CEMKOV
_symmetry_cell_setting           orthorhombic
_symmetry_space_group_name_H-M   'P b c n'
_symmetry_Int_Tables_number      60
_space_group_name_Hall           '-P 2n 2ab'
loop_
_symmetry_equiv_pos_site_id
_symmetry_equiv_pos_as_xyz
1 x,y,z
2 1/2-x,1/2-y,1/2+z
3 -x,y,1/2-z
4 1/2+x,1/2-y,-z
5 -x,-y,-z
6 1/2+x,1/2+y,1/2-z
7 x,-y,1/2+z
8 1/2-x,1/2+y,z
_cell_length_a                   18.567(4)
_cell_length_b                   9.934(2)
_cell_length_c                   30.764(6)
_cell_angle_alpha                90
_cell_angle_beta                 90
_cell_angle_gamma                90
_cell_volume                     5674.25
loop_
_atom_site_label
_atom_site_type_symbol
_atom_site_fract_x
_atom_site_fract_y
_atom_site_fract_z
N5 N 0.0149(4) 0.8753(8) 0.0412(3)
O6 O 0.0713(4) 0.8155(9) 0.0326(3)
O7 O -0.0367(4) 0.8740(8) 0.0176(2)
C21 C 0.0156(4) 0.9610(8) 0.0798(2)
C22 C -0.0465(4) 1.0361(9) 0.0883(3)
H20 H -0.0864 1.0310 0.0701
C23 C -0.0470(5) 1.1181(11) 0.1244(3)
H21 H -0.0876 1.1693 0.1310
C24 C 0.0132(5) 1.1238(9) 0.1509(3)
H22 H 0.0134 1.1806 0.1750
C25 C 0.0723(5) 1.0468(9) 0.1420(3)
H23 H 0.1119 1.0501 0.1605
C26 C 0.0739(4) 0.9673(8) 0.1074(2)
H24 H 0.1146 0.9156 0.1018
Cl1 Cl 0.15805(10) 0.1799(2) 0.25744(8)
O8 O 0.1321(8) 0.2762(12) 0.2261(4)
O9 O 0.2045(6) 0.0899(12) 0.2344(4)
O10 O 0.0870(7) 0.168(3) 0.2564(6)
O11 O 0.1828(7) 0.2446(9) 0.2932(4)
O12 O 0.1366(13) 0.0468(17) 0.2718(7)
Cu1 Cu 0.0000 0.67876(11) 0.2500
O1 O 0.0000 0.9229(7) 0.2500
O2 O 0.0000 0.4187(7) 0.2500
N1 N -0.0790(3) 0.6749(5) 0.20413(15)
O3 O -0.2722(2) 0.5423(5) 0.09917(16)
N2 N -0.2370(3) 0.8536(12) -0.0836(2)
N3 N -0.2644(3) 0.7653(6) 0.08641(16)
H1 H -0.2470 0.8414 0.0946
O5 O -0.2582(5) 1.0385(9) -0.0921(3)
C5 C -0.3193(9) 0.8945(17) -0.1375(5)
C6 C -0.3130(7) 0.7824(15) -0.1666(5)
H4 H -0.2725 0.7284 -0.1633
C7 C -0.3798(8) 0.9714(19) -0.1424(4)
H5 H -0.3889 1.0493 -0.1266
C8 C -0.2676(7) 0.9230(10) -0.1024(4)
N4 N -0.4214(3) 0.8291(7) -0.20316(16)
C9 C -0.3672(4) 0.7408(10) -0.2034(3)
H6 H -0.3683 0.6875 -0.2282
C10 C -0.4240(4) 0.9224(12) -0.1724(2)
H7 H -0.4560 0.9944 -0.1711
C11 C -0.1880(3) 0.6662(6) 0.14186(17)
C12 C -0.1394(3) 0.7692(7) 0.14353(19)
H8 H -0.1428 0.8398 0.1238
C13 C -0.0855(3) 0.7694(6) 0.17392(18)
H9 H -0.0520 0.8390 0.1734
C14 C -0.1288(3) 0.5738(6) 0.2032(2)
H10 H -0.1263 0.5071 0.2244
C15 C -0.1818(3) 0.5661(6) 0.17296(18)
H11 H -0.2138 0.4941 0.1731
C16 C -0.2458(3) 0.6539(7) 0.10748(17)
C17 C -0.1874(4) 0.8585(8) -0.0470(2)
H12 H -0.1782 0.9516 -0.0393
H13 H -0.1419 0.8178 -0.0554
C18 C -0.2182(4) 0.7834(9) -0.0071(2)
H14 H -0.2304 0.6922 -0.0156
H15 H -0.1811 0.7780 0.0151
C19 C -0.2845(4) 0.8500(9) 0.0123(2)
H16 H -0.3210 0.8612 -0.0099
H17 H -0.2721 0.9382 0.0235
C20 C -0.3140(4) 0.7604(9) 0.0495(2)
H18 H -0.3611 0.7923 0.0583
H19 H -0.3189 0.6684 0.0394
Cu1A Cu -0.5000 0.82124(11) -0.2500
Cu1A_2 Cu 0.5000 0.82124(11) 0.7500
N1B N 0.0790(3) 0.6749(5) 0.29587(15)
O3B O 0.2722(2) 0.5423(5) 0.40083(16)
N2B N 0.2370(3) 0.8536(12) 0.5836(2)
N3B N 0.2644(3) 0.7653(6) 0.41359(16)
H1B H 0.2470 0.8414 0.4054
O5B O 0.2582(5) 1.0385(9) 0.5921(3)
C5B C 0.3193(9) 0.8945(17) 0.6375(5)
C6B C 0.3130(7) 0.7824(15) 0.6666(5)
H4B H 0.2725 0.7284 0.6633
C7B C 0.3798(8) 0.9714(19) 0.6424(4)
H5B H 0.3889 1.0493 0.6266
C8B C 0.2676(7) 0.9230(10) 0.6024(4)
N4B N 0.4214(3) 0.8291(7) 0.70316(16)
N4A N -0.0786(3) 0.6709(7) 0.29684(16)
N4C N 0.0786(3) 0.6709(7) 0.20316(16)
C9B C 0.3672(4) 0.7408(10) 0.7034(3)
H6B H 0.3683 0.6875 0.7282
C10B C 0.4240(4) 0.9224(12) 0.6724(2)
H7B H 0.4560 0.9944 0.6711
C11B C 0.1880(3) 0.6662(6) 0.35814(17)
C12B C 0.1394(3) 0.7692(7) 0.35647(19)
H8B H 0.1428 0.8398 0.3762
C13B C 0.0855(3) 0.7694(6) 0.32608(18)
H9B H 0.0520 0.8390 0.3266
C14B C 0.1288(3) 0.5738(6) 0.2968(2)
H10B H 0.1263 0.5071 0.2756
C15B C 0.1818(3) 0.5661(6) 0.32704(18)
H11B H 0.2138 0.4941 0.3269
C16B C 0.2458(3) 0.6539(7) 0.39252(17)
C17B C 0.1874(4) 0.8585(8) 0.5470(2)
H12B H 0.1782 0.9516 0.5393
H13B H 0.1419 0.8178 0.5554
C18B C 0.2182(4) 0.7834(9) 0.5071(2)
H14B H 0.2304 0.6922 0.5156
H15B H 0.1811 0.7780 0.4849
C19B C 0.2845(4) 0.8500(9) 0.4877(2)
H16B H 0.3210 0.8612 0.5099
H17B H 0.2721 0.9382 0.4765
C20B C 0.3140(4) 0.7604(9) 0.4505(2)
H18B H 0.3611 0.7923 0.4417
H19B H 0.3189 0.6684 0.4606
O4? O -0.2263(5) 0.6649(9) -0.1011(3)
C1? C -0.3107(7) 0.7966(15) -0.1424(4)
C2? C -0.3118(7) 0.7076(16) -0.1777(4)
H2? H -0.2795 0.6376 -0.1825
C3? C -0.3630(11) 0.889(2) -0.1385(4)
H3? H -0.3633 0.9387 -0.1130
C4? C -0.2557(6) 0.7732(14) -0.1068(5)
N6? N 0.0392(13) 0.525(2) 0.4528(6)
C27? C 0.0514(11) 0.5439(19) 0.4924(13)
C28? C 0.0811(9) 0.5737(18) 0.4435(4)
C29? C 0.0276(10) 0.476(2) 0.4214(8)
C30? C -0.0169(9) 0.4191(15) 0.4287(4)
C31? C -0.0525(9) 0.4023(17) 0.4705(6)
C32? C 0.0000 0.5000 0.5000
loop_
_geom_bond_atom_site_label_1
_geom_bond_atom_site_label_2
_geom_bond_site_symmetry_1
_geom_bond_site_symmetry_2
Cu1 O1 1_555 1_555
O2 Cu1 1_555 1_555
N1 Cu1 1_555 1_555
O3 C16 1_555 1_555
N2 C8 1_555 1_555
N3 H1 1_555 1_555
O5 C8 1_555 1_555
C5 C6 1_555 1_555
C6 H4 1_555 1_555
C7 C5 1_555 1_555
H5 C7 1_555 1_555
C8 C5 1_555 1_555
N4 C9 1_555 1_555
C9 C6 1_555 1_555
H6 C9 1_555 1_555
C10 C7 1_555 1_555
H7 C10 1_555 1_555
C11 C12 1_555 1_555
C12 H8 1_555 1_555
C13 N1 1_555 1_555
H9 C13 1_555 1_555
C14 N1 1_555 1_555
H10 C14 1_555 1_555
C15 C11 1_555 1_555
H11 C15 1_555 1_555
C16 N3 1_555 1_555
C17 N2 1_555 1_555
H12 C17 1_555 1_555
H13 C17 1_555 1_555
C18 C17 1_555 1_555
H14 C18 1_555 1_555
H15 C18 1_555 1_555
C19 C18 1_555 1_555
H16 C19 1_555 1_555
H17 C19 1_555 1_555
C20 N3 1_555 1_555
H18 C20 1_555 1_555
H19 C20 1_555 1_555
N5 O6 1_555 1_555
O7 N5 1_555 1_555
C21 N5 1_555 1_555
C22 C21 1_555 1_555
H20 C22 1_555 1_555
C23 C22 1_555 1_555
H21 C23 1_555 1_555
C24 C23 1_555 1_555
H22 C24 1_555 1_555
C25 C24 1_555 1_555
H23 C25 1_555 1_555
C26 C21 1_555 1_555
H24 C26 1_555 1_555
Cl1 O8 1_555 1_555
O8 O10 1_555 1_555
O9 Cl1 1_555 1_555
O10 Cl1 1_555 1_555
O11 Cl1 1_555 1_555
O12 Cl1 1_555 1_555
Cu1A N4 1_555 1_555
Cu1A_2 N4B 1_555 1_555
N1B Cu1 1_555 1_555
O3B C16B 1_555 1_555
N2B C8B 1_555 1_555
N3B H1B 1_555 1_555
O5B C8B 1_555 1_555
C5B C6B 1_555 1_555
C6B H4B 1_555 1_555
C7B C5B 1_555 1_555
H5B C7B 1_555 1_555
C8B C5B 1_555 1_555
N4B C9B 1_555 1_555
N4A Cu1 1_555 1_555
N4C Cu1 1_555 1_555
C9B C6B 1_555 1_555
H6B C9B 1_555 1_555
C10B C7B 1_555 1_555
H7B C10B 1_555 1_555
C11B C12B 1_555 1_555
C12B H8B 1_555 1_555
C13B N1B 1_555 1_555
H9B C13B 1_555 1_555
C14B N1B 1_555 1_555
H10B C14B 1_555 1_555
C15B C11B 1_555 1_555
H11B C15B 1_555 1_555
C16B N3B 1_555 1_555
C17B N2B 1_555 1_555
H12B C17B 1_555 1_555
H13B C17B 1_555 1_555
C18B C17B 1_555 1_555
H14B C18B 1_555 1_555
H15B C18B 1_555 1_555
C19B C18B 1_555 1_555
H16B C19B 1_555 1_555
H17B C19B 1_555 1_555
C20B N3B 1_555 1_555
H18B C20B 1_555 1_555
H19B C20B 1_555 1_555
N4 C10 1_555 1_555
C11 C16 1_555 1_555
C12 C13 1_555 1_555
C14 C15 1_555 1_555
C19 C20 1_555 1_555
C25 C26 1_555 1_555
O9 O12 1_555 1_555
O10 O12 1_555 1_555
N4B C10B 1_555 1_555
C11B C16B 1_555 1_555
C12B C13B 1_555 1_555
C14B C15B 1_555 1_555
C19B C20B 1_555 1_555

#END
