
#######################################################################
#
#                 Cambridge Crystallographic Data Centre
#                                CCDC 
#
#######################################################################
#
# If this CIF has been generated from an entry in the Cambridge 
# Structural Database, then it will include bibliographic, chemical, 
# crystal, experimental, refinement or atomic coordinate data resulting 
# from the CCDC's data processing and validation procedures.
#
#######################################################################

data_CENPUI
_symmetry_cell_setting           triclinic
_symmetry_space_group_name_H-M   'P -1'
_symmetry_Int_Tables_number      2
_space_group_name_Hall           '-P 1'
loop_
_symmetry_equiv_pos_site_id
_symmetry_equiv_pos_as_xyz
1 x,y,z
2 -x,-y,-z
_cell_length_a                   8.4319(9)
_cell_length_b                   12.8251(13)
_cell_length_c                   20.924(5)
_cell_angle_alpha                73.462(16)
_cell_angle_beta                 84.692(13)
_cell_angle_gamma                78.307(9)
_cell_volume                     2122.64
loop_
_atom_site_label
_atom_site_type_symbol
_atom_site_fract_x
_atom_site_fract_y
_atom_site_fract_z
Mg1 Mg 0.56603(17) -0.82994(11) 0.99947(7)
Mg2 Mg 1.0000 0.0000 0.0000
O1 O 0.3589(4) -0.7098(2) 0.98536(17)
O2 O 0.8496(4) -0.1118(3) -0.00163(15)
H1 H 0.8673 -0.1842 0.0203
H2 H 0.7726 -0.0792 -0.0252
O3 O -0.3594(4) -0.7713(3) 0.07325(16)
O4 O -0.1891(4) -0.9221(3) 0.05880(15)
O5 O 1.2931(4) -0.2622(3) 0.07313(15)
O6 O 1.1092(4) -0.1089(2) 0.07919(15)
O7 O 0.5582(4) -1.0700(3) 0.92550(15)
O8 O 0.5147(4) -0.8916(3) 0.92766(15)
N1 N 0.4337(5) -0.6823(3) 0.40354(18)
N2 N 0.2398(9) -0.5597(7) 1.0159(6)
C1 C 0.4575(5) -0.9845(4) 0.7888(2)
H3 H 0.4157 -1.0470 0.8123
C2 C 0.5321(5) -0.9299(4) 0.8235(2)
C3 C 0.5937(5) -0.8041(4) 0.7187(2)
H4 H 0.6451 -0.7463 0.6949
C4 C 0.5995(5) -0.8390(4) 0.7871(2)
H5 H 0.6489 -0.8015 0.8093
C5 C 1.1644(5) -0.2138(4) 0.0964(2)
C6 C 0.5107(5) -0.8549(4) 0.6843(2)
C7 C -0.1167(6) -0.7564(4) 0.2338(2)
H6 H -0.1600 -0.7060 0.2580
C8 C 0.0394(5) -0.8212(4) 0.2473(2)
C9 C 0.7494(5) -0.4752(4) 0.2863(2)
C10 C 1.0278(6) -0.4555(4) 0.2280(2)
H7 H 1.0692 -0.5287 0.2499
C11 C 1.0651(6) -0.2821(4) 0.1497(2)
C12 C -0.2342(5) -0.8463(4) 0.0893(2)
C13 C 0.1457(5) -0.7988(4) 0.2926(2)
C14 C 0.5347(5) -0.9668(4) 0.8980(2)
C15 C -0.1402(5) -0.8439(4) 0.1470(2)
C16 C 0.5368(6) -0.6094(4) 0.3667(2)
C17 C 0.4451(5) -0.9476(4) 0.7211(2)
H8 H 0.3930 -0.9841 0.6992
C18 C 0.0878(5) -0.7810(4) 0.3549(2)
H9 H -0.0154 -0.7928 0.3710
C19 C 0.3073(5) -0.7876(4) 0.2719(2)
H10 H 0.3493 -0.8033 0.2323
C20 C 0.8632(5) -0.4091(4) 0.2416(2)
C21 C 0.9050(6) -0.2348(4) 0.1658(2)
H11 H 0.8660 -0.1602 0.1463
C22 C 0.4049(5) -0.7539(4) 0.3091(2)
H12 H 0.5115 -0.7482 0.2950
C23 C 0.5882(6) -0.4658(4) 0.2682(2)
H13 H 0.5514 -0.4148 0.2286
C24 C -0.2053(6) -0.7681(4) 0.1842(2)
H14 H -0.3083 -0.7257 0.1756
C25 C 0.0099(5) -0.9143(4) 0.1631(2)
H15 H 0.0484 -0.9690 0.1414
C26 C 0.4468(5) -0.7249(4) 0.4734(2)
C27 C 0.4841(6) -0.5305(4) 0.3077(2)
H16 H 0.3783 -0.5214 0.2950
C28 C 0.7973(5) -0.5498(4) 0.3473(2)
H17 H 0.9003 -0.5551 0.3619
C29 C 0.3408(5) -0.7284(4) 0.3686(2)
C30 C 0.8053(6) -0.2978(4) 0.2101(2)
H18 H 0.6993 -0.2658 0.2189
C31 C 0.6938(5) -0.6162(4) 0.3869(2)
H19 H 0.7291 -0.6657 0.4271
C32 C 0.4434(6) -0.6535(4) 0.5139(2)
H20 H 0.4257 -0.5773 0.4951
C33 C 0.1001(5) -0.9017(4) 0.2116(2)
H21 H 0.2015 -0.9462 0.2211
C34 C 1.1268(6) -0.3932(4) 0.1827(2)
H22 H 1.2333 -0.4246 0.1742
C35 C 0.4896(5) -0.8110(4) 0.6114(2)
C36 C 0.4698(6) -0.8392(4) 0.5030(2)
H23 H 0.4715 -0.8870 0.4767
C37 C 0.1840(5) -0.7458(4) 0.3924(2)
H24 H 0.1444 -0.7338 0.4332
C38 C 0.4900(6) -0.8817(4) 0.5712(2)
H25 H 0.5039 -0.9578 0.5903
C39 C 0.4662(5) -0.6965(4) 0.5811(2)
H26 H 0.4662 -0.6487 0.6072
C40 C 0.3115(8) -0.6152(7) 0.9878(6)
C41 C 0.2179(10) -0.6567(7) 1.0910(3)
H27 H 0.1332 -0.6258 1.1179
H28 H 0.3178 -0.6774 1.1139
H29 H 0.1906 -0.7209 1.0830
C42 C 0.3508(11) -0.5195(6) 0.9147(3)
H30 H 0.4070 -0.5571 0.8832
H31 H 0.4169 -0.4727 0.9234
H32 H 0.2506 -0.4753 0.8966
C43 C 0.1729(9) -0.4477(5) 1.0189(4)
H33 H 0.1277 -0.4490 1.0629
H34 H 0.0896 -0.4154 0.9870
H35 H 0.2572 -0.4045 1.0087
Mg1A Mg 0.43397(17) -1.17006(11) 1.00053(7)
O1A O 0.6411(4) -1.2902(2) 1.01464(17)
O3A O 1.3594(4) -1.2287(3) 1.92675(16)
O4A O 1.1891(4) -1.0779(3) 1.94120(15)
O5A O -0.2931(4) -1.7378(3) 1.92687(15)
O6A O -0.1092(4) -1.8911(2) 1.92081(15)
O7A O 0.4418(4) -0.9300(3) 1.07450(15)
O8A O 0.4853(4) -1.1084(3) 1.07234(15)
N1A N 0.5663(5) -1.3177(3) 1.59646(18)
N2A N 0.7602(9) -1.4403(7) 0.9841(6)
C1A C 0.5425(5) -1.0155(4) 1.2112(2)
H3A H 0.5843 -0.9530 1.1877
C2A C 0.4679(5) -1.0701(4) 1.1765(2)
C3A C 0.4063(5) -1.1959(4) 1.2813(2)
H4A H 0.3549 -1.2537 1.3051
C4A C 0.4005(5) -1.1610(4) 1.2129(2)
H5A H 0.3511 -1.1985 1.1907
C5A C -0.1644(5) -1.7862(4) 1.9036(2)
C6A C 0.4893(5) -1.1451(4) 1.3157(2)
C7A C 1.1167(6) -1.2436(4) 1.7662(2)
H6A H 1.1600 -1.2940 1.7420
C8A C 0.9606(5) -1.1788(4) 1.7527(2)
C9A C 0.2506(5) -1.5248(4) 1.7137(2)
C10A C -0.0278(6) -1.5445(4) 1.7720(2)
H7A H -0.0692 -1.4713 1.7501
C11A C -0.0651(6) -1.7179(4) 1.8503(2)
C12A C 1.2342(5) -1.1537(4) 1.9107(2)
C13A C 0.8543(5) -1.2012(4) 1.7074(2)
C14A C 0.4653(5) -1.0332(4) 1.1020(2)
C15A C 1.1402(5) -1.1561(4) 1.8530(2)
C16A C 0.4632(6) -1.3906(4) 1.6333(2)
C17A C 0.5549(5) -1.0524(4) 1.2789(2)
H8A H 0.6070 -1.0159 1.3008
C18A C 0.9122(5) -1.2190(4) 1.6451(2)
H9A H 1.0154 -1.2072 1.6290
C19A C 0.6927(5) -1.2124(4) 1.7281(2)
H10A H 0.6507 -1.1967 1.7677
C20A C 0.1368(5) -1.5909(4) 1.7584(2)
C21A C 0.0950(6) -1.7652(4) 1.8342(2)
H11A H 0.1340 -1.8398 1.8537
C22A C 0.5951(5) -1.2461(4) 1.6909(2)
H12A H 0.4885 -1.2518 1.7050
C23A C 0.4118(6) -1.5342(4) 1.7318(2)
H13A H 0.4486 -1.5852 1.7714
C24A C 1.2053(6) -1.2319(4) 1.8158(2)
H14A H 1.3083 -1.2743 1.8244
C25A C 0.9901(5) -1.0857(4) 1.8369(2)
H15A H 0.9516 -1.0310 1.8586
C26A C 0.5532(5) -1.2751(4) 1.5266(2)
C27A C 0.5159(6) -1.4695(4) 1.6923(2)
H16A H 0.6217 -1.4786 1.7050
C28A C 0.2027(5) -1.4502(4) 1.6527(2)
H17A H 0.0997 -1.4449 1.6381
C29A C 0.6592(5) -1.2716(4) 1.6314(2)
C30A C 0.1947(6) -1.7022(4) 1.7899(2)
H18A H 0.3007 -1.7342 1.7811
C31A C 0.3062(5) -1.3838(4) 1.6131(2)
H19A H 0.2709 -1.3343 1.5729
C32A C 0.5566(6) -1.3465(4) 1.4861(2)
H20A H 0.5743 -1.4227 1.5049
C33A C 0.8999(5) -1.0983(4) 1.7884(2)
H21A H 0.7985 -1.0538 1.7789
C34A C -0.1268(6) -1.6068(4) 1.8173(2)
H22A H -0.2333 -1.5754 1.8258
C35A C 0.5104(5) -1.1890(4) 1.3886(2)
C36A C 0.5302(6) -1.1608(4) 1.4970(2)
H23A H 0.5285 -1.1130 1.5233
C37A C 0.8160(5) -1.2542(4) 1.6076(2)
H24A H 0.8556 -1.2662 1.5668
C38A C 0.5100(6) -1.1183(4) 1.4288(2)
H25A H 0.4961 -1.0422 1.4097
C39A C 0.5338(5) -1.3035(4) 1.4189(2)
H26A H 0.5338 -1.3513 1.3928
C40A C 0.6885(8) -1.3848(7) 1.0122(6)
C41A C 0.7821(10) -1.3433(7) 0.9090(3)
H27A H 0.8668 -1.3742 0.8821
H28A H 0.6822 -1.3226 0.8861
H29A H 0.8094 -1.2791 0.9170
C42A C 0.6492(11) -1.4805(6) 1.0853(3)
H30A H 0.5930 -1.4429 1.1168
H31A H 0.5831 -1.5273 1.0766
H32A H 0.7494 -1.5247 1.1034
C43A C 0.8271(9) -1.5523(5) 0.9811(4)
H33A H 0.8723 -1.5510 0.9371
H34A H 0.9104 -1.5846 1.0130
H35A H 0.7428 -1.5955 0.9913
O2A O 1.1504(4) 0.1118(3) 0.00163(15)
H1A H 1.1327 0.1842 -0.0203
H2A H 1.2274 0.0792 0.0252
Mg1_2 Mg -0.43397(17) -1.82994(11) 1.99947(7)
Mg1_3 Mg -0.43397(17) -0.82994(11) -0.00053(7)
Mg1A_2 Mg 1.43397(17) -1.17006(11) 2.00053(7)
Mg1A_3 Mg 1.43397(17) -0.17006(11) 0.00053(7)
Mg2_2 Mg 0.0000 -2.0000 2.0000
Mg2_3 Mg 0.0000 -1.0000 0.0000
Mg2_4 Mg 1.0000 -1.0000 2.0000
O3_2 O 0.6406(4) -0.7713(3) 1.07325(16)
O3A_2 O 0.3594(4) -1.2287(3) 0.92675(16)
O4_2 O 0.8109(4) -0.9221(3) 1.05880(15)
O4_3 O 0.8109(4) 0.0779(3) 0.05880(15)
O4A_2 O 0.1891(4) -1.0779(3) 0.94120(15)
O4A_3 O 1.1891(4) -0.0779(3) -0.05880(15)
O5_2 O 0.2931(4) -1.2622(3) 1.07313(15)
O5A_2 O 0.7069(4) -0.7378(3) 0.92687(15)
O6A_2 O 0.8908(4) 0.1089(2) -0.07919(15)
loop_
_geom_bond_atom_site_label_1
_geom_bond_atom_site_label_2
_geom_bond_site_symmetry_1
_geom_bond_site_symmetry_2
Mg1 O1 1_555 1_555
Mg2 O2 1_555 1_555
O1 C40 1_555 1_555
O2 H1 1_555 1_555
H2 O2 1_555 1_555
O3 C12 1_555 1_555
O4 C12 1_555 1_555
O5 C5 1_555 1_555
O6 Mg2 1_555 1_555
O7 C14 1_555 1_555
O8 Mg1 1_555 1_555
N1 C16 1_555 1_555
N2 C40 1_555 1_555
C1 H3 1_555 1_555
C2 C1 1_555 1_555
C3 H4 1_555 1_555
C4 C2 1_555 1_555
H5 C4 1_555 1_555
C5 O6 1_555 1_555
C6 C3 1_555 1_555
C7 H6 1_555 1_555
C8 C7 1_555 1_555
C9 C20 1_555 1_555
C10 H7 1_555 1_555
C11 C5 1_555 1_555
C12 C15 1_555 1_555
C13 C8 1_555 1_555
C14 O8 1_555 1_555
C15 C24 1_555 1_555
C16 C27 1_555 1_555
C17 C1 1_555 1_555
H8 C17 1_555 1_555
C18 C13 1_555 1_555
H9 C18 1_555 1_555
C19 C13 1_555 1_555
H10 C19 1_555 1_555
C20 C10 1_555 1_555
C21 C11 1_555 1_555
H11 C21 1_555 1_555
C22 C19 1_555 1_555
H12 C22 1_555 1_555
C23 C9 1_555 1_555
H13 C23 1_555 1_555
C24 C7 1_555 1_555
H14 C24 1_555 1_555
C25 C15 1_555 1_555
H15 C25 1_555 1_555
C26 N1 1_555 1_555
C27 C23 1_555 1_555
H16 C27 1_555 1_555
C28 C9 1_555 1_555
H17 C28 1_555 1_555
C29 N1 1_555 1_555
C30 C20 1_555 1_555
H18 C30 1_555 1_555
C31 C16 1_555 1_555
H19 C31 1_555 1_555
C32 C26 1_555 1_555
H20 C32 1_555 1_555
C33 C8 1_555 1_555
H21 C33 1_555 1_555
C34 C10 1_555 1_555
H22 C34 1_555 1_555
C35 C6 1_555 1_555
C36 C26 1_555 1_555
H23 C36 1_555 1_555
C37 C18 1_555 1_555
H24 C37 1_555 1_555
C38 C35 1_555 1_555
H25 C38 1_555 1_555
C39 C32 1_555 1_555
H26 C39 1_555 1_555
C40 C42 1_555 1_555
C41 N2 1_555 1_555
H27 C41 1_555 1_555
H28 C41 1_555 1_555
H29 C41 1_555 1_555
C42 H30 1_555 1_555
H31 C42 1_555 1_555
H32 C42 1_555 1_555
C43 N2 1_555 1_555
H33 C43 1_555 1_555
H34 C43 1_555 1_555
H35 C43 1_555 1_555
Mg1A O7 1_555 1_555
O1A Mg1A 1_555 1_555
O3A C12A 1_555 1_555
O4A C12A 1_555 1_555
O5A C5A 1_555 1_555
O6A C5A 1_555 1_555
O7A Mg1 1_555 1_555
O8A Mg1A 1_555 1_555
N1A C16A 1_555 1_555
N2A C40A 1_555 1_555
C1A H3A 1_555 1_555
C2A C1A 1_555 1_555
C3A H4A 1_555 1_555
C4A C2A 1_555 1_555
H5A C4A 1_555 1_555
C5A C11A 1_555 1_555
C6A C3A 1_555 1_555
C7A H6A 1_555 1_555
C8A C7A 1_555 1_555
C9A C20A 1_555 1_555
C10A H7A 1_555 1_555
C11A C21A 1_555 1_555
C12A C15A 1_555 1_555
C13A C8A 1_555 1_555
C14A O7A 1_555 1_555
C15A C24A 1_555 1_555
C16A C27A 1_555 1_555
C17A C1A 1_555 1_555
H8A C17A 1_555 1_555
C18A C13A 1_555 1_555
H9A C18A 1_555 1_555
C19A C13A 1_555 1_555
H10A C19A 1_555 1_555
C20A C10A 1_555 1_555
C21A H11A 1_555 1_555
C22A C19A 1_555 1_555
H12A C22A 1_555 1_555
C23A C9A 1_555 1_555
H13A C23A 1_555 1_555
C24A C7A 1_555 1_555
H14A C24A 1_555 1_555
C25A C15A 1_555 1_555
H15A C25A 1_555 1_555
C26A N1A 1_555 1_555
C27A C23A 1_555 1_555
H16A C27A 1_555 1_555
C28A C9A 1_555 1_555
H17A C28A 1_555 1_555
C29A N1A 1_555 1_555
C30A C20A 1_555 1_555
H18A C30A 1_555 1_555
C31A C16A 1_555 1_555
H19A C31A 1_555 1_555
C32A C26A 1_555 1_555
H20A C32A 1_555 1_555
C33A C8A 1_555 1_555
H21A C33A 1_555 1_555
C34A C10A 1_555 1_555
H22A C34A 1_555 1_555
C35A C6A 1_555 1_555
C36A C26A 1_555 1_555
H23A C36A 1_555 1_555
C37A C18A 1_555 1_555
H24A C37A 1_555 1_555
C38A C35A 1_555 1_555
H25A C38A 1_555 1_555
C39A C32A 1_555 1_555
H26A C39A 1_555 1_555
C40A O1A 1_555 1_555
C41A N2A 1_555 1_555
H27A C41A 1_555 1_555
H28A C41A 1_555 1_555
H29A C41A 1_555 1_555
C42A C40A 1_555 1_555
H30A C42A 1_555 1_555
H31A C42A 1_555 1_555
H32A C42A 1_555 1_555
C43A N2A 1_555 1_555
H33A C43A 1_555 1_555
H34A C43A 1_555 1_555
H35A C43A 1_555 1_555
O2A Mg2 1_555 1_555
H1A O2A 1_555 1_555
H2A O2A 1_555 1_555
Mg1_2 O5A 1_555 1_555
Mg1_3 O3 1_555 1_555
Mg1A_2 O3A 1_555 1_555
Mg1A_3 O5 1_555 1_555
Mg2_2 O6A 1_555 1_555
Mg2_3 O4 1_555 1_555
Mg2_4 O4A 1_555 1_555
O3_2 Mg1 1_555 1_555
O3A_2 Mg1A 1_555 1_555
O4_2 Mg1 1_555 1_555
O4_3 Mg2 1_555 1_555
O4A_2 Mg1A 1_555 1_555
O4A_3 Mg2 1_555 1_555
O5_2 Mg1A 1_555 1_555
O5A_2 Mg1 1_555 1_555
O6A_2 Mg2 1_555 1_555
O4 Mg1_3 1_555 1_555
C2 C14 1_555 1_555
C3 C4 1_555 1_555
C6 C17 1_555 1_555
C11 C34 1_555 1_555
C21 C30 1_555 1_555
C22 C29 1_555 1_555
C25 C33 1_555 1_555
C28 C31 1_555 1_555
C29 C37 1_555 1_555
C35 C39 1_555 1_555
C36 C38 1_555 1_555
O4A Mg1A_2 1_555 1_555
O8A C14A 1_555 1_555
C2A C14A 1_555 1_555
C3A C4A 1_555 1_555
C6A C17A 1_555 1_555
C11A C34A 1_555 1_555
C21A C30A 1_555 1_555
C22A C29A 1_555 1_555
C25A C33A 1_555 1_555
C28A C31A 1_555 1_555
C29A C37A 1_555 1_555
C35A C39A 1_555 1_555
C36A C38A 1_555 1_555
Mg1A_3 O4A_3 1_555 1_555

#END
