
#######################################################################
#
#                 Cambridge Crystallographic Data Centre
#                                CCDC 
#
#######################################################################
#
# If this CIF has been generated from an entry in the Cambridge 
# Structural Database, then it will include bibliographic, chemical, 
# crystal, experimental, refinement or atomic coordinate data resulting 
# from the CCDC's data processing and validation procedures.
#
#######################################################################

data_CENQAP
_symmetry_cell_setting           orthorhombic
_symmetry_space_group_name_H-M   'P n a 21'
_symmetry_Int_Tables_number      33
_space_group_name_Hall           'P 2c -2n'
loop_
_symmetry_equiv_pos_site_id
_symmetry_equiv_pos_as_xyz
1 x,y,z
2 -x,-y,1/2+z
3 1/2+x,1/2-y,z
4 1/2-x,1/2+y,1/2+z
_cell_length_a                   30.1777(17)
_cell_length_b                   21.4903(16)
_cell_length_c                   33.5299(18)
_cell_angle_alpha                90
_cell_angle_beta                 90
_cell_angle_gamma                90
_cell_volume                     21745.1
loop_
_atom_site_label
_atom_site_type_symbol
_atom_site_fract_x
_atom_site_fract_y
_atom_site_fract_z
Zn1 Zn -0.10259(4) 0.27502(6) 0.02990(4)
Zn2 Zn 0.00923(4) 0.21363(6) 0.05138(4)
Zn3 Zn -0.12944(4) -0.23172(6) -0.42736(4)
Zn4 Zn -0.23681(3) -0.22560(6) -0.46907(4)
O1 O -0.2400(2) 0.6993(3) -0.4382(2)
O2 O -0.1833(2) 0.7341(3) -0.4001(2)
O3 O -0.04151(19) 0.2731(3) 0.00971(16)
O4 O 0.0056(2) 0.1961(3) -0.0054(2)
O5 O -0.3618(2) -0.2385(3) -0.51800(18)
O6 O -0.2954(2) -0.2189(4) -0.4889(2)
O7 O 0.0211(2) -0.7078(3) -0.9231(2)
O8 O 0.0924(2) -0.6947(3) -0.9103(2)
O9 O -0.1047(2) 0.1963(4) -0.9448(3)
O10 O -0.0377(2) 0.1734(3) -0.9185(2)
O11 O 0.1061(2) 0.1750(4) -0.8847(2)
O12 O 0.0610(2) 0.1624(4) -0.9381(2)
O13 O -0.1292(2) -0.2654(3) -0.48317(18)
O14 O -0.1972(2) -0.2499(4) -0.5114(2)
O15 O -0.2383(2) -0.1443(3) -0.44243(19)
O16 O -0.1640(2) -0.1488(3) -0.45051(19)
N1 N -0.1889(3) -0.2272(5) -0.7947(3)
N2 N -0.1501(2) 0.2750(4) -0.2923(2)
N3 N -0.0201(2) -0.2671(4) -0.7858(2)
C1 C -0.1796(3) -0.2840(6) -0.8128(4)
C2 C -0.1624(3) 0.3347(5) -0.3055(3)
C3 C -0.1575(3) 0.2223(5) -0.3155(3)
C4 C -0.1284(3) 0.2692(6) -0.2540(3)
C5 C -0.1984(3) 0.2113(5) -0.3319(3)
H1 H -0.2208 0.2401 -0.3270
C6 C -0.0093(3) -0.2080(6) -0.8016(3)
C7 C -0.1740(4) -0.1694(5) -0.8128(3)
C8 C -0.1857(3) 0.4510(5) -0.3372(4)
C9 C -0.0230(4) 0.2325(6) -0.0155(3)
C10 C -0.1956(3) 0.5122(5) -0.3556(4)
C11 C 0.0056(3) -0.1420(6) -0.8584(3)
H2 H 0.0064 -0.1379 -0.8860
C12 C -0.0091(4) -0.3221(5) -0.8060(3)
C13 C -0.0331(3) 0.1933(6) -0.0865(4)
H3 H -0.0193 0.1569 -0.0779
C14 C -0.1445(3) -0.0604(6) -0.8469(3)
C15 C 0.0415(4) -0.6136(5) -0.8938(3)
C16 C -0.0970(4) -0.2772(5) -0.6300(3)
C17 C -0.0850(3) 0.2600(8) -0.1802(4)
C18 C 0.0240(4) -0.4985(5) -0.8606(3)
C19 C -0.2688(4) -0.2153(6) -0.6406(3)
C20 C -0.1285(3) 0.2112(6) -0.2341(3)
H4 H -0.1433 0.1770 -0.2447
C21 C -0.1606(3) -0.2704(6) -0.5867(3)
H5 H -0.1912 -0.2712 -0.5831
C22 C -0.1303(6) -0.5613(12) -0.9166(10)
C23 C -0.2086(3) 0.6301(6) -0.3911(3)
C24 C -0.3234(4) -0.2513(6) -0.5920(4)
H6 H -0.3487 -0.2749 -0.5872
C25 C -0.1840(4) 0.5691(6) -0.3348(3)
H7 H -0.1721 0.5673 -0.3093
C26 C -0.2081(4) -0.2249(7) -0.7555(4)
C27 C -0.1798(3) 0.3796(5) -0.2811(3)
H8 H -0.1847 0.3715 -0.2542
C28 C -0.2507(3) -0.2183(7) -0.6796(4)
C29 C -0.0660(4) 0.2473(7) -0.1387(3)
C30 C -0.0068(3) -0.1975(6) -0.8418(3)
H9 H -0.0140 -0.2301 -0.8589
C31 C 0.0337(4) 0.0377(6) -0.9087(3)
H10 H 0.0260 0.0473 -0.9348
C32 C -0.0374(3) -0.2688(5) -0.7458(4)
C33 C -0.2302(4) -0.0287(7) -0.4045(4)
H11 H -0.2583 -0.0465 -0.4042
C34 C -0.0887(3) -0.2756(6) -0.5578(3)
H12 H -0.0701 -0.2768 -0.5357
C35 C -0.0778(3) -0.2751(6) -0.6704(4)
C36 C -0.3042(4) -0.2206(6) -0.5618(3)
C37 C 0.0112(4) -0.4345(5) -0.8422(3)
C38 C -0.1485(4) 0.0305(6) -0.4054(4)
H13 H -0.1210 0.0499 -0.4070
C39 C 0.0228(3) -0.0151(6) -0.8935(3)
H14 H 0.0099 -0.0447 -0.9101
C40 C -0.1959(4) -0.0599(6) -0.4243(4)
C41 C 0.0534(4) -0.6762(6) -0.9100(3)
C42 C -0.1300(4) 0.0007(6) -0.8669(4)
C43 C -0.1747(3) 0.1154(5) -0.3618(3)
C44 C -0.2219(4) 0.5770(6) -0.4090(3)
H15 H -0.2365 0.5796 -0.4333
C45 C 0.0318(3) -0.3319(5) -0.8214(3)
H16 H 0.0533 -0.3011 -0.8195
C46 C 0.0296(3) -0.0307(5) -0.8518(4)
C47 C -0.0107(3) -0.5382(7) -0.8782(4)
H17 H -0.0401 -0.5254 -0.8783
C48 C -0.1908(3) 0.6256(6) -0.3530(4)
H18 H -0.1832 0.6618 -0.3395
C49 C -0.0406(4) -0.3675(6) -0.8079(3)
H19 H -0.0684 -0.3607 -0.7969
C50 C -0.1406(4) 0.0896(6) -0.9069(4)
H20 H -0.1592 0.1148 -0.9219
C51 C -0.2021(4) -0.1212(6) -0.8174(3)
H21 H -0.2313 -0.1255 -0.8087
C52 C -0.1052(4) 0.2071(6) -0.1976(4)
H22 H -0.1031 0.1688 -0.1847
C53 C -0.1321(3) 0.1275(6) -0.3442(3)
H23 H -0.1093 0.0990 -0.3476
C54 C 0.0036(3) -0.1585(5) -0.7781(4)
H24 H 0.0040 -0.1635 -0.7505
C55 C -0.1304(4) -0.1642(5) -0.8257(3)
H25 H -0.1107 -0.1971 -0.8225
C56 C -0.2084(3) 0.1599(6) -0.3552(3)
H26 H -0.2365 0.1548 -0.3661
C57 C -0.0466(4) 0.1966(7) -0.1250(4)
H27 H -0.0422 0.1629 -0.1419
C58 C 0.0168(3) -0.0922(5) -0.8347(4)
C59 C -0.3180(5) -0.2267(6) -0.5175(4)
C60 C -0.1987(4) -0.1231(6) -0.4416(3)
C61 C -0.2110(4) 0.6919(6) -0.4103(3)
C62 C -0.0869(4) 0.3146(6) -0.2033(4)
H28 H -0.0733 0.3498 -0.1928
C63 C -0.1825(4) 0.0584(5) -0.3850(3)
C64 C 0.0656(3) 0.0684(6) -0.8450(3)
H29 H 0.0806 0.0981 -0.8299
C65 C -0.1465(4) -0.4512(7) -0.8773(6)
C66 C -0.1707(3) 0.4028(7) -0.3623(3)
H30 H -0.1689 0.4095 -0.3897
C67 C 0.0527(4) 0.0147(6) -0.8273(3)
H31 H 0.0584 0.0073 -0.8004
C68 C -0.1245(4) 0.1818(6) -0.3218(3)
H32 H -0.0966 0.1895 -0.3113
C69 C -0.1571(4) 0.0367(7) -0.8887(4)
H33 H -0.1869 0.0262 -0.8915
C70 C -0.1706(3) -0.3414(7) -0.8756(4)
H34 H -0.1722 -0.3412 -0.9033
C71 C -0.1667(4) -0.3359(7) -0.7932(4)
H35 H -0.1636 -0.3341 -0.7656
C72 C -0.3061(4) -0.2484(7) -0.6305(4)
H36 H -0.3207 -0.2701 -0.6506
C73 C -0.2237(3) 0.0280(7) -0.3852(4)
H37 H -0.2475 0.0464 -0.3721
C74 C -0.1333(4) -0.2684(5) -0.5545(3)
C75 C -0.1899(3) 0.4364(5) -0.2969(3)
H38 H -0.2002 0.4672 -0.2797
C76 C 0.0657(3) -0.5211(7) -0.8637(3)
H39 H 0.0893 -0.4968 -0.8551
C77 C -0.2562(3) -0.2666(6) -0.7065(4)
H40 H -0.2740 -0.2995 -0.6984
C78 C -0.2149(3) 0.5201(6) -0.3930(3)
H41 H -0.2232 0.4851 -0.4075
C79 C -0.1063(4) 0.3204(6) -0.2385(3)
H42 H -0.1052 0.3577 -0.2525
C80 C -0.1424(4) -0.2712(6) -0.6255(3)
H43 H -0.1607 -0.2678 -0.6477
C81 C -0.0861(4) 0.0225(6) -0.8595(4)
H44 H -0.0680 0.0001 -0.8422
C82 C -0.0732(4) -0.2330(6) -0.7364(3)
H45 H -0.0856 -0.2075 -0.7559
C83 C -0.0913(4) -0.2339(6) -0.6993(4)
H46 H -0.1136 -0.2055 -0.6932
C84 C -0.1891(4) -0.0660(6) -0.8345(3)
H47 H -0.2090 -0.0334 -0.8379
C85 C 0.0737(3) -0.5775(5) -0.8790(4)
H48 H 0.1027 -0.5922 -0.8793
C86 C -0.0265(3) -0.3103(6) -0.7182(4)
H49 H -0.0054 -0.3399 -0.7250
C87 C -0.1556(4) -0.0287(6) -0.4245(3)
H50 H -0.1318 -0.0471 -0.4377
C88 C -0.2384(3) -0.2705(6) -0.7432(4)
H51 H -0.2460 -0.3030 -0.7602
C89 C -0.1579(3) -0.3923(7) -0.8127(5)
H52 H -0.1516 -0.4279 -0.7980
C90 C -0.0384(3) 0.2391(8) -0.0606(3)
C91 C 0.0006(4) -0.5919(5) -0.8937(3)
H53 H -0.0215 -0.6161 -0.9054
C92 C -0.0707(4) 0.0721(6) -0.8760(4)
H54 H -0.0422 0.0859 -0.8700
C93 C -0.1589(3) 0.3472(6) -0.3470(4)
H55 H -0.1483 0.3164 -0.3639
C94 C -0.0582(3) 0.2978(6) -0.0737(4)
H56 H -0.0610 0.3322 -0.0571
C95 C -0.1802(3) -0.2884(6) -0.8535(5)
H57 H -0.1876 -0.2526 -0.8676
C96 C -0.0969(4) 0.1049(5) -0.9028(3)
C97 C -0.1587(3) -0.3948(7) -0.8548(5)
C98 C 0.0155(3) -0.1032(6) -0.7936(3)
H58 H 0.0233 -0.0711 -0.7764
C99 C -0.1171(3) -0.1104(6) -0.8430(3)
H59 H -0.0882 -0.1075 -0.8525
C100 C -0.1500(4) -0.5057(9) -0.8586(5)
H60 H -0.1597 -0.5057 -0.8322
C101 C -0.1992(4) -0.1727(6) -0.7304(4)
H61 H -0.1804 -0.1408 -0.7386
C102 C -0.2193(4) -0.1711(6) -0.6937(4)
H62 H -0.2126 -0.1382 -0.6767
C103 C 0.0413(4) -0.3878(7) -0.8398(3)
H63 H 0.0693 -0.3937 -0.8508
C104 C -0.1563(6) -0.2590(5) -0.5128(3)
C105 C -0.1219(6) -0.508(2) -0.9321(7)
H64 H -0.1072 -0.5096 -0.9564
C106 C -0.2675(4) -0.1843(6) -0.5723(4)
H65 H -0.2539 -0.1607 -0.5525
C107 C -0.0316(4) -0.4208(6) -0.8252(3)
H66 H -0.0537 -0.4509 -0.8265
C108 C -0.0430(4) -0.3129(6) -0.6824(4)
H67 H -0.0311 -0.3410 -0.6643
C109 C -0.0720(4) 0.2977(6) -0.1122(4)
H68 H -0.0863 0.3330 -0.1217
C110 C -0.1321(8) -0.4402(11) -0.9170(6)
H69 H -0.1294 -0.4026 -0.9305
C111 C 0.0573(4) 0.0808(7) -0.8854(4)
C112 C -0.2510(4) -0.1817(6) -0.6087(4)
H70 H -0.2266 -0.1564 -0.6133
C113 C -0.0726(3) -0.2809(6) -0.5965(4)
H71 H -0.0423 -0.2876 -0.5995
C114 C 0.0747(5) 0.1475(6) -0.9051(6)
C115 C -0.0783(5) 0.1665(6) -0.9250(4)
C116 C -0.1396(5) -0.5651(9) -0.8770(6)
H72 H -0.1393 -0.6024 -0.8630
O17 O -0.1093(3) -0.6152(5) -0.9767(4)
O18 O -0.1133(5) -0.6670(6) -0.9213(3)
C117 C -0.1131(8) -0.6339(15) -0.9424(4)
Zn1_2 Zn -0.10259(4) -0.72498(6) -0.97010(4)
Zn1_3 Zn -0.10259(4) 0.27502(6) -0.97010(4)
Zn1C Zn -0.39741(4) -0.22498(6) -0.47010(4)
Zn2_2 Zn 0.00923(4) -0.78637(6) -0.94862(4)
Zn2_3 Zn 0.00923(4) 0.21363(6) -0.94862(4)
Zn3_2 Zn -0.12944(4) 0.76828(6) -0.42736(4)
Zn3A Zn 0.12944(4) -0.76828(6) -0.92736(4)
Zn3A_2 Zn 0.12944(4) 0.23172(6) -0.92736(4)
Zn4_2 Zn -0.23681(3) 0.77440(6) -0.46907(4)
O1_2 O -0.2400(2) -0.3007(3) -0.4382(2)
O2_2 O -0.1833(2) -0.2659(3) -0.4001(2)
O5C O -0.1382(2) 0.2615(3) -0.01800(18)
O7_2 O 0.0211(2) 0.2922(3) 0.0769(2)
O8A O -0.0924(2) -0.3053(3) -0.4103(2)
O9_2 O -0.1047(2) 0.1963(4) 0.0552(3)
O10_2 O -0.0377(2) 0.1734(3) 0.0815(2)
O11A O -0.1061(2) -0.1750(4) -0.3847(2)
O12_2 O 0.0610(2) 0.1624(4) 0.0619(2)
O12A O -0.0610(2) -0.1624(4) -0.4381(2)
O17_2 O -0.1093(3) 0.3848(5) 0.0233(4)
O18_2 O -0.1133(5) 0.3330(6) 0.0787(3)
loop_
_geom_bond_atom_site_label_1
_geom_bond_atom_site_label_2
_geom_bond_site_symmetry_1
_geom_bond_site_symmetry_2
Zn1 O3 1_555 1_555
Zn2 O3 1_555 1_555
Zn3 O13 1_555 1_555
Zn4 O6 1_555 1_555
O1 C61 1_555 1_555
O2 C61 1_555 1_555
O3 C9 1_555 1_555
O4 Zn2 1_555 1_555
O5 C59 1_555 1_555
O6 C59 1_555 1_555
O7 C41 1_555 1_555
O8 C41 1_555 1_555
O9 C115 1_555 1_555
O10 C115 1_555 1_555
O11 C114 1_555 1_555
O12 C114 1_555 1_555
O13 C104 1_555 1_555
O14 Zn4 1_555 1_555
O15 Zn4 1_555 1_555
O16 Zn3 1_555 1_555
N1 C1 1_555 1_555
N2 C2 1_555 1_555
N3 C6 1_555 1_555
C1 C71 1_555 1_555
C2 C27 1_555 1_555
C3 N2 1_555 1_555
C4 N2 1_555 1_555
C5 C3 1_555 1_555
H1 C5 1_555 1_555
C6 C30 1_555 1_555
C7 N1 1_555 1_555
C8 C10 1_555 1_555
C9 O4 1_555 1_555
C10 C25 1_555 1_555
C11 H2 1_555 1_555
C12 N3 1_555 1_555
C13 H3 1_555 1_555
C14 C42 1_555 1_555
C15 C41 1_555 1_555
C16 C35 1_555 1_555
C17 C29 1_555 1_555
C18 C37 1_555 1_555
C19 C28 1_555 1_555
C20 C4 1_555 1_555
H4 C20 1_555 1_555
C21 H5 1_555 1_555
C22 C105 1_555 1_555
C23 C44 1_555 1_555
C24 H6 1_555 1_555
C25 H7 1_555 1_555
C26 N1 1_555 1_555
C27 H8 1_555 1_555
C28 C77 1_555 1_555
C29 C57 1_555 1_555
C30 C11 1_555 1_555
H9 C30 1_555 1_555
C31 H10 1_555 1_555
C32 N3 1_555 1_555
C33 H11 1_555 1_555
C34 H12 1_555 1_555
C35 C83 1_555 1_555
C36 C24 1_555 1_555
C37 C103 1_555 1_555
C38 H13 1_555 1_555
C39 C31 1_555 1_555
H14 C39 1_555 1_555
C40 C33 1_555 1_555
C42 C69 1_555 1_555
C43 C53 1_555 1_555
C44 H15 1_555 1_555
C45 C12 1_555 1_555
H16 C45 1_555 1_555
C46 C39 1_555 1_555
C47 C18 1_555 1_555
H17 C47 1_555 1_555
C48 C23 1_555 1_555
H18 C48 1_555 1_555
C49 C12 1_555 1_555
H19 C49 1_555 1_555
C50 H20 1_555 1_555
C51 C7 1_555 1_555
H21 C51 1_555 1_555
C52 C17 1_555 1_555
H22 C52 1_555 1_555
C53 H23 1_555 1_555
C54 C6 1_555 1_555
H24 C54 1_555 1_555
C55 C7 1_555 1_555
H25 C55 1_555 1_555
C56 C5 1_555 1_555
H26 C56 1_555 1_555
C57 C13 1_555 1_555
H27 C57 1_555 1_555
C58 C11 1_555 1_555
C59 C36 1_555 1_555
C60 O15 1_555 1_555
C61 C23 1_555 1_555
C62 C17 1_555 1_555
H28 C62 1_555 1_555
C63 C38 1_555 1_555
C64 H29 1_555 1_555
C65 C97 1_555 1_555
C66 C8 1_555 1_555
H30 C66 1_555 1_555
C67 C46 1_555 1_555
H31 C67 1_555 1_555
C68 C3 1_555 1_555
H32 C68 1_555 1_555
C69 C50 1_555 1_555
H33 C69 1_555 1_555
C70 H34 1_555 1_555
C71 H35 1_555 1_555
C72 C19 1_555 1_555
H36 C72 1_555 1_555
C73 C33 1_555 1_555
H37 C73 1_555 1_555
C74 C21 1_555 1_555
C75 C8 1_555 1_555
H38 C75 1_555 1_555
C76 C18 1_555 1_555
H39 C76 1_555 1_555
C77 H40 1_555 1_555
C78 C10 1_555 1_555
H41 C78 1_555 1_555
C79 C4 1_555 1_555
H42 C79 1_555 1_555
C80 C16 1_555 1_555
H43 C80 1_555 1_555
C81 C42 1_555 1_555
H44 C81 1_555 1_555
C82 C32 1_555 1_555
H45 C82 1_555 1_555
C83 C82 1_555 1_555
H46 C83 1_555 1_555
C84 C14 1_555 1_555
H47 C84 1_555 1_555
C85 C15 1_555 1_555
H48 C85 1_555 1_555
C86 C32 1_555 1_555
H49 C86 1_555 1_555
C87 C38 1_555 1_555
H50 C87 1_555 1_555
C88 C26 1_555 1_555
H51 C88 1_555 1_555
C89 C71 1_555 1_555
H52 C89 1_555 1_555
C90 C9 1_555 1_555
C91 C15 1_555 1_555
H53 C91 1_555 1_555
C92 C81 1_555 1_555
H54 C92 1_555 1_555
C93 C2 1_555 1_555
H55 C93 1_555 1_555
C94 C90 1_555 1_555
H56 C94 1_555 1_555
C95 C1 1_555 1_555
H57 C95 1_555 1_555
C96 C50 1_555 1_555
C97 C70 1_555 1_555
C98 C54 1_555 1_555
H58 C98 1_555 1_555
C99 C14 1_555 1_555
H59 C99 1_555 1_555
C100 C65 1_555 1_555
H60 C100 1_555 1_555
C101 C26 1_555 1_555
H61 C101 1_555 1_555
C102 C28 1_555 1_555
H62 C102 1_555 1_555
C103 C45 1_555 1_555
H63 C103 1_555 1_555
C104 O14 1_555 1_555
C105 H64 1_555 1_555
C106 C36 1_555 1_555
H65 C106 1_555 1_555
C107 C37 1_555 1_555
H66 C107 1_555 1_555
C108 C35 1_555 1_555
H67 C108 1_555 1_555
C109 C29 1_555 1_555
H68 C109 1_555 1_555
C110 C65 1_555 1_555
H69 C110 1_555 1_555
C111 C31 1_555 1_555
C112 C19 1_555 1_555
H70 C112 1_555 1_555
C113 C16 1_555 1_555
H71 C113 1_555 1_555
C114 C111 1_555 1_555
C115 C96 1_555 1_555
C116 C22 1_555 1_555
H72 C116 1_555 1_555
O17 C117 1_555 1_555
O18 C117 1_555 1_555
C117 C22 1_555 1_555
Zn1_2 O17 1_555 1_555
Zn1_3 O9 1_555 1_555
Zn1C O5 1_555 1_555
Zn2_2 O7 1_555 1_555
Zn2_3 O10 1_555 1_555
Zn3_2 O2 1_555 1_555
Zn3A O8 1_555 1_555
Zn3A_2 O11 1_555 1_555
Zn4_2 O1 1_555 1_555
O1_2 Zn4 1_555 1_555
O2_2 Zn3 1_555 1_555
O5C Zn1 1_555 1_555
O7_2 Zn2 1_555 1_555
O8A Zn3 1_555 1_555
O9_2 Zn1 1_555 1_555
O10_2 Zn2 1_555 1_555
O11A Zn3 1_555 1_555
O12_2 Zn2 1_555 1_555
O12A Zn3 1_555 1_555
O17_2 Zn1 1_555 1_555
O18_2 Zn1 1_555 1_555
O12 Zn2_3 1_555 1_555
O12 Zn3A_2 1_555 1_555
O16 C60 1_555 1_555
C13 C90 1_555 1_555
C20 C52 1_555 1_555
C21 C80 1_555 1_555
C24 C72 1_555 1_555
C25 C48 1_555 1_555
C27 C75 1_555 1_555
C34 C74 1_555 1_555
C34 C113 1_555 1_555
C40 C60 1_555 1_555
C40 C87 1_555 1_555
C43 C56 1_555 1_555
C43 C63 1_555 1_555
C44 C78 1_555 1_555
C46 C58 1_555 1_555
C47 C91 1_555 1_555
C49 C107 1_555 1_555
C51 C84 1_555 1_555
C53 C68 1_555 1_555
C55 C99 1_555 1_555
C58 C98 1_555 1_555
C62 C79 1_555 1_555
C63 C73 1_555 1_555
C64 C67 1_555 1_555
C64 C111 1_555 1_555
C66 C93 1_555 1_555
C70 C95 1_555 1_555
C74 C104 1_555 1_555
C76 C85 1_555 1_555
C77 C88 1_555 1_555
C86 C108 1_555 1_555
C89 C97 1_555 1_555
C92 C96 1_555 1_555
C94 C109 1_555 1_555
C100 C116 1_555 1_555
C101 C102 1_555 1_555
C105 C110 1_555 1_555
C106 C112 1_555 1_555
O18 Zn1_2 1_555 1_555

#END
