
#######################################################################
#
#                 Cambridge Crystallographic Data Centre
#                                CCDC 
#
#######################################################################
#
# If this CIF has been generated from an entry in the Cambridge 
# Structural Database, then it will include bibliographic, chemical, 
# crystal, experimental, refinement or atomic coordinate data resulting 
# from the CCDC's data processing and validation procedures.
#
#######################################################################

data_CETFUD
_symmetry_cell_setting           triclinic
_symmetry_space_group_name_H-M   'P -1'
_symmetry_Int_Tables_number      2
_space_group_name_Hall           '-P 1'
loop_
_symmetry_equiv_pos_site_id
_symmetry_equiv_pos_as_xyz
1 x,y,z
2 -x,-y,-z
_cell_length_a                   7.7447(12)
_cell_length_b                   10.1935(16)
_cell_length_c                   12.1464(19)
_cell_angle_alpha                80.751(3)
_cell_angle_beta                 80.287(3)
_cell_angle_gamma                82.818(3)
_cell_volume                     928.135
loop_
_atom_site_label
_atom_site_type_symbol
_atom_site_fract_x
_atom_site_fract_y
_atom_site_fract_z
Pr1 Pr 0.26092(5) 0.99001(4) 0.44102(4)
O1 O 0.4951(8) 0.9802(6) 0.2730(5)
O2 O 0.1885(6) 1.0624(5) 0.6366(4)
O3 O 0.3872(6) 0.7397(5) 0.4548(4)
C1 C 0.4932(9) 0.7501(7) 0.5181(6)
C2 C 0.0493(10) 1.1115(7) 0.6929(6)
C4 C 0.9088(9) 0.5012(7) 0.5375(7)
H2 H 0.8644 0.4149 0.5447
H3 H 0.9209 0.5172 0.6123
C5 C 0.0685(10) 1.2070(7) 0.7716(6)
H4 H 0.1913 1.2234 0.7614
H5 H 0.0013 1.2913 0.7501
C6 C -0.0481(11) 1.2256(8) 1.0925(7)
H6 H 0.0437 1.1582 1.1160
H7 H -0.1571 1.1840 1.1060
C7 C -0.0026(11) 1.2722(8) 0.9674(6)
H8 H 0.1092 1.3101 0.9535
H9 H -0.0914 1.3424 0.9445
C9 C 0.0099(11) 1.1609(8) 0.8947(6)
H11 H 0.0924 1.0877 0.9210
H12 H -0.1044 1.1277 0.9038
C10 C 0.6029(9) 0.6296(7) 0.5671(6)
H13 H 0.5396 0.5512 0.5763
H14 H 0.6252 0.6420 0.6407
C11 C 0.7784(9) 0.6087(7) 0.4884(6)
H15 H 0.7548 0.5855 0.4184
H16 H 0.8314 0.6924 0.4706
O4 O 0.5120(6) 0.8649(4) 0.5420(4)
C15 C -0.0685(10) 1.3373(7) 1.1645(6)
H19 H -0.1556 1.4070 1.1383
H20 H 0.0426 1.3756 1.1543
C16 C -0.1238(9) 1.2917(7) 1.2892(6)
H21 H -0.1613 1.3700 1.3265
H22 H -0.2247 1.2413 1.2979
C17 C 0.0175(9) 1.2064(7) 1.3484(6)
O5 O 0.1763(6) 1.2013(5) 1.3044(4)
O6 O -0.1031(6) 1.0864(5) 0.6879(4)
O7 O -0.0291(6) 1.1407(4) 1.4456(4)
H23 H 0.495(9) 0.925(5) 0.234(5)
H24 H 0.595(6) 0.967(11) 0.287(9)
Pr1_2 Pr 0.26092(5) 0.99001(4) -0.55898(4)
Pr1A Pr 0.73908(5) 1.00999(4) 0.55898(4)
Pr1_3 Pr 0.26092(5) 0.99001(4) 1.44102(4)
Pr1A_2 Pr -0.26092(5) 1.00999(4) 0.55898(4)
Pr1A_3 Pr -0.26092(5) 1.00999(4) 1.55898(4)
Pr1A_4 Pr 1.73908(5) 0.00999(4) 0.55898(4)
Pr1_4 Pr 1.26092(5) -0.00999(4) 0.44102(4)
Pr1A_5 Pr -0.26092(5) 1.00999(4) -0.44102(4)
O1_2 O 0.4951(8) 0.9802(6) -0.7270(5)
O2_2 O 0.1885(6) 1.0624(5) -0.3634(4)
O3A O 1.6128(6) 0.2603(5) 0.5452(4)
O3_2 O 0.3872(6) 0.7397(5) -0.5452(4)
C1A C 1.5068(9) 0.2499(7) 0.4819(6)
C2_2 C 0.0493(10) 1.1115(7) -0.3071(6)
C4A C 1.0912(9) 0.4988(7) 0.4625(7)
H2A H 1.1356 0.5851 0.4553
H3A H 1.0791 0.4828 0.3877
C5_2 C 0.0685(10) 1.2070(7) -0.2284(6)
H4_2 H 0.1913 1.2234 -0.2386
H5_2 H 0.0013 1.2913 -0.2499
C6_2 C -0.0481(11) 1.2256(8) 0.0925(7)
H6_2 H 0.0437 1.1582 0.1160
H7_2 H -0.1571 1.1840 0.1060
C7_2 C -0.0026(11) 1.2722(8) -0.0326(6)
H8_2 H 0.1092 1.3101 -0.0465
H9_2 H -0.0914 1.3424 -0.0555
C9_2 C 0.0099(11) 1.1609(8) -0.1053(6)
H11_2 H 0.0924 1.0877 -0.0790
H12_2 H -0.1044 1.1277 -0.0962
C10A C 1.3971(9) 0.3704(7) 0.4329(6)
H13A H 1.4604 0.4488 0.4237
H14A H 1.3748 0.3580 0.3593
C11A C 1.2216(9) 0.3913(7) 0.5116(6)
H15A H 1.2452 0.4145 0.5816
H16A H 1.1686 0.3076 0.5294
O4A O 1.4880(6) 0.1351(4) 0.4580(4)
O4A_2 O 0.4880(6) 1.1351(4) 0.4580(4)
O4_2 O 0.5120(6) 0.8649(4) -0.4580(4)
O4A_3 O 0.4880(6) 1.1351(4) -0.5420(4)
C15_2 C -0.0685(10) 1.3373(7) 0.1645(6)
H19_2 H -0.1556 1.4070 0.1383
H20_2 H 0.0426 1.3756 0.1543
C16_2 C -0.1238(9) 1.2917(7) 0.2892(6)
H21_2 H -0.1613 1.3700 0.3265
H22_2 H -0.2247 1.2413 0.2979
C17_2 C 0.0175(9) 1.2064(7) 0.3484(6)
O5_2 O 0.1763(6) 1.2013(5) 0.3044(4)
O5_3 O 0.1763(6) 1.2013(5) -0.6956(4)
O6_2 O -0.1031(6) 1.0864(5) -0.3121(4)
O6A O 0.1031(6) 0.9136(5) 0.3121(4)
O6A_2 O 0.1031(6) 0.9136(5) -0.6879(4)
O7_2 O -0.0291(6) 1.1407(4) 0.4456(4)
O7A O 0.0291(6) 0.8593(4) 0.5544(4)
O7_3 O -0.0291(6) 1.1407(4) -0.5544(4)
O7A_2 O 0.0291(6) 0.8593(4) -0.4456(4)
H23_2 H 0.495(9) 0.925(5) -0.766(5)
H24_2 H 0.595(6) 0.967(11) -0.713(9)
N1 N 0.4908(10) 0.7997(8) 0.1198(7)
C3 C 0.4485(14) 0.5692(9) 0.1374(8)
H1 H 0.4141 0.4931 0.1852
C8 C 0.4491(14) 0.6850(11) 0.1817(8)
H10 H 0.4187 0.6829 0.2593
C12 C 0.4975(10) 0.5635(8) 0.0244(7)
C13 C 0.5359(12) 0.7941(10) 0.0111(9)
H17 H 0.5673 0.8723 -0.0348
C14 C 0.5405(12) 0.6819(9) -0.0409(8)
H18 H 0.5721 0.6864 -0.1186
N1A N 0.5092(10) 0.2003(8) -0.1198(7)
C3A C 0.5515(14) 0.4308(9) -0.1374(8)
H1A H 0.5859 0.5069 -0.1852
C8A C 0.5509(14) 0.3150(11) -0.1817(8)
H10A H 0.5813 0.3171 -0.2593
C12A C 0.5025(10) 0.4365(8) -0.0244(7)
C13A C 0.4641(12) 0.2059(10) -0.0111(9)
H17A H 0.4327 0.1277 0.0348
C14A C 0.4595(12) 0.3181(9) 0.0409(8)
H18A H 0.4279 0.3136 0.1186
loop_
_geom_bond_atom_site_label_1
_geom_bond_atom_site_label_2
_geom_bond_site_symmetry_1
_geom_bond_site_symmetry_2
Pr1 O1 1_555 1_555
O1 H23 1_555 1_555
O2 Pr1 1_555 1_555
O3 Pr1 1_555 1_555
C1 O3 1_555 1_555
C2 O2 1_555 1_555
N1 C8 1_555 1_555
C3 H1 1_555 1_555
C4 H2 1_555 1_555
H3 C4 1_555 1_555
C5 C2 1_555 1_555
H4 C5 1_555 1_555
H5 C5 1_555 1_555
C6 H6 1_555 1_555
H7 C6 1_555 1_555
C7 C6 1_555 1_555
H8 C7 1_555 1_555
H9 C7 1_555 1_555
C8 C3 1_555 1_555
H10 C8 1_555 1_555
C9 C5 1_555 1_555
H11 C9 1_555 1_555
H12 C9 1_555 1_555
C10 C1 1_555 1_555
H13 C10 1_555 1_555
H14 C10 1_555 1_555
C11 C4 1_555 1_555
H15 C11 1_555 1_555
H16 C11 1_555 1_555
C12 C3 1_555 1_555
C13 N1 1_555 1_555
H17 C13 1_555 1_555
C14 C12 1_555 1_555
H18 C14 1_555 1_555
O4 Pr1 1_555 1_555
C15 C6 1_555 1_555
H19 C15 1_555 1_555
H20 C15 1_555 1_555
C16 C15 1_555 1_555
H21 C16 1_555 1_555
H22 C16 1_555 1_555
C17 C16 1_555 1_555
O5 C17 1_555 1_555
O6 C2 1_555 1_555
O7 C17 1_555 1_555
H24 O1 1_555 1_555
Pr1_2 O1_2 1_555 1_555
Pr1A O4 1_555 1_555
Pr1_3 O5 1_555 1_555
Pr1A_2 O6 1_555 1_555
Pr1A_3 O7 1_555 1_555
Pr1A_4 O3A 1_555 1_555
Pr1_4 O4A 1_555 1_555
Pr1A_5 O6_2 1_555 1_555
O1_2 H23_2 1_555 1_555
O2_2 Pr1_2 1_555 1_555
O3A C1A 1_555 1_555
O3_2 Pr1_2 1_555 1_555
C1A C10A 1_555 1_555
C2_2 O2_2 1_555 1_555
N1A C8A 1_555 1_555
C3A H1A 1_555 1_555
C4A C4 1_555 1_555
H2A C4A 1_555 1_555
H3A C4A 1_555 1_555
C5_2 C2_2 1_555 1_555
H4_2 C5_2 1_555 1_555
H5_2 C5_2 1_555 1_555
C6_2 H6_2 1_555 1_555
H7_2 C6_2 1_555 1_555
C7_2 C6_2 1_555 1_555
H8_2 C7_2 1_555 1_555
H9_2 C7_2 1_555 1_555
C8A C3A 1_555 1_555
H10A C8A 1_555 1_555
C9_2 C5_2 1_555 1_555
H11_2 C9_2 1_555 1_555
H12_2 C9_2 1_555 1_555
C10A H13A 1_555 1_555
H14A C10A 1_555 1_555
C11A C4A 1_555 1_555
H15A C11A 1_555 1_555
H16A C11A 1_555 1_555
C12A C12 1_555 1_555
C13A N1A 1_555 1_555
H17A C13A 1_555 1_555
C14A C12A 1_555 1_555
H18A C14A 1_555 1_555
O4A Pr1A_4 1_555 1_555
O4A_2 Pr1 1_555 1_555
O4_2 Pr1_2 1_555 1_555
O4A_3 Pr1_2 1_555 1_555
C15_2 C6_2 1_555 1_555
H19_2 C15_2 1_555 1_555
H20_2 C15_2 1_555 1_555
C16_2 C15_2 1_555 1_555
H21_2 C16_2 1_555 1_555
H22_2 C16_2 1_555 1_555
C17_2 C16_2 1_555 1_555
O5_2 Pr1 1_555 1_555
O5_3 Pr1_2 1_555 1_555
O6_2 C2_2 1_555 1_555
O6A Pr1 1_555 1_555
O6A_2 Pr1_2 1_555 1_555
O7_2 Pr1 1_555 1_555
O7A Pr1 1_555 1_555
O7_3 Pr1_2 1_555 1_555
O7A_2 Pr1_2 1_555 1_555
H24_2 O1_2 1_555 1_555
C1 O4 1_555 1_555
C7 C9 1_555 1_555
C10 C11 1_555 1_555
C13 C14 1_555 1_555
O7 Pr1_3 1_555 1_555
Pr1A O4A_2 1_555 1_555
Pr1A_2 O7_2 1_555 1_555
Pr1A_2 O7A 1_555 1_555
Pr1A_5 O7_3 1_555 1_555
Pr1A_5 O7A_2 1_555 1_555
C1A O4A 1_555 1_555
C3A C12A 1_555 1_555
C7_2 C9_2 1_555 1_555
C10A C11A 1_555 1_555
C13A C14A 1_555 1_555
C17_2 O5_2 1_555 1_555
C17_2 O7_2 1_555 1_555

#END
