
#######################################################################
#
#                 Cambridge Crystallographic Data Centre
#                                CCDC 
#
#######################################################################
#
# If this CIF has been generated from an entry in the Cambridge 
# Structural Database, then it will include bibliographic, chemical, 
# crystal, experimental, refinement or atomic coordinate data resulting 
# from the CCDC's data processing and validation procedures.
#
#######################################################################

data_CEYPUT
_symmetry_cell_setting           monoclinic
_symmetry_space_group_name_H-M   'P n'
_symmetry_Int_Tables_number      7
_space_group_name_Hall           'P -2yac'
loop_
_symmetry_equiv_pos_site_id
_symmetry_equiv_pos_as_xyz
1 x,y,z
2 1/2+x,-y,1/2+z
_cell_length_a                   6.3070(10)
_cell_length_b                   12.611(2)
_cell_length_c                   10.4919(17)
_cell_angle_alpha                90
_cell_angle_beta                 91.227(2)
_cell_angle_gamma                90
_cell_volume                     834.309
loop_
_atom_site_label
_atom_site_type_symbol
_atom_site_fract_x
_atom_site_fract_y
_atom_site_fract_z
C1 C 0.7927(9) 0.3961(5) 1.1378(6)
N1 N 0.9823(8) 0.3562(4) 1.1190(5)
C2 C 1.0233(9) 1.0880(5) 0.3653(6)
Co1 Co 0.6280(2) 0.75374(5) 0.74005(18)
O1 O 0.5592(7) 0.6432(4) 0.9013(5)
O2 O 0.8658(7) 0.6524(3) 0.8048(5)
O3 O 1.2114(7) 1.1153(4) 0.3767(5)
O4 O 0.8998(7) 1.1345(3) 0.2845(5)
N2 N 0.7708(8) 0.8437(4) 0.6024(5)
C3 C 1.1011(11) 0.3979(6) 1.0265(8)
H1 H 1.2355 0.3702 1.0132
C4 C 1.0289(11) 0.4814(6) 0.9501(7)
H2 H 1.1134 0.5087 0.8864
C5 C 0.8276(10) 0.5233(5) 0.9708(7)
C6 C 0.7089(10) 0.4807(5) 1.0664(7)
H3 H 0.5752 0.5076 1.0834
H4 H 0.7089 0.3665 1.1998
C7 C 0.7424(11) 0.6148(5) 0.8905(7)
C8 C 0.9693(10) 0.8791(5) 0.6158(7)
H5 H 1.0532 0.8494 0.6805
C9 C 1.0587(10) 0.9552(5) 0.5426(7)
H6 H 1.1966 0.9782 0.5591
C10 C 0.9363(10) 0.9984(5) 0.4408(7)
C11 C 0.7330(10) 0.9599(5) 0.4238(7)
H7 H 0.6467 0.9867 0.3584
C12 C 0.6575(10) 0.8831(5) 0.5015(7)
H8 H 0.5222 0.8564 0.4849
N1A N 0.4823(8) 0.6438(4) 0.6190(5)
Co1A Co 1.1280(2) 0.24626(5) 1.24005(18)
Co1A_2 Co 1.1280(2) 1.24626(5) 0.24005(18)
O3A O 0.7114(7) 0.8847(4) 0.8767(5)
O4A O 0.3998(7) 0.8655(3) 0.7845(5)
O5 O 0.2145(19) 0.2873(10) 0.7626(13)
N3 N 0.5363(18) 0.2634(7) 0.6728(13)
C13 C 0.321(2) 0.2485(8) 0.6791(17)
H9 H 0.2541 0.2070 0.6170
C14 C 0.630(2) 0.3259(11) 0.7717(15)
H10 H 0.7801 0.3310 0.7593
H11 H 0.6045 0.2933 0.8526
H12 H 0.5689 0.3956 0.7700
C15 C 0.650(2) 0.2189(11) 0.5740(16)
H13 H 0.5559 0.1784 0.5199
H14 H 0.7587 0.1734 0.6088
H15 H 0.7139 0.2743 0.5252
loop_
_geom_bond_atom_site_label_1
_geom_bond_atom_site_label_2
_geom_bond_site_symmetry_1
_geom_bond_site_symmetry_2
C1 N1 1_555 1_555
N1 C3 1_555 1_555
C2 O3 1_555 1_555
Co1 O1 1_555 1_555
O1 C7 1_555 1_555
O2 Co1 1_555 1_555
O3 Co1A_2 1_555 1_555
O4 C2 1_555 1_555
N2 Co1 1_555 1_555
C3 H1 1_555 1_555
C4 C3 1_555 1_555
H2 C4 1_555 1_555
C5 C4 1_555 1_555
C6 C1 1_555 1_555
H3 C6 1_555 1_555
H4 C1 1_555 1_555
C7 O2 1_555 1_555
C8 N2 1_555 1_555
H5 C8 1_555 1_555
C9 C8 1_555 1_555
H6 C9 1_555 1_555
C10 C2 1_555 1_555
C11 C10 1_555 1_555
H7 C11 1_555 1_555
C12 N2 1_555 1_555
H8 C12 1_555 1_555
O5 C13 1_555 1_555
N3 C13 1_555 1_555
C13 H9 1_555 1_555
C14 N3 1_555 1_555
H10 C14 1_555 1_555
H11 C14 1_555 1_555
H12 C14 1_555 1_555
C15 N3 1_555 1_555
H13 C15 1_555 1_555
H14 C15 1_555 1_555
H15 C15 1_555 1_555
N1A Co1 1_555 1_555
Co1A N1 1_555 1_555
Co1A_2 O4 1_555 1_555
O3A Co1 1_555 1_555
O4A Co1 1_555 1_555
C5 C6 1_555 1_555
C5 C7 1_555 1_555
C9 C10 1_555 1_555
C11 C12 1_555 1_555

#END
