
#######################################################################
#
#                 Cambridge Crystallographic Data Centre
#                                CCDC 
#
#######################################################################
#
# If this CIF has been generated from an entry in the Cambridge 
# Structural Database, then it will include bibliographic, chemical, 
# crystal, experimental, refinement or atomic coordinate data resulting 
# from the CCDC's data processing and validation procedures.
#
#######################################################################

data_CIGYAU
_symmetry_cell_setting           tetragonal
_symmetry_space_group_name_H-M   'P 42/n'
_symmetry_Int_Tables_number      86
_space_group_name_Hall           '-P 4bc'
loop_
_symmetry_equiv_pos_site_id
_symmetry_equiv_pos_as_xyz
1 x,y,z
2 1/2-x,1/2-y,z
3 -y,1/2+x,1/2+z
4 1/2+y,-x,1/2+z
5 -x,-y,-z
6 1/2+x,1/2+y,-z
7 y,1/2-x,1/2-z
8 1/2-y,x,1/2-z
_cell_length_a                   13.4481(7)
_cell_length_b                   13.4481(7)
_cell_length_c                   10.7237(11)
_cell_angle_alpha                90
_cell_angle_beta                 90
_cell_angle_gamma                90
_cell_volume                     1939.4
loop_
_atom_site_label
_atom_site_type_symbol
_atom_site_fract_x
_atom_site_fract_y
_atom_site_fract_z
C1 C 0.7117(3) 0.1246(3) 0.4579(5)
C2 C 0.4919(4) 0.2903(4) 0.4382(5)
H1 H 0.5164 0.2306 0.4694
C3 C 0.4121(4) 0.3338(4) 0.4981(5)
C4 C 0.3785(6) 0.4237(6) 0.4561(8)
H2 H 0.3257 0.4560 0.4948
C5 C 0.4256(6) 0.4648(7) 0.3546(8)
H3 H 0.4054 0.5267 0.3251
C6 C 0.5014(6) 0.4159(6) 0.2966(8)
H4 H 0.5300 0.4440 0.2259
C7 C 0.2985(4) 0.3295(4) 0.6692(5)
H5 H 0.2493 0.3603 0.6156
H6 H 0.3279 0.3807 0.7213
C8 C 0.2500 0.2500 0.7500
Cu1 Cu 0.65289(5) 0.27122(6) 0.24289(6)
N1 N 0.7149(3) 0.1307(3) 0.5644(4)
N2 N 0.5355(3) 0.3294(4) 0.3382(4)
O1 O 0.3736(3) 0.2825(3) 0.5957(3)
S1 S 0.70832(10) 0.11294(10) 0.30344(11)
C2A C 0.0081(4) 0.2097(4) 0.4382(5)
H1A H -0.0164 0.2694 0.4694
C3A C 0.0879(4) 0.1662(4) 0.4981(5)
C4A C 0.1215(6) 0.0763(6) 0.4561(8)
H2A H 0.1743 0.0440 0.4948
C5A C 0.0744(6) 0.0352(7) 0.3546(8)
H3A H 0.0946 -0.0267 0.3251
C6A C -0.0014(6) 0.0841(6) 0.2966(8)
H4A H -0.0300 0.0560 0.2259
C7A C 0.2015(4) 0.1705(4) 0.6692(5)
H5A H 0.2507 0.1397 0.6156
H6A H 0.1721 0.1193 0.7213
N2A N -0.0355(3) 0.1706(4) 0.3382(4)
O1A O 0.1264(3) 0.2175(3) 0.5957(3)
C2F C 0.2903(4) 0.0081(4) 1.0618(5)
H1F H 0.2306 -0.0164 1.0306
C3F C 0.3338(4) 0.0879(4) 1.0019(5)
C4F C 0.4237(6) 0.1215(6) 1.0439(8)
H2F H 0.4560 0.1743 1.0052
C5F C 0.4648(7) 0.0744(6) 1.1454(8)
H3F H 0.5267 0.0946 1.1749
C6F C 0.4159(6) -0.0014(6) 1.2034(8)
H4F H 0.4440 -0.0300 1.2741
C7F C 0.3295(4) 0.2015(4) 0.8308(5)
H5F H 0.3603 0.2507 0.8844
H6F H 0.3807 0.1721 0.7787
N2F N 0.3294(4) -0.0355(3) 1.1618(4)
O1F O 0.2825(3) 0.1264(3) 0.9043(3)
C2G C 0.2097(4) 0.4919(4) 1.0618(5)
H1G H 0.2694 0.5164 1.0306
C3G C 0.1662(4) 0.4121(4) 1.0019(5)
C4G C 0.0763(6) 0.3785(6) 1.0439(8)
H2G H 0.0440 0.3257 1.0052
C5G C 0.0352(7) 0.4256(6) 1.1454(8)
H3G H -0.0267 0.4054 1.1749
C6G C 0.0841(6) 0.5014(6) 1.2034(8)
H4G H 0.0560 0.5300 1.2741
C7G C 0.1705(4) 0.2985(4) 0.8308(5)
H5G H 0.1397 0.2493 0.8844
H6G H 0.1193 0.3279 0.7787
N2G N 0.1706(4) 0.5355(3) 1.1618(4)
O1G O 0.2175(3) 0.3736(3) 0.9043(3)
C1A C -0.2117(3) 0.3754(3) 0.4579(5)
Cu1A Cu -0.15289(5) 0.22878(6) 0.24289(6)
N1A N -0.2149(3) 0.3693(3) 0.5644(4)
S1A S -0.20832(10) 0.38706(10) 0.30344(11)
C1F C 0.1246(3) -0.2117(3) 1.0421(5)
Cu1F Cu 0.27122(6) -0.15289(5) 1.25711(6)
N1F N 0.1307(3) -0.2149(3) 0.9356(4)
S1F S 0.11294(10) -0.20832(10) 1.19656(11)
C1G C 0.3754(3) 0.7117(3) 1.0421(5)
Cu1G Cu 0.22878(6) 0.65289(5) 1.25711(6)
N1G N 0.3693(3) 0.7149(3) 0.9356(4)
S1G S 0.38706(10) 0.70832(10) 1.19656(11)
Cu1_2 Cu -0.34711(5) 0.27122(6) 0.24289(6)
Cu1A_2 Cu 0.84711(5) 0.22878(6) 0.24289(6)
Cu1B Cu 0.72878(6) 0.15289(5) 0.74289(6)
Cu1C Cu -0.22878(6) 0.34711(5) 0.74289(6)
Cu1D Cu 0.34711(5) 0.72878(6) 0.75711(6)
Cu1E Cu 0.15289(5) -0.22878(6) 0.75711(6)
Cu1F_2 Cu 0.27122(6) 0.84711(5) 1.25711(6)
Cu1G_2 Cu 0.22878(6) -0.34711(5) 1.25711(6)
N1B N -0.1307(3) 0.2149(3) 0.0644(4)
N1C N 0.6307(3) 0.2851(3) 0.0644(4)
N1D N 0.2851(3) -0.1307(3) 1.4356(4)
N1E N 0.2149(3) 0.6307(3) 1.4356(4)
S1_2 S -0.29168(10) 0.11294(10) 0.30344(11)
S1A_2 S 0.79168(10) 0.38706(10) 0.30344(11)
S1F_2 S 0.11294(10) 0.79168(10) 1.19656(11)
S1G_2 S 0.38706(10) -0.29168(10) 1.19656(11)
O2 O 0.0000 0.0000 1.0000
H7 H -0.0366 0.0467 0.9728
H7D H 0.0366 -0.0467 1.0272
O3 O 0.2500 0.2500 0.2500
H8? H 0.2257 0.3058 0.2286
H9? H 0.0563 0.0234 1.0209
H10? H 0.3131 0.2533 0.2489
loop_
_geom_bond_atom_site_label_1
_geom_bond_atom_site_label_2
_geom_bond_site_symmetry_1
_geom_bond_site_symmetry_2
C1 N1 1_555 1_555
C2 H1 1_555 1_555
C3 C2 1_555 1_555
C4 C3 1_555 1_555
H2 C4 1_555 1_555
C5 C4 1_555 1_555
H3 C5 1_555 1_555
C6 C5 1_555 1_555
H4 C6 1_555 1_555
C7 H5 1_555 1_555
H6 C7 1_555 1_555
C8 C7 1_555 1_555
Cu1 N2 1_555 1_555
N1 Cu1B 1_555 1_555
N2 C2 1_555 1_555
O1 C3 1_555 1_555
S1 C1 1_555 1_555
O2 H7 1_555 1_555
C2A H1A 1_555 1_555
C3A C2A 1_555 1_555
C4A C3A 1_555 1_555
H2A C4A 1_555 1_555
C5A C4A 1_555 1_555
H3A C5A 1_555 1_555
C6A C5A 1_555 1_555
H4A C6A 1_555 1_555
C7A C8 1_555 1_555
H5A C7A 1_555 1_555
H6A C7A 1_555 1_555
N2A C2A 1_555 1_555
O1A C3A 1_555 1_555
C2F H1F 1_555 1_555
C3F C2F 1_555 1_555
C4F C3F 1_555 1_555
H2F C4F 1_555 1_555
C5F C4F 1_555 1_555
H3F C5F 1_555 1_555
C6F C5F 1_555 1_555
H4F C6F 1_555 1_555
C7F C8 1_555 1_555
H5F C7F 1_555 1_555
H6F C7F 1_555 1_555
N2F C2F 1_555 1_555
O1F C3F 1_555 1_555
C2G H1G 1_555 1_555
C3G C2G 1_555 1_555
C4G C3G 1_555 1_555
H2G C4G 1_555 1_555
C5G C4G 1_555 1_555
H3G C5G 1_555 1_555
C6G C5G 1_555 1_555
H4G C6G 1_555 1_555
C7G C8 1_555 1_555
H5G C7G 1_555 1_555
H6G C7G 1_555 1_555
N2G C2G 1_555 1_555
O1G C3G 1_555 1_555
C1A N1A 1_555 1_555
Cu1A N2A 1_555 1_555
N1A Cu1C 1_555 1_555
S1A C1A 1_555 1_555
C1F N1F 1_555 1_555
Cu1F N2F 1_555 1_555
N1F Cu1E 1_555 1_555
S1F C1F 1_555 1_555
C1G N1G 1_555 1_555
Cu1G N2G 1_555 1_555
N1G Cu1D 1_555 1_555
S1G C1G 1_555 1_555
Cu1_2 S1A 1_555 1_555
Cu1A_2 S1 1_555 1_555
Cu1F_2 S1G 1_555 1_555
Cu1G_2 S1F 1_555 1_555
N1B Cu1A 1_555 1_555
N1C Cu1 1_555 1_555
N1D Cu1F 1_555 1_555
N1E Cu1G 1_555 1_555
S1_2 Cu1A 1_555 1_555
S1A_2 Cu1 1_555 1_555
S1F_2 Cu1G 1_555 1_555
S1G_2 Cu1F 1_555 1_555
H7D O2 1_555 1_555
C6 N2 1_555 1_555
C7 O1 1_555 1_555
Cu1 S1 1_555 1_555
C6A N2A 1_555 1_555
C7A O1A 1_555 1_555
C6F N2F 1_555 1_555
C7F O1F 1_555 1_555
C6G N2G 1_555 1_555
C7G O1G 1_555 1_555
Cu1A S1A 1_555 1_555
Cu1F S1F 1_555 1_555
Cu1G S1G 1_555 1_555
Cu1_2 S1_2 1_555 1_555
Cu1A_2 S1A_2 1_555 1_555
Cu1F_2 S1F_2 1_555 1_555
Cu1G_2 S1G_2 1_555 1_555

#END
