
#######################################################################
#
#                 Cambridge Crystallographic Data Centre
#                                CCDC 
#
#######################################################################
#
# If this CIF has been generated from an entry in the Cambridge 
# Structural Database, then it will include bibliographic, chemical, 
# crystal, experimental, refinement or atomic coordinate data resulting 
# from the CCDC's data processing and validation procedures.
#
#######################################################################

data_CILDAD
_symmetry_cell_setting           monoclinic
_symmetry_space_group_name_H-M   'C 2/c'
_symmetry_Int_Tables_number      15
_space_group_name_Hall           '-C 2yn'
loop_
_symmetry_equiv_pos_site_id
_symmetry_equiv_pos_as_xyz
1 x,y,z
2 1/2+x,1/2+y,z
3 -x,y,1/2-z
4 1/2-x,1/2+y,1/2-z
5 -x,-y,-z
6 1/2-x,1/2-y,-z
7 x,-y,1/2+z
8 1/2+x,1/2-y,1/2+z
_cell_length_a                   21.157(2)
_cell_length_b                   9.2761(8)
_cell_length_c                   17.2671(16)
_cell_angle_alpha                90
_cell_angle_beta                 106.225(5)
_cell_angle_gamma                90
_cell_volume                     3253.78
loop_
_atom_site_label
_atom_site_type_symbol
_atom_site_fract_x
_atom_site_fract_y
_atom_site_fract_z
Nd1 Nd 0.013530(8) 0.684068(17) 0.073062(9)
Cu1 Cu 0.33578(3) 0.42989(10) -0.13452(5)
C1 C -0.04034(16) 0.3491(4) 0.1171(2)
C2 C -0.07494(17) 0.2797(4) 0.17312(19)
C3 C -0.1008(2) 0.3637(4) 0.2226(2)
H1 H -0.0984 0.4637 0.2207
C4 C -0.1304(2) 0.2972(5) 0.2750(3)
H2 H -0.1487 0.3545 0.3074
C5 C -0.1103(3) 0.0750(5) 0.2318(4)
H3 H -0.1136 -0.0247 0.2344
C6 C -0.0811(2) 0.1329(5) 0.1768(3)
H4 H -0.0658 0.0733 0.1426
C7 C 0.12781(16) 0.5217(4) 0.05039(19)
C8 C 0.18332(17) 0.4891(4) 0.0142(2)
C9 C 0.1769(2) 0.3847(6) -0.0430(3)
H5 H 0.1407 0.3232 -0.0546
C10 C 0.2241(2) 0.3707(6) -0.0836(3)
H6 H 0.2185 0.2999 -0.1231
C11 C 0.2856(3) 0.5484(7) -0.0097(4)
H7 H 0.3239 0.6034 0.0037
C12 C 0.2400(2) 0.5696(7) 0.0332(3)
H8 H 0.2477 0.6376 0.0744
C13 C 0.03599(16) 1.0163(3) 0.02352(19)
C14 C 0.03740(15) 0.7440(3) 0.26788(19)
N1 N -0.13388(17) 0.1546(4) 0.2812(2)
N2 N 0.27740(17) 0.4539(5) -0.0688(2)
O1 O -0.01771(13) 0.4728(3) 0.13556(15)
O2 O -0.03863(14) 0.2773(3) 0.05640(15)
O3 O 0.13398(13) 0.6238(3) 0.09886(16)
O4 O 0.07495(11) 0.4504(3) 0.02688(15)
O5 O 0.06455(12) 0.9279(3) 0.07684(14)
O6 O 0.06132(12) 1.1276(3) 0.00418(15)
O7 O 0.07128(12) 0.7263(3) 0.21940(14)
O8 O 0.05838(12) 0.7650(3) 0.34230(14)
Nd1D Nd -0.013530(8) 0.315932(17) -0.073062(9)
Nd1D_2 Nd -0.013530(8) 1.315932(17) -0.073062(9)
Nd1B Nd -0.013530(8) 0.684068(17) 0.426938(9)
Cu1C Cu 0.16422(3) 0.92989(10) -0.36548(5)
Cu1G Cu -0.16422(3) 0.07011(10) 0.36548(5)
Cu1D Cu -0.33578(3) 0.57011(10) 0.13452(5)
C1D C 0.04034(16) 0.6509(4) -0.1171(2)
C2D C 0.07494(17) 0.7203(4) -0.17312(19)
C3D C 0.1008(2) 0.6363(4) -0.2226(2)
H1D H 0.0984 0.5363 -0.2207
C4D C 0.1304(2) 0.7028(5) -0.2750(3)
H2D H 0.1487 0.6455 -0.3074
C5D C 0.1103(3) 0.9250(5) -0.2318(4)
H3D H 0.1136 1.0247 -0.2344
C6D C 0.0811(2) 0.8671(5) -0.1768(3)
H4D H 0.0658 0.9267 -0.1426
C7D C -0.12781(16) 0.4783(4) -0.05039(19)
C8D C -0.18332(17) 0.5109(4) -0.0142(2)
C9D C -0.1769(2) 0.6153(6) 0.0430(3)
H5D H -0.1407 0.6768 0.0546
C10D C -0.2241(2) 0.6293(6) 0.0836(3)
H6D H -0.2185 0.7001 0.1231
C11D C -0.2856(3) 0.4516(7) 0.0097(4)
H7D H -0.3239 0.3966 -0.0037
C12D C -0.2400(2) 0.4304(7) -0.0332(3)
H8D H -0.2477 0.3624 -0.0744
C13D C -0.03599(16) 0.9837(3) -0.02352(19)
C14B C -0.03740(15) 0.7440(3) 0.23212(19)
N1D N 0.13388(17) 0.8454(4) -0.2812(2)
N1G N 0.36612(17) 0.3454(4) -0.2188(2)
N1C N -0.36612(17) 0.6546(4) 0.2188(2)
N2D N -0.27740(17) 0.5461(5) 0.0688(2)
O1D O 0.01771(13) 0.5272(3) -0.13556(15)
O1B O 0.01771(13) 0.4728(3) 0.36444(15)
O2D O 0.03863(14) 0.7227(3) -0.05640(15)
O2F O -0.03863(14) 0.7227(3) 0.55640(15)
O3D O -0.13398(13) 0.3762(3) -0.09886(16)
O3B O -0.13398(13) 0.6238(3) 0.40114(16)
O4D O -0.07495(11) 0.5496(3) -0.02688(15)
O4F O 0.07495(11) 0.5496(3) 0.52688(15)
O4B O -0.07495(11) 0.4504(3) 0.47312(15)
O5D O -0.06455(12) 1.0721(3) -0.07684(14)
O5B O -0.06455(12) 0.9279(3) 0.42316(14)
O6D O -0.06132(12) 0.8724(3) -0.00418(15)
O6F O 0.06132(12) 0.8724(3) 0.50418(15)
O7B O -0.07128(12) 0.7263(3) 0.28060(14)
O8B O -0.05838(12) 0.7650(3) 0.15770(14)
O9 O -0.2052(2) -0.1912(5) 0.2673(3)
loop_
_geom_bond_atom_site_label_1
_geom_bond_atom_site_label_2
_geom_bond_site_symmetry_1
_geom_bond_site_symmetry_2
Nd1 O1 1_555 1_555
Cu1 N2 1_555 1_555
C1 C2 1_555 1_555
C2 C3 1_555 1_555
C3 H1 1_555 1_555
C4 C3 1_555 1_555
H2 C4 1_555 1_555
C5 H3 1_555 1_555
C6 C2 1_555 1_555
H4 C6 1_555 1_555
C7 C8 1_555 1_555
C8 C9 1_555 1_555
C9 H5 1_555 1_555
C10 C9 1_555 1_555
H6 C10 1_555 1_555
C11 H7 1_555 1_555
C12 C8 1_555 1_555
H8 C12 1_555 1_555
C13 O5 1_555 1_555
C14 O7 1_555 1_555
N1 C4 1_555 1_555
N2 C10 1_555 1_555
O1 C1 1_555 1_555
O2 C1 1_555 1_555
O3 Nd1 1_555 1_555
O4 Nd1 1_555 1_555
O5 Nd1 1_555 1_555
O6 C13 1_555 1_555
O7 Nd1 1_555 1_555
O8 C14 1_555 1_555
Nd1D O2 1_555 1_555
Nd1D_2 O6 1_555 1_555
Nd1B O8 1_555 1_555
Cu1C N1D 1_555 1_555
Cu1G N1 1_555 1_555
Cu1D N1C 1_555 1_555
C1D C2D 1_555 1_555
C2D C3D 1_555 1_555
C3D H1D 1_555 1_555
C4D C3D 1_555 1_555
H2D C4D 1_555 1_555
C5D H3D 1_555 1_555
C6D C2D 1_555 1_555
H4D C6D 1_555 1_555
C7D C8D 1_555 1_555
C8D C9D 1_555 1_555
C9D H5D 1_555 1_555
C10D C9D 1_555 1_555
H6D C10D 1_555 1_555
C11D H7D 1_555 1_555
C12D C8D 1_555 1_555
H8D C12D 1_555 1_555
C13D C13 1_555 1_555
C14B C14 1_555 1_555
N1D C4D 1_555 1_555
N1G Cu1 1_555 1_555
N2D Cu1D 1_555 1_555
O1D Nd1D 1_555 1_555
O1B Nd1B 1_555 1_555
O2D Nd1 1_555 1_555
O2F Nd1B 1_555 1_555
O3D Nd1D 1_555 1_555
O3B Nd1B 1_555 1_555
O4D Nd1 1_555 1_555
O4F Nd1B 1_555 1_555
O4B Nd1B 1_555 1_555
O5D Nd1D_2 1_555 1_555
O5B Nd1B 1_555 1_555
O6D Nd1 1_555 1_555
O6F Nd1B 1_555 1_555
O7B Nd1B 1_555 1_555
O8B Nd1 1_555 1_555
C5 C6 1_555 1_555
C5 N1 1_555 1_555
C7 O3 1_555 1_555
C7 O4 1_555 1_555
C11 C12 1_555 1_555
C11 N2 1_555 1_555
O4 Nd1D 1_555 1_555
Nd1D O4D 1_555 1_555
C1D O1D 1_555 1_555
C1D O2D 1_555 1_555
C5D C6D 1_555 1_555
C5D N1D 1_555 1_555
C7D O3D 1_555 1_555
C7D O4D 1_555 1_555
C10D N2D 1_555 1_555
C11D C12D 1_555 1_555
C11D N2D 1_555 1_555
C13D O5D 1_555 1_555
C13D O6D 1_555 1_555
C14B O7B 1_555 1_555
C14B O8B 1_555 1_555

#END
