
#######################################################################
#
#                 Cambridge Crystallographic Data Centre
#                                CCDC 
#
#######################################################################
#
# If this CIF has been generated from an entry in the Cambridge 
# Structural Database, then it will include bibliographic, chemical, 
# crystal, experimental, refinement or atomic coordinate data resulting 
# from the CCDC's data processing and validation procedures.
#
#######################################################################

data_CISMAT01
_symmetry_cell_setting           monoclinic
_symmetry_space_group_name_H-M   'P 21/m'
_symmetry_Int_Tables_number      11
_space_group_name_Hall           '-P 2yb'
loop_
_symmetry_equiv_pos_site_id
_symmetry_equiv_pos_as_xyz
1 x,y,z
2 -x,1/2+y,-z
3 -x,-y,-z
4 x,1/2-y,z
_cell_length_a                   4.96925(6)
_cell_length_b                   12.00129(12)
_cell_length_c                   10.74398(20)
_cell_angle_alpha                90
_cell_angle_beta                 94.0583(13)
_cell_angle_gamma                90
_cell_volume                     639.137
loop_
_atom_site_label
_atom_site_type_symbol
_atom_site_fract_x
_atom_site_fract_y
_atom_site_fract_z
Al1 Al -1.0000 0.50000 0.0000
Al2 Al -0.7523(15) 0.25000 -0.1098(7)
P1 P -1.4791(9) 0.51311(35) 0.1823(4)
F1 F -0.9528(14) 0.3512(4) -0.0322(6)
O1 O -1.2924(14) 0.4555(6) 0.0966(7)
O2 O -1.4446(17) 0.6400(5) 0.1828(8)
O3 O -1.7666(14) 0.4813(7) 0.1454(6)
O4 O -0.5096(24) 0.25000 0.0379(10)
O5 O -1.0380(24) 0.25000 -0.2442(10)
C1 C -1.5523(24) 0.5235(10) 0.4377(7)
C2 C -1.3943(24) 0.4669(9) 0.3417(9)
Al1_2 Al -2.0000 0.50000 0.0000
Al1_3 Al -2.0000 0.50000 1.0000
Al1_4 Al -1.0000 0.50000 1.0000
Al2B Al -1.2477(15) 0.75000 0.1098(7)
Al2_2 Al -1.7523(15) 0.25000 0.8902(7)
P1B P -1.5209(9) 0.48689(35) 0.8177(4)
F1B F -1.0472(14) 0.6488(4) 0.0322(6)
F1C F -0.9528(14) 0.1488(4) -0.0322(6)
O1B O -1.7076(14) 0.5445(6) 0.9034(7)
O1B_2 O -0.7076(14) 0.5445(6) -0.0966(7)
O2B O -1.5554(17) 0.3600(5) 0.8172(8)
O2B_2 O -0.5554(17) 0.3600(5) -0.1828(8)
O2A O -0.5554(17) 0.1400(5) -0.1828(8)
O3B O -1.2334(14) 0.5187(7) 0.8546(6)
O3_2 O -0.7666(14) 0.4813(7) 0.1454(6)
O3B_2 O -1.2334(14) 0.5187(7) -0.1454(6)
C1B C -1.4477(24) 0.4765(10) 0.5623(7)
C2B C -1.6057(24) 0.5331(9) 0.6583(9)
O6 O 0.0737(27) 0.25000 -0.4954(12)
O7 O 0.0711(27) 0.25000 0.2566(12)
loop_
_geom_bond_atom_site_label_1
_geom_bond_atom_site_label_2
_geom_bond_site_symmetry_1
_geom_bond_site_symmetry_2
Al1 F1 1_555 1_555
Al2 F1 1_555 1_555
P1 O1 1_555 1_555
O1 Al1 1_555 1_555
O2 P1 1_555 1_555
O3 P1 1_555 1_555
O4 Al2 1_555 1_555
O5 Al2 1_555 1_555
C1 C2 1_555 1_555
C2 P1 1_555 1_555
Al1_2 O3 1_555 1_555
Al1_3 O1B 1_555 1_555
Al1_4 O3B 1_555 1_555
Al2B O2 1_555 1_555
Al2_2 O2B 1_555 1_555
P1B O1B 1_555 1_555
F1B Al1 1_555 1_555
F1C Al2 1_555 1_555
O1B_2 Al1 1_555 1_555
O2B P1B 1_555 1_555
O2B_2 Al2 1_555 1_555
O2A Al2 1_555 1_555
O3B P1B 1_555 1_555
O3_2 Al1 1_555 1_555
O3B_2 Al1 1_555 1_555
C1B C1 1_555 1_555
C2B P1B 1_555 1_555
Al2B F1B 1_555 1_555
C1B C2B 1_555 1_555

#END
