
#######################################################################
#
#                 Cambridge Crystallographic Data Centre
#                                CCDC 
#
#######################################################################
#
# If this CIF has been generated from an entry in the Cambridge 
# Structural Database, then it will include bibliographic, chemical, 
# crystal, experimental, refinement or atomic coordinate data resulting 
# from the CCDC's data processing and validation procedures.
#
#######################################################################

data_CISXEJ
_symmetry_cell_setting           monoclinic
_symmetry_space_group_name_H-M   'P 21'
_symmetry_Int_Tables_number      4
_space_group_name_Hall           'P 2yb'
loop_
_symmetry_equiv_pos_site_id
_symmetry_equiv_pos_as_xyz
1 x,y,z
2 -x,1/2+y,-z
_cell_length_a                   11.2213(2)
_cell_length_b                   39.8468(7)
_cell_length_c                   22.4948(5)
_cell_angle_alpha                90
_cell_angle_beta                 104.135(2)
_cell_angle_gamma                90
_cell_volume                     9753.63
loop_
_atom_site_label
_atom_site_type_symbol
_atom_site_fract_x
_atom_site_fract_y
_atom_site_fract_z
Pb1 Pb 0.18604(2) 0.485703(5) 0.754420(11)
Pb2 Pb 0.78599(2) 0.514874(5) 0.726979(11)
P1 P 0.66656(18) 0.49529(5) 1.32151(9)
P2 P 0.87259(16) 0.40591(4) 1.29365(8)
P3 P 0.13570(18) 0.20108(4) 0.49647(9)
P4 P 0.24429(17) 0.25938(4) 0.32488(9)
P5 P 0.81763(17) 0.78015(5) 1.07283(9)
P6 P 0.53380(17) 0.80812(4) 0.90918(9)
Na1 Na 0.4935(2) 0.49631(6) 0.74453(12)
Na2 Na -0.0822(3) 0.43089(6) 0.65640(13)
O1 O 0.7488(5) 0.47938(14) 1.3761(2)
O2 O 0.7382(4) 0.41111(11) 1.2686(2)
O3 O 0.3860(4) 0.48433(13) 0.8187(2)
O4 O 0.2883(5) 0.44612(13) 0.8615(2)
O5 O 1.6723(4) 0.54310(12) 1.6161(2)
O6 O 1.5796(4) 0.50561(11) 1.6617(2)
O7 O 0.1607(5) 0.18822(12) 0.5609(2)
O8 O 0.1415(5) 0.26914(12) 0.3526(2)
O9 O 0.3104(5) 0.45447(12) 0.7009(3)
O10 O 0.1184(5) 0.44427(12) 0.6497(2)
O11 O 0.8831(5) 0.03776(14) 0.3320(3)
O12 O 0.6965(4) 0.02602(12) 0.2792(2)
O13 O 0.7612(5) 0.81360(12) 1.0747(3)
O14 O 0.6396(5) 0.78643(13) 0.9057(2)
O15 O 0.6435(4) 0.53984(11) 0.7858(2)
O16 O 0.7548(5) 0.57852(11) 0.7541(3)
O17 O 0.3107(5) 0.96978(11) 1.2315(2)
O18 O 0.1581(6) 0.94478(11) 1.2608(3)
C1 C 0.7074(6) 0.48819(18) 1.2491(3)
C2 C 0.8253(6) 0.47997(16) 1.2465(3)
C3 C 0.8517(6) 0.47593(17) 1.1869(3)
C4 C 0.9765(7) 0.47235(19) 1.1822(4)
H1 H 1.0417 0.4727 1.2182
C5 C 1.0015(7) 0.4685(2) 1.1271(4)
H2 H 1.0847 0.4672 1.1246
C6 C 0.9089(7) 0.4662(2) 1.0741(4)
H3 H 0.929 0.4627 1.036
C7 C 0.7878(7) 0.4691(2) 1.0760(3)
C8 C 0.7579(6) 0.47606(16) 1.1344(3)
C9 C 0.6378(6) 0.48416(19) 1.1382(3)
H4 H 0.5731 0.485 1.102
C10 C 0.6138(6) 0.49083(17) 1.1940(3)
H5 H 0.5333 0.4973 1.1958
C11 C 0.9582(6) 0.44316(17) 1.3260(3)
C12 C 0.9285(6) 0.47470(16) 1.3026(3)
C13 C 0.9967(7) 0.50356(18) 1.3302(3)
C14 C 0.9684(9) 0.5363(2) 1.3063(5)
H6 H 0.8995 0.5394 1.2726
C15 C 1.0357(11) 0.5626(2) 1.3299(6)
H7 H 1.0178 0.5841 1.3118
C16 C 1.1347(9) 0.5584(2) 1.3825(5)
H8 H 1.1807 0.5775 1.3999
C17 C 1.1654(8) 0.52802(19) 1.4084(4)
C18 C 1.0981(7) 0.49934(17) 1.3825(3)
C19 C 1.1269(7) 0.46619(18) 1.4036(3)
H9 H 1.1944 0.4627 1.4379
C20 C 1.0625(6) 0.43935(17) 1.3770(3)
H10 H 1.0866 0.4175 1.3924
C21 C 0.6856(7) 0.46549(17) 1.0193(3)
C22 C 0.6895(6) 0.4844(2) 0.9669(3)
H11 H 0.7587 0.4982 0.9671
C23 C 0.5939(6) 0.4830(2) 0.9156(3)
H12 H 0.5958 0.4964 0.8809
C24 C 0.4935(7) 0.46183(17) 0.9143(3)
C25 C 0.4939(7) 0.44163(18) 0.9651(3)
H13 H 0.4284 0.4264 0.9643
C26 C 0.5897(7) 0.44397(17) 1.0162(3)
H14 H 0.5893 0.4301 1.0506
C27 C 0.3810(7) 0.46371(17) 0.8617(3)
C28 C 1.2704(7) 0.52578(17) 1.4623(3)
C29 C 1.3830(7) 0.54082(19) 1.4594(4)
H15 H 1.3903 0.5512 1.4225
C30 C 1.4817(7) 0.54058(19) 1.5093(3)
H16 H 1.5559 0.5513 1.5068
C31 C 1.4747(6) 0.52465(16) 1.5641(3)
C32 C 1.3640(6) 0.50981(17) 1.5670(3)
H17 H 1.3572 0.4991 1.6038
C33 C 1.2640(7) 0.51040(18) 1.5172(3)
H18 H 1.1893 0.5001 1.5203
C34 C 1.5837(6) 0.52446(16) 1.6172(3)
C35 C 0.5102(6) 0.48088(18) 1.3066(3)
C36 C 0.4918(7) 0.44638(19) 1.2976(4)
H19 H 0.5601 0.4319 1.3
C37 C 0.3743(7) 0.4333(2) 1.2850(4)
H20 H 0.361 0.4099 1.2787
C38 C 0.2756(7) 0.4550(2) 1.2819(4)
H21 H 0.195 0.446 1.2749
C39 C 0.2914(7) 0.4889(2) 1.2884(4)
H22 H 0.2227 0.5034 1.2845
C40 C 0.4091(8) 0.5016(2) 1.3008(4)
H23 H 0.421 0.5252 1.3054
C41 C 0.6562(7) 0.53994(19) 1.3300(4)
C42 C 0.6508(12) 0.5625(2) 1.2833(5)
H24 H 0.6537 0.5547 1.2438
C43 C 0.6410(16) 0.5967(2) 1.2938(6)
H25 H 0.6414 0.6123 1.262
C44 C 0.6308(13) 0.6077(2) 1.3496(6)
H26 H 0.6228 0.6311 1.3561
C45 C 0.6319(10) 0.5860(2) 1.3961(5)
H27 H 0.6235 0.5939 1.4347
C46 C 0.6459(7) 0.5518(2) 1.3858(4)
H28 H 0.6483 0.5364 1.4183
C47 C 0.9069(6) 0.37648(15) 1.3558(3)
C48 C 0.8720(7) 0.38565(19) 1.4090(3)
H29 H 0.8351 0.407 1.4109
C49 C 0.8898(7) 0.36454(19) 1.4583(4)
H30 H 0.8657 0.3715 1.494
C50 C 0.9434(7) 0.3328(2) 1.4568(4)
H31 H 0.9549 0.3179 1.4908
C51 C 0.9783(8) 0.32397(19) 1.4045(4)
H32 H 1.0159 0.3028 1.4026
C52 C 0.9602(7) 0.34533(18) 1.3542(4)
H33 H 0.9845 0.3385 1.3185
C53 C 0.9458(7) 0.39132(17) 1.2350(3)
C54 C 0.8728(8) 0.3902(2) 1.1760(4)
H34 H 0.7882 0.396 1.1679
C55 C 0.9254(11) 0.3803(2) 1.1277(4)
H35 H 0.8764 0.3796 1.0868
C56 C 1.0451(10) 0.3719(2) 1.1397(5)
H36 H 1.0793 0.3651 1.107
C57 C 1.1195(8) 0.3731(2) 1.1987(4)
H37 H 1.2039 0.3672 1.2061
C58 C 1.0702(7) 0.38293(19) 1.2470(4)
H38 H 1.1205 0.3839 1.2876
C59 C 0.2199(6) 0.23938(15) 0.4930(3)
C60 C 0.3166(6) 0.24549(16) 0.4676(3)
C61 C 0.3870(6) 0.27688(15) 0.4822(3)
C62 C 0.4986(7) 0.28208(17) 0.4654(3)
H39 H 0.5301 0.2649 0.4442
C63 C 0.5616(7) 0.31110(17) 0.4789(4)
H40 H 0.6373 0.314 0.4677
C64 C 0.5159(7) 0.33706(18) 0.5093(4)
H41 H 0.5609 0.3574 0.5184
C65 C 0.4067(7) 0.33340(16) 0.5263(4)
C66 C 0.3408(6) 0.30220(16) 0.5156(3)
C67 C 0.2364(6) 0.29514(16) 0.5367(3)
H42 H 0.2042 0.3122 0.5579
C68 C 0.1795(7) 0.26522(17) 0.5281(3)
H43 H 0.1117 0.2611 0.5454
C69 C 0.3402(6) 0.22539(15) 0.3652(3)
C70 C 0.3633(6) 0.22109(15) 0.4275(3)
C71 C 0.4388(6) 0.19352(15) 0.4564(3)
C72 C 0.4675(7) 0.18870(17) 0.5204(3)
H44 H 0.4388 0.2044 0.5456
C73 C 0.5358(7) 0.16188(17) 0.5466(3)
H45 H 0.5536 0.1589 0.5898
C74 C 0.5800(7) 0.13870(17) 0.5107(4)
H46 H 0.626 0.1199 0.5299
C75 C 0.5589(6) 0.14230(16) 0.4490(3)
C76 C 0.4852(6) 0.17030(15) 0.4195(3)
C77 C 0.4638(6) 0.17667(15) 0.3559(3)
H47 H 0.4992 0.1624 0.331
C78 C 0.3927(6) 0.20313(15) 0.3299(3)
H48 H 0.3781 0.2067 0.287
C79 C 0.3629(7) 0.36176(17) 0.5595(3)
C80 C 0.2431(7) 0.37447(17) 0.5387(4)
H49 H 0.1904 0.3658 0.5023
C81 C 0.2018(6) 0.39941(16) 0.5707(3)
H50 H 0.1198 0.4073 0.5569
C82 C 0.2780(6) 0.41328(16) 0.6231(3)
C83 C 0.3986(7) 0.40195(18) 0.6414(4)
H51 H 0.4532 0.4123 0.6754
C84 C 0.4404(7) 0.37625(18) 0.6116(4)
H52 H 0.522 0.3682 0.6263
C85 C 0.2300(6) 0.43948(16) 0.6593(3)
C86 C 0.6121(7) 0.11805(15) 0.4124(3)
C87 C 0.7391(7) 0.11188(17) 0.4299(4)
H53 H 0.7893 0.1238 0.4634
C88 C 0.7915(7) 0.08839(17) 0.3985(3)
H54 H 0.8776 0.0845 0.4104
C89 C 0.7186(7) 0.07034(16) 0.3494(3)
C90 C 0.5927(6) 0.07749(15) 0.3318(3)
H55 H 0.5422 0.0659 0.298
C91 C 0.5410(6) 0.10096(15) 0.3624(3)
H56 H 0.4556 0.1056 0.3493
C92 C 0.7717(7) 0.04291(16) 0.3195(3)
C93 C -0.0230(6) 0.21307(17) 0.4659(4)
C94 C -0.1095(7) 0.19969(19) 0.4947(4)
H57 H -0.0851 0.1858 0.5299
C95 C -0.2334(8) 0.2075(2) 0.4698(5)
H58 H -0.2947 0.1987 0.488
C96 C -0.2667(7) 0.2279(2) 0.4192(4)
H59 H -0.3512 0.2325 0.402
C97 C -0.1804(7) 0.24163(19) 0.3934(4)
H60 H -0.2042 0.2562 0.3592
C98 C -0.0583(7) 0.23419(19) 0.4172(4)
H61 H 0.0022 0.2439 0.3995
C99 C 0.1634(6) 0.16842(16) 0.4458(3)
C100 C 0.1321(7) 0.17238(18) 0.3828(4)
H62 H 0.0965 0.1928 0.3653
C101 C 0.1524(7) 0.14663(17) 0.3452(4)
H63 H 0.1307 0.1493 0.3019
C102 C 0.2049(7) 0.11678(17) 0.3714(4)
H64 H 0.2198 0.0991 0.3458
C103 C 0.2354(7) 0.11273(17) 0.4337(4)
H65 H 0.2707 0.0923 0.4513
C104 C 0.2142(7) 0.13878(17) 0.4711(4)
H66 H 0.235 0.136 0.5143
C105 C 0.3489(7) 0.29408(16) 0.3231(3)
C106 C 0.4584(7) 0.28991(17) 0.3050(4)
H67 H 0.4783 0.2687 0.2907
C107 C 0.5388(8) 0.31696(19) 0.3078(4)
H68 H 0.6131 0.3143 0.2952
C108 C 0.5092(10) 0.3475(2) 0.3289(4)
H69 H 0.5645 0.3658 0.3321
C109 C 0.3972(10) 0.35162(19) 0.3459(5)
H70 H 0.3755 0.3729 0.3591
C110 C 0.3195(7) 0.32469(17) 0.3433(4)
H71 H 0.2448 0.3273 0.3555
C111 C 0.1872(6) 0.24346(16) 0.2482(3)
C112 C 0.2328(7) 0.25287(18) 0.1982(3)
H72 H 0.2951 0.2695 0.2028
C113 C 0.1867(8) 0.2379(2) 0.1423(4)
H73 H 0.2206 0.2437 0.1089
C114 C 0.0931(7) 0.2147(2) 0.1332(4)
H74 H 0.0612 0.2048 0.0941
C115 C 0.0472(7) 0.2065(2) 0.1833(4)
H75 H -0.0174 0.1905 0.1784
C116 C 0.0921(7) 0.2205(2) 0.2386(4)
H76 H 0.0577 0.2145 0.2718
C117 C 0.7170(6) 0.74909(15) 1.0285(3)
C118 C 0.5917(6) 0.75248(15) 1.0117(3)
C119 C 0.5152(7) 0.72619(17) 0.9775(3)
C120 C 0.3879(7) 0.72737(19) 0.9661(4)
H77 H 0.3499 0.7458 0.981
C121 C 0.3168(7) 0.7027(2) 0.9342(4)
H78 H 0.2301 0.7034 0.9283
C122 C 0.3728(8) 0.6758(2) 0.9096(4)
H79 H 0.3226 0.6589 0.8863
C123 C 0.4960(7) 0.67386(17) 0.9187(4)
C124 C 0.5732(6) 0.69803(16) 0.9570(3)
C125 C 0.7022(6) 0.69546(16) 0.9732(3)
H80 H 0.7414 0.6768 0.9597
C126 C 0.7719(6) 0.72007(15) 1.0088(3)
H81 H 0.8587 0.7177 1.0205
C127 C 0.5010(6) 0.80940(16) 0.9847(3)
C128 C 0.5283(6) 0.78325(16) 1.0265(3)
C129 C 0.4968(6) 0.78533(15) 1.0838(3)
C130 C 0.5144(6) 0.75798(16) 1.1248(3)
H82 H 0.5513 0.7379 1.1149
C131 C 0.4789(8) 0.76007(17) 1.1785(4)
H83 H 0.4853 0.741 1.2045
C132 C 0.4326(8) 0.79081(18) 1.1953(4)
H84 H 0.4118 0.7923 1.2337
C133 C 0.4170(7) 0.81794(16) 1.1584(3)
C134 C 0.4457(6) 0.81615(16) 1.1011(3)
C135 C 0.4178(6) 0.84194(15) 1.0556(3)
H85 H 0.3808 0.8621 1.065
C136 C 0.4418(6) 0.83885(16) 1.0004(3)
H86 H 0.4192 0.8564 0.9712
C137 C 0.5493(7) 0.64593(18) 0.8873(4)
C138 C 0.5227(7) 0.61264(18) 0.8961(4)
H87 H 0.4756 0.6067 0.9244
C139 C 0.5671(7) 0.58758(17) 0.8623(4)
H88 H 0.5498 0.5646 0.8679
C140 C 0.6340(6) 0.59617(15) 0.8218(3)
C141 C 0.6587(8) 0.63016(17) 0.8134(4)
H89 H 0.7035 0.6365 0.7844
C142 C 0.6184(7) 0.65370(17) 0.8467(4)
H90 H 0.6386 0.6765 0.8419
C143 C 0.6795(7) 0.56956(18) 0.7842(3)
C144 C 0.3715(7) 0.85033(16) 1.1797(3)
C145 C 0.2694(7) 0.85104(16) 1.2041(3)
H91 H 0.2261 0.8309 1.2073
C146 C 0.2302(8) 0.88146(17) 1.2238(3)
H92 H 0.1604 0.8817 1.2407
C147 C 0.2914(7) 0.91120(16) 1.2192(3)
C148 C 0.3966(7) 0.90961(16) 1.1956(3)
H93 H 0.4411 0.9295 1.1925
C149 C 0.4350(7) 0.87994(17) 1.1771(3)
H94 H 0.5071 0.8795 1.1621
C150 C 0.2486(7) 0.94393(16) 1.2383(3)
C151 C 0.8749(8) 0.7623(2) 1.1473(4)
C152 C 0.9013(14) 0.7300(3) 1.1584(5)
H95 H 0.8807 0.7145 1.1254
C153 C 0.9585(19) 0.7179(3) 1.2172(6)
H96 H 0.9768 0.6947 1.2226
C154 C 0.987(2) 0.7381(4) 1.2651(6)
H97 H 1.0223 0.7299 1.3053
C155 C 0.9630(19) 0.7730(4) 1.2533(6)
H98 H 0.9842 0.7885 1.2863
C156 C 0.9095(12) 0.7849(3) 1.1951(5)
H99 H 0.8967 0.8083 1.1881
C157 C 0.9485(7) 0.78191(16) 1.0398(4)
C158 C 1.0654(8) 0.7754(2) 1.0732(5)
H100 H 1.0795 0.769 1.115
C159 C 1.1669(8) 0.7783(2) 1.0449(6)
H101 H 1.2481 0.7732 1.0674
C160 C 1.1445(9) 0.7887(2) 0.9850(6)
H102 H 1.2112 0.7915 0.9663
C161 C 1.0282(9) 0.7950(2) 0.9522(5)
H103 H 1.0142 0.8015 0.9104
C162 C 0.9276(8) 0.79210(19) 0.9793(4)
H104 H 0.8467 0.7971 0.9563
C163 C 0.5623(6) 0.85170(17) 0.8949(3)
C164 C 0.6603(7) 0.86659(18) 0.9350(4)
H105 H 0.708 0.854 0.9683
C165 C 0.6898(8) 0.8994(2) 0.9273(4)
H106 H 0.7595 0.909 0.9545
C166 C 0.6193(8) 0.9187(2) 0.8802(4)
H107 H 0.64 0.9415 0.8752
C167 C 0.5175(8) 0.9040(2) 0.8404(4)
H108 H 0.4664 0.9168 0.8086
C168 C 0.4918(7) 0.87047(18) 0.8478(4)
H109 H 0.4243 0.8602 0.8199
C169 C 0.3943(7) 0.79491(19) 0.8570(3)
C170 C 0.2826(7) 0.8105(2) 0.8507(4)
H110 H 0.2764 0.8294 0.8755
C171 C 0.1778(8) 0.7989(2) 0.8081(4)
H111 H 0.1015 0.8104 0.8022
C172 C 0.1888(10) 0.7703(3) 0.7750(5)
H112 H 0.118 0.7619 0.7467
C173 C 0.2923(11) 0.7543(3) 0.7813(4)
H113 H 0.2955 0.7346 0.7578
C174 C 0.3977(9) 0.7658(2) 0.8217(4)
H114 H 0.4729 0.754 0.8259
O19 O 0.1738(6) 0.53886(15) 0.8308(3)
N1 N 0.1644(7) 0.59185(18) 0.7875(4)
C175 C 0.0341(9) 0.5918(3) 0.7655(7)
H115 H 0.0069 0.6137 0.7471
H116 H -0.0039 0.5875 0.7996
H117 H 0.0097 0.5742 0.7345
C176 C 0.2302(12) 0.6196(2) 0.7713(6)
H118 H 0.1719 0.637 0.752
H119 H 0.2776 0.6121 0.7425
H120 H 0.2862 0.6286 0.8082
C177 C 0.2237(9) 0.56519(19) 0.8157(4)
H121 H 0.3109 0.5658 0.8255
O20 O -0.2509(7) 0.41413(16) 0.5791(3)
N2 N -0.4218(6) 0.43005(15) 0.5078(3)
C178 C -0.3759(8) 0.4183(2) 0.4589(4)
H122 H -0.4365 0.4224 0.4202
H123 H -0.3598 0.3941 0.4638
H124 H -0.2993 0.43 0.4587
C179 C -0.5437(9) 0.4436(3) 0.4960(6)
H125 H -0.5797 0.444 0.4517
H126 H -0.5404 0.4665 0.5123
H127 H -0.5943 0.4295 0.5159
C180 C -0.3539(9) 0.4273(2) 0.5647(5)
H128 H -0.3864 0.4361 0.5967
O21 O -0.0053(6) 0.37855(15) 0.6877(3)
N3 N 0.1836(7) 0.35689(17) 0.7266(4)
C181 C 0.2143(11) 0.3789(3) 0.7801(5)
H129 H 0.2957 0.3729 0.8054
H130 H 0.1529 0.3762 0.8041
H131 H 0.2149 0.4022 0.7666
C182 C 0.2788(9) 0.3331(3) 0.7209(6)
H132 H 0.349 0.3352 0.7565
H133 H 0.3055 0.3378 0.6834
H134 H 0.246 0.3102 0.719
C183 C 0.0798(9) 0.3589(2) 0.6854(5)
H135 H 0.0681 0.3443 0.651
O22 O -0.1267(5) 0.48654(13) 0.6265(2)
N4 N -0.0909(6) 0.50542(15) 0.5378(3)
C184 C -0.0748(8) 0.47170(18) 0.5135(4)
H136 H -0.0586 0.4739 0.4728
H137 H -0.1497 0.4585 0.5104
H138 H -0.0054 0.4604 0.5411
C185 C -0.0717(8) 0.5336(2) 0.5009(4)
H139 H -0.0564 0.5255 0.4624
H140 H -0.0008 0.5467 0.5233
H141 H -0.145 0.5479 0.492
C186 C -0.1122(6) 0.50911(18) 0.5922(3)
H142 H -0.1167 0.5314 0.6062
O23 O 0.9368(5) 0.51810(15) 0.8443(3)
H143 H 0.9435 0.4974 0.8691
H144 H 1.02 0.5245 0.8407
Pb1A Pb 0.81396(2) -0.014297(5) 0.245580(11)
Pb2_2 Pb -0.21401(2) 0.514874(5) 0.726979(11)
Pb2_3 Pb 1.78599(2) 0.514874(5) 1.726979(11)
Pb2A Pb 0.21401(2) 1.014874(5) 1.273021(11)
Na1_2 Na 1.4935(2) 0.49631(6) 1.74453(12)
Na1A Na 0.5065(2) -0.00369(6) 0.25547(12)
Na1A_2 Na 0.5065(2) 0.99631(6) 1.25547(12)
Na2A Na 0.0822(3) 0.93089(6) 1.34360(13)
O5_2 O 0.6723(4) 0.54310(12) 0.6161(2)
O6_2 O 0.5796(4) 0.50561(11) 0.6617(2)
O11A O 0.1169(5) 0.53776(14) 0.6680(3)
O12A O 0.3035(4) 0.52602(12) 0.7208(2)
O17A O 0.6893(5) 0.46978(11) 0.7685(2)
O18A O -0.1581(6) 0.44478(11) 0.7392(3)
O18A_2 O 0.8419(6) 0.44478(11) 0.7392(3)
O22_2 O 0.8733(5) 0.48654(13) 0.6265(2)
O24 O 0.3003(10) 0.5074(3) 1.1196(5)
N5 N 0.3110(8) 0.5175(2) 1.0204(4)
C187 C 0.2260(11) 0.4926(3) 0.9901(6)
H145 H 0.2217 0.493 0.9461
H146 H 0.1445 0.4973 0.9968
H147 H 0.2535 0.4704 1.0067
C188 C 0.3793(12) 0.5360(3) 0.9844(6)
H148 H 0.3511 0.5294 0.9412
H149 H 0.467 0.5309 0.999
H150 H 0.3659 0.5601 0.9884
C189 C 0.3393(12) 0.5235(3) 1.0813(5)
H151 H 0.3938 0.5415 1.096
O25 O 0.9458(6) 0.46059(16) 0.9125(3)
N6 N 0.9866(6) 0.40470(15) 0.9228(3)
C190 C 0.8799(8) 0.3979(2) 0.9456(5)
H152 H 0.8773 0.3739 0.955
H153 H 0.8057 0.404 0.9144
H154 H 0.8841 0.411 0.9829
C191 C 1.0655(10) 0.3773(2) 0.9151(6)
H155 H 1.0351 0.3564 0.9291
H156 H 1.1493 0.3816 0.9392
H157 H 1.0655 0.3752 0.8717
C192 C 1.0103(8) 0.43555(19) 0.9068(4)
H158 H 1.0795 0.4389 0.8903
O26 O 0.9554(7) 0.29472(17) 0.5905(3)
N7 N 0.7759(8) 0.2844(2) 0.6151(4)
C193 C 0.7641(15) 0.3160(3) 0.6411(8)
H159 H 0.688 0.3166 0.6551
H160 H 0.7616 0.3335 0.6103
H161 H 0.8344 0.3198 0.676
C194 C 0.6820(14) 0.2593(3) 0.6180(8)
H162 H 0.6189 0.2695 0.6357
H163 H 0.7202 0.2405 0.6437
H164 H 0.644 0.2512 0.5766
C195 C 0.8684(10) 0.2748(3) 0.5922(6)
H165 H 0.8695 0.2527 0.5767
O27 O 0.0957(16) 0.6425(4) 0.8926(8)
N8 N 0.0411(19) 0.6008(4) 0.9453(8)
C196 C -0.0827(19) 0.6044(6) 0.9261(11)
H166 H -0.1231 0.5869 0.9447
H167 H -0.1077 0.6023 0.8813
H168 H -0.1065 0.6265 0.9383
C197 C 0.097(2) 0.5765(5) 0.9926(10)
H169 H 0.0324 0.5638 1.0051
H170 H 0.1473 0.5883 1.0282
H171 H 0.149 0.561 0.9763
C198 C 0.134(2) 0.6195(5) 0.9315(8)
H172 H 0.2182 0.6155 0.9495
O28 O 1.1768(17) 0.6714(4) 1.3433(9)
N9 N 1.006(2) 0.6448(4) 1.3698(10)
C199 C 0.907(2) 0.6529(6) 1.3241(11)
H173 H 0.8326 0.6433 1.3328
H174 H 0.9178 0.6439 1.2852
H175 H 0.8988 0.6774 1.3211
C200 C 0.978(2) 0.6205(6) 1.4160(11)
H176 H 0.8889 0.6173 1.4083
H177 H 1.0098 0.6294 1.4575
H178 H 1.0172 0.5989 1.4123
C201 C 1.129(2) 0.6516(5) 1.3773(10)
H179 H 1.185 0.6408 1.4104
O29 O 0.620(2) 0.6778(6) 1.2249(12)
N10 N 0.551(2) 0.7030(6) 1.3045(11)
C202 C 0.433(3) 0.6873(8) 1.2984(16)
H180 H 0.3943 0.6962 1.3299
H181 H 0.4432 0.663 1.3034
H182 H 0.38 0.6922 1.2577
C203 C 0.593(3) 0.7287(7) 1.3498(14)
H183 H 0.5339 0.7312 1.3753
H184 H 0.6 0.750 1.3292
H185 H 0.6733 0.7224 1.3757
C204 C 0.639(2) 0.6997(6) 1.2716(12)
H186 H 0.7125 0.7127 1.282
O30 O 0.412(4) 0.6204(12) 1.055(2)
N11 N 0.630(4) 0.6242(11) 1.0984(15)
C205 C 0.688(5) 0.5925(13) 1.096(3)
H187 H 0.7745 0.5939 1.1187
H188 H 0.6842 0.5868 1.053
H189 H 0.6464 0.5752 1.114
C206 C 0.710(5) 0.6518(13) 1.129(3)
H190 H 0.7893 0.6426 1.1511
H191 H 0.671 0.6633 1.1575
H192 H 0.7232 0.6677 1.0978
C207 C 0.512(4) 0.6347(11) 1.0814(15)
H193 H 0.5012 0.6575 1.0915
O31 O 0.316(3) 0.6258(8) 1.2963(15)
N12 N 0.255(3) 0.5881(6) 1.2106(14)
C208 C 0.355(4) 0.5878(11) 1.182(2)
H194 H 0.3476 0.5683 1.1552
H195 H 0.4323 0.5864 1.214
H196 H 0.354 0.6084 1.1586
C209 C 0.145(3) 0.5697(10) 1.1817(19)
H197 H 0.0965 0.5655 1.2118
H198 H 0.1678 0.5482 1.1664
H199 H 0.0961 0.5828 1.1475
C210 C 0.248(3) 0.6061(7) 1.2589(14)
H200 H 0.1703 0.6035 1.2681
O32 O 1.029(4) 0.6590(9) 1.120(2)
N13 N 1.198(3) 0.6782(6) 1.0897(16)
C211 C 1.128(4) 0.6815(13) 1.0297(17)
H201 H 1.1762 0.6932 1.0052
H202 H 1.0537 0.6945 1.0295
H203 H 1.1049 0.6592 1.0123
C212 C 1.328(3) 0.6846(11) 1.112(2)
H204 H 1.3523 0.6815 1.1564
H205 H 1.3461 0.7077 1.1018
H206 H 1.3744 0.669 1.0923
C213 C 1.145(4) 0.6673(8) 1.1339(16)
H207 H 1.1919 0.6656 1.1751
loop_
_geom_bond_atom_site_label_1
_geom_bond_atom_site_label_2
_geom_bond_site_symmetry_1
_geom_bond_site_symmetry_2
Pb1 O3 1_555 1_555
Pb2 O15 1_555 1_555
P1 O1 1_555 1_555
P2 O2 1_555 1_555
P3 O7 1_555 1_555
P4 O8 1_555 1_555
P5 O13 1_555 1_555
P6 O14 1_555 1_555
Na1 O3 1_555 1_555
Na2 O10 1_555 1_555
O3 C27 1_555 1_555
O4 Pb1 1_555 1_555
O5 C34 1_555 1_555
O6 C34 1_555 1_555
O9 Pb1 1_555 1_555
O10 Pb1 1_555 1_555
O11 C92 1_555 1_555
O12 C92 1_555 1_555
O15 Na1 1_555 1_555
O16 Pb2 1_555 1_555
O17 C150 1_555 1_555
O18 C150 1_555 1_555
C1 P1 1_555 1_555
C2 C1 1_555 1_555
C3 C2 1_555 1_555
C4 C3 1_555 1_555
H1 C4 1_555 1_555
C5 C4 1_555 1_555
H2 C5 1_555 1_555
C6 C5 1_555 1_555
H3 C6 1_555 1_555
C7 C6 1_555 1_555
C8 C3 1_555 1_555
C9 C8 1_555 1_555
H4 C9 1_555 1_555
C10 C1 1_555 1_555
H5 C10 1_555 1_555
C11 P2 1_555 1_555
C12 C2 1_555 1_555
C13 C12 1_555 1_555
C14 C13 1_555 1_555
H6 C14 1_555 1_555
C15 C14 1_555 1_555
H7 C15 1_555 1_555
C16 C15 1_555 1_555
H8 C16 1_555 1_555
C17 C16 1_555 1_555
C18 C13 1_555 1_555
C19 C18 1_555 1_555
H9 C19 1_555 1_555
C20 C11 1_555 1_555
H10 C20 1_555 1_555
C21 C7 1_555 1_555
C22 C21 1_555 1_555
H11 C22 1_555 1_555
C23 C22 1_555 1_555
H12 C23 1_555 1_555
C24 C23 1_555 1_555
C25 C24 1_555 1_555
H13 C25 1_555 1_555
C26 C21 1_555 1_555
H14 C26 1_555 1_555
C27 O4 1_555 1_555
C28 C17 1_555 1_555
C29 C28 1_555 1_555
H15 C29 1_555 1_555
C30 C29 1_555 1_555
H16 C30 1_555 1_555
C31 C30 1_555 1_555
C32 C31 1_555 1_555
H17 C32 1_555 1_555
C33 C28 1_555 1_555
H18 C33 1_555 1_555
C34 C31 1_555 1_555
C35 P1 1_555 1_555
C36 C35 1_555 1_555
H19 C36 1_555 1_555
C37 C36 1_555 1_555
H20 C37 1_555 1_555
C38 C37 1_555 1_555
H21 C38 1_555 1_555
C39 C38 1_555 1_555
H22 C39 1_555 1_555
C40 C35 1_555 1_555
H23 C40 1_555 1_555
C41 P1 1_555 1_555
C42 C41 1_555 1_555
H24 C42 1_555 1_555
C43 C42 1_555 1_555
H25 C43 1_555 1_555
C44 C43 1_555 1_555
H26 C44 1_555 1_555
C45 C44 1_555 1_555
H27 C45 1_555 1_555
C46 C41 1_555 1_555
H28 C46 1_555 1_555
C47 P2 1_555 1_555
C48 C47 1_555 1_555
H29 C48 1_555 1_555
C49 C48 1_555 1_555
H30 C49 1_555 1_555
C50 C49 1_555 1_555
H31 C50 1_555 1_555
C51 C50 1_555 1_555
H32 C51 1_555 1_555
C52 C47 1_555 1_555
H33 C52 1_555 1_555
C53 P2 1_555 1_555
C54 C53 1_555 1_555
H34 C54 1_555 1_555
C55 C54 1_555 1_555
H35 C55 1_555 1_555
C56 C55 1_555 1_555
H36 C56 1_555 1_555
C57 C56 1_555 1_555
H37 C57 1_555 1_555
C58 C53 1_555 1_555
H38 C58 1_555 1_555
C59 P3 1_555 1_555
C60 C59 1_555 1_555
C61 C60 1_555 1_555
C62 C61 1_555 1_555
H39 C62 1_555 1_555
C63 C62 1_555 1_555
H40 C63 1_555 1_555
C64 C63 1_555 1_555
H41 C64 1_555 1_555
C65 C64 1_555 1_555
C66 C61 1_555 1_555
C67 C66 1_555 1_555
H42 C67 1_555 1_555
C68 C59 1_555 1_555
H43 C68 1_555 1_555
C69 P4 1_555 1_555
C70 C60 1_555 1_555
C71 C70 1_555 1_555
C72 C71 1_555 1_555
H44 C72 1_555 1_555
C73 C72 1_555 1_555
H45 C73 1_555 1_555
C74 C73 1_555 1_555
H46 C74 1_555 1_555
C75 C74 1_555 1_555
C76 C71 1_555 1_555
C77 C76 1_555 1_555
H47 C77 1_555 1_555
C78 C69 1_555 1_555
H48 C78 1_555 1_555
C79 C65 1_555 1_555
C80 C79 1_555 1_555
H49 C80 1_555 1_555
C81 C80 1_555 1_555
H50 C81 1_555 1_555
C82 C81 1_555 1_555
C83 C82 1_555 1_555
H51 C83 1_555 1_555
C84 C79 1_555 1_555
H52 C84 1_555 1_555
C85 O9 1_555 1_555
C86 C75 1_555 1_555
C87 C86 1_555 1_555
H53 C87 1_555 1_555
C88 C87 1_555 1_555
H54 C88 1_555 1_555
C89 C88 1_555 1_555
C90 C89 1_555 1_555
H55 C90 1_555 1_555
C91 C86 1_555 1_555
H56 C91 1_555 1_555
C92 C89 1_555 1_555
C93 P3 1_555 1_555
C94 C93 1_555 1_555
H57 C94 1_555 1_555
C95 C94 1_555 1_555
H58 C95 1_555 1_555
C96 C95 1_555 1_555
H59 C96 1_555 1_555
C97 C96 1_555 1_555
H60 C97 1_555 1_555
C98 C93 1_555 1_555
H61 C98 1_555 1_555
C99 P3 1_555 1_555
C100 C99 1_555 1_555
H62 C100 1_555 1_555
C101 C100 1_555 1_555
H63 C101 1_555 1_555
C102 C101 1_555 1_555
H64 C102 1_555 1_555
C103 C102 1_555 1_555
H65 C103 1_555 1_555
C104 C99 1_555 1_555
H66 C104 1_555 1_555
C105 P4 1_555 1_555
C106 C105 1_555 1_555
H67 C106 1_555 1_555
C107 C106 1_555 1_555
H68 C107 1_555 1_555
C108 C107 1_555 1_555
H69 C108 1_555 1_555
C109 C108 1_555 1_555
H70 C109 1_555 1_555
C110 C105 1_555 1_555
H71 C110 1_555 1_555
C111 P4 1_555 1_555
C112 C111 1_555 1_555
H72 C112 1_555 1_555
C113 C112 1_555 1_555
H73 C113 1_555 1_555
C114 C113 1_555 1_555
H74 C114 1_555 1_555
C115 C114 1_555 1_555
H75 C115 1_555 1_555
C116 C111 1_555 1_555
H76 C116 1_555 1_555
C117 P5 1_555 1_555
C118 C117 1_555 1_555
C119 C118 1_555 1_555
C120 C119 1_555 1_555
H77 C120 1_555 1_555
C121 C120 1_555 1_555
H78 C121 1_555 1_555
C122 C121 1_555 1_555
H79 C122 1_555 1_555
C123 C122 1_555 1_555
C124 C119 1_555 1_555
C125 C124 1_555 1_555
H80 C125 1_555 1_555
C126 C117 1_555 1_555
H81 C126 1_555 1_555
C127 P6 1_555 1_555
C128 C118 1_555 1_555
C129 C128 1_555 1_555
C130 C129 1_555 1_555
H82 C130 1_555 1_555
C131 C130 1_555 1_555
H83 C131 1_555 1_555
C132 C131 1_555 1_555
H84 C132 1_555 1_555
C133 C132 1_555 1_555
C134 C129 1_555 1_555
C135 C134 1_555 1_555
H85 C135 1_555 1_555
C136 C127 1_555 1_555
H86 C136 1_555 1_555
C137 C123 1_555 1_555
C138 C137 1_555 1_555
H87 C138 1_555 1_555
C139 C138 1_555 1_555
H88 C139 1_555 1_555
C140 C139 1_555 1_555
C141 C140 1_555 1_555
H89 C141 1_555 1_555
C142 C137 1_555 1_555
H90 C142 1_555 1_555
C143 O15 1_555 1_555
C144 C133 1_555 1_555
C145 C144 1_555 1_555
H91 C145 1_555 1_555
C146 C145 1_555 1_555
H92 C146 1_555 1_555
C147 C146 1_555 1_555
C148 C147 1_555 1_555
H93 C148 1_555 1_555
C149 C144 1_555 1_555
H94 C149 1_555 1_555
C150 C147 1_555 1_555
C151 P5 1_555 1_555
C152 C151 1_555 1_555
H95 C152 1_555 1_555
C153 C152 1_555 1_555
H96 C153 1_555 1_555
C154 C153 1_555 1_555
H97 C154 1_555 1_555
C155 C154 1_555 1_555
H98 C155 1_555 1_555
C156 C151 1_555 1_555
H99 C156 1_555 1_555
C157 P5 1_555 1_555
C158 C157 1_555 1_555
H100 C158 1_555 1_555
C159 C158 1_555 1_555
H101 C159 1_555 1_555
C160 C159 1_555 1_555
H102 C160 1_555 1_555
C161 C160 1_555 1_555
H103 C161 1_555 1_555
C162 C157 1_555 1_555
H104 C162 1_555 1_555
C163 P6 1_555 1_555
C164 C163 1_555 1_555
H105 C164 1_555 1_555
C165 C164 1_555 1_555
H106 C165 1_555 1_555
C166 C165 1_555 1_555
H107 C166 1_555 1_555
C167 C166 1_555 1_555
H108 C167 1_555 1_555
C168 C163 1_555 1_555
H109 C168 1_555 1_555
C169 P6 1_555 1_555
C170 C169 1_555 1_555
H110 C170 1_555 1_555
C171 C170 1_555 1_555
H111 C171 1_555 1_555
C172 C171 1_555 1_555
H112 C172 1_555 1_555
C173 C172 1_555 1_555
H113 C173 1_555 1_555
C174 C169 1_555 1_555
H114 C174 1_555 1_555
O19 Pb1 1_555 1_555
N1 C175 1_555 1_555
C175 H115 1_555 1_555
H116 C175 1_555 1_555
H117 C175 1_555 1_555
C176 N1 1_555 1_555
H118 C176 1_555 1_555
H119 C176 1_555 1_555
H120 C176 1_555 1_555
C177 O19 1_555 1_555
H121 C177 1_555 1_555
O20 Na2 1_555 1_555
N2 C178 1_555 1_555
C178 H122 1_555 1_555
H123 C178 1_555 1_555
H124 C178 1_555 1_555
C179 N2 1_555 1_555
H125 C179 1_555 1_555
H126 C179 1_555 1_555
H127 C179 1_555 1_555
C180 O20 1_555 1_555
H128 C180 1_555 1_555
O21 Na2 1_555 1_555
N3 C181 1_555 1_555
C181 H129 1_555 1_555
H130 C181 1_555 1_555
H131 C181 1_555 1_555
C182 N3 1_555 1_555
H132 C182 1_555 1_555
H133 C182 1_555 1_555
H134 C182 1_555 1_555
C183 O21 1_555 1_555
H135 C183 1_555 1_555
O22 Na2 1_555 1_555
N4 C184 1_555 1_555
C184 H136 1_555 1_555
H137 C184 1_555 1_555
H138 C184 1_555 1_555
C185 N4 1_555 1_555
H139 C185 1_555 1_555
H140 C185 1_555 1_555
H141 C185 1_555 1_555
C186 O22 1_555 1_555
H142 C186 1_555 1_555
O23 Pb2 1_555 1_555
H143 O23 1_555 1_555
H144 O23 1_555 1_555
O24 C189 1_555 1_555
N5 C187 1_555 1_555
C187 H145 1_555 1_555
H146 C187 1_555 1_555
H147 C187 1_555 1_555
C188 N5 1_555 1_555
H148 C188 1_555 1_555
H149 C188 1_555 1_555
H150 C188 1_555 1_555
C189 N5 1_555 1_555
H151 C189 1_555 1_555
O25 C192 1_555 1_555
N6 C190 1_555 1_555
C190 H152 1_555 1_555
H153 C190 1_555 1_555
H154 C190 1_555 1_555
C191 N6 1_555 1_555
H155 C191 1_555 1_555
H156 C191 1_555 1_555
H157 C191 1_555 1_555
C192 N6 1_555 1_555
H158 C192 1_555 1_555
O26 C195 1_555 1_555
N7 C193 1_555 1_555
C193 H159 1_555 1_555
H160 C193 1_555 1_555
H161 C193 1_555 1_555
C194 N7 1_555 1_555
H162 C194 1_555 1_555
H163 C194 1_555 1_555
H164 C194 1_555 1_555
C195 N7 1_555 1_555
H165 C195 1_555 1_555
O27 C198 1_555 1_555
N8 C196 1_555 1_555
C196 H166 1_555 1_555
H167 C196 1_555 1_555
H168 C196 1_555 1_555
C197 N8 1_555 1_555
H169 C197 1_555 1_555
H170 C197 1_555 1_555
H171 C197 1_555 1_555
C198 N8 1_555 1_555
H172 C198 1_555 1_555
O28 C201 1_555 1_555
N9 C199 1_555 1_555
C199 H173 1_555 1_555
H174 C199 1_555 1_555
H175 C199 1_555 1_555
C200 N9 1_555 1_555
H176 C200 1_555 1_555
H177 C200 1_555 1_555
H178 C200 1_555 1_555
C201 N9 1_555 1_555
H179 C201 1_555 1_555
O29 C204 1_555 1_555
N10 C202 1_555 1_555
C202 H180 1_555 1_555
H181 C202 1_555 1_555
H182 C202 1_555 1_555
C203 N10 1_555 1_555
H183 C203 1_555 1_555
H184 C203 1_555 1_555
H185 C203 1_555 1_555
C204 N10 1_555 1_555
H186 C204 1_555 1_555
O30 C207 1_555 1_555
N11 C205 1_555 1_555
C205 H187 1_555 1_555
H188 C205 1_555 1_555
H189 C205 1_555 1_555
C206 N11 1_555 1_555
H190 C206 1_555 1_555
H191 C206 1_555 1_555
H192 C206 1_555 1_555
C207 N11 1_555 1_555
H193 C207 1_555 1_555
O31 C210 1_555 1_555
N12 C208 1_555 1_555
C208 H194 1_555 1_555
H195 C208 1_555 1_555
H196 C208 1_555 1_555
C209 N12 1_555 1_555
H197 C209 1_555 1_555
H198 C209 1_555 1_555
H199 C209 1_555 1_555
C210 N12 1_555 1_555
H200 C210 1_555 1_555
O32 C213 1_555 1_555
N13 C211 1_555 1_555
C211 H201 1_555 1_555
H202 C211 1_555 1_555
H203 C211 1_555 1_555
C212 N13 1_555 1_555
H204 C212 1_555 1_555
H205 C212 1_555 1_555
H206 C212 1_555 1_555
C213 N13 1_555 1_555
H207 C213 1_555 1_555
Pb1A O11 1_555 1_555
Pb2_2 O22 1_555 1_555
Pb2_3 O5 1_555 1_555
Pb2A O17 1_555 1_555
Na1_2 O6 1_555 1_555
Na1A O12 1_555 1_555
Na1A_2 O17 1_555 1_555
Na2A O18 1_555 1_555
O5_2 Pb2 1_555 1_555
O6_2 Pb2 1_555 1_555
O11A Pb1 1_555 1_555
O12A Pb1 1_555 1_555
O17A Pb2 1_555 1_555
O18A Na2 1_555 1_555
O18A_2 Pb2 1_555 1_555
O22_2 Pb2 1_555 1_555
Na1 O9 1_555 1_555
Na1 O6_2 1_555 1_555
Na1 O12A 1_555 1_555
Na1 O17A 1_555 1_555
O6 Pb2_3 1_555 1_555
O10 C85 1_555 1_555
O12 Pb1A 1_555 1_555
O16 C143 1_555 1_555
O18 Pb2A 1_555 1_555
C7 C8 1_555 1_555
C9 C10 1_555 1_555
C11 C12 1_555 1_555
C17 C18 1_555 1_555
C19 C20 1_555 1_555
C24 C27 1_555 1_555
C25 C26 1_555 1_555
C32 C33 1_555 1_555
C39 C40 1_555 1_555
C45 C46 1_555 1_555
C51 C52 1_555 1_555
C57 C58 1_555 1_555
C65 C66 1_555 1_555
C67 C68 1_555 1_555
C69 C70 1_555 1_555
C75 C76 1_555 1_555
C77 C78 1_555 1_555
C82 C85 1_555 1_555
C83 C84 1_555 1_555
C90 C91 1_555 1_555
C97 C98 1_555 1_555
C103 C104 1_555 1_555
C109 C110 1_555 1_555
C115 C116 1_555 1_555
C123 C124 1_555 1_555
C125 C126 1_555 1_555
C127 C128 1_555 1_555
C133 C134 1_555 1_555
C135 C136 1_555 1_555
C140 C143 1_555 1_555
C141 C142 1_555 1_555
C148 C149 1_555 1_555
C155 C156 1_555 1_555
C161 C162 1_555 1_555
C167 C168 1_555 1_555
C173 C174 1_555 1_555
N1 C177 1_555 1_555
N2 C180 1_555 1_555
N3 C183 1_555 1_555
N4 C186 1_555 1_555
Pb2_2 O18A 1_555 1_555

#END
