
#######################################################################
#
#                 Cambridge Crystallographic Data Centre
#                                CCDC 
#
#######################################################################
#
# If this CIF has been generated from an entry in the Cambridge 
# Structural Database, then it will include bibliographic, chemical, 
# crystal, experimental, refinement or atomic coordinate data resulting 
# from the CCDC's data processing and validation procedures.
#
#######################################################################

data_CITVOR
_symmetry_cell_setting           triclinic
_symmetry_space_group_name_H-M   'P -1'
_symmetry_Int_Tables_number      2
_space_group_name_Hall           '-P 1'
loop_
_symmetry_equiv_pos_site_id
_symmetry_equiv_pos_as_xyz
1 x,y,z
2 -x,-y,-z
_cell_length_a                   7.0163(6)
_cell_length_b                   12.0948(11)
_cell_length_c                   12.7661(13)
_cell_angle_alpha                90.833(2)
_cell_angle_beta                 105.9450(10)
_cell_angle_gamma                97.704(2)
_cell_volume                     1030.76
loop_
_atom_site_label
_atom_site_type_symbol
_atom_site_fract_x
_atom_site_fract_y
_atom_site_fract_z
O3 O -0.219(2) -0.5450(12) -0.6770(11)
N11 N 0.0000 -0.5000 -0.5000
C15 C -0.064(3) -0.5072(13) -0.6118(11)
C16 C 0.180(4) -0.462(3) -0.541(2)
O3A O 0.219(2) -0.4550(12) -0.3230(11)
C15A C 0.064(3) -0.4928(13) -0.3882(11)
C16A C -0.180(4) -0.538(3) -0.459(2)
O4 O -0.625(8) -0.594(4) -0.550(4)
Cd1 Cd 0.0000 0.0000 0.0000
Cd2 Cd 0.50421(3) -0.120118(15) 0.065284(15)
O1 O 0.3403(3) 0.03055(16) 0.05127(16)
H1 H 0.382(5) 0.060(3) 0.107(3)
O2 O 0.5993(3) -0.29475(18) 0.02567(18)
H2 H 0.669(6) -0.289(3) -0.017(3)
H3 H 0.497(6) -0.327(3) -0.004(3)
N1 N -0.1184(3) -0.27341(19) -0.09594(19)
N2 N 0.0251(3) -0.18636(19) -0.05514(19)
N3 N 0.2008(3) -0.21586(19) -0.04855(19)
N4 N 0.1788(3) -0.32350(19) -0.08486(19)
N5 N -0.4087(4) -0.8028(2) -0.2186(2)
H4 H -0.522(6) -0.810(3) -0.262(3)
H5 H -0.336(5) -0.850(3) -0.234(3)
N6 N -0.1309(3) 0.0527(2) -0.26845(19)
N7 N 0.0181(3) 0.0462(2) -0.17802(19)
N8 N 0.1908(3) 0.0825(2) -0.19730(19)
N9 N 0.1597(4) 0.1148(2) -0.29980(19)
N10 N -0.4613(4) 0.2005(2) -0.7675(2)
H6 H -0.580(6) 0.224(3) -0.771(3)
H7 H -0.389(6) 0.240(3) -0.801(3)
C1 C -0.0199(4) -0.3564(2) -0.1129(2)
C2 C -0.1186(4) -0.4711(2) -0.1503(2)
C3 C -0.3272(4) -0.4945(2) -0.1869(2)
H8 H -0.4049 -0.4350 -0.1939
C4 C -0.4217(4) -0.6031(2) -0.2130(2)
H9 H -0.5637 -0.6178 -0.2379
C5 C -0.3099(4) -0.6910(2) -0.2030(2)
C6 C -0.1008(4) -0.6681(2) -0.1702(2)
H10 H -0.0231 -0.7273 -0.1660
C7 C -0.0068(4) -0.5586(2) -0.1438(2)
H11 H 0.1353 -0.5434 -0.1211
C8 C -0.0395(4) 0.0959(2) -0.3416(2)
C9 C -0.1470(4) 0.1220(2) -0.4524(2)
C10 C -0.3541(4) 0.1210(3) -0.4820(2)
H12 H -0.4260 0.1018 -0.4302
C11 C -0.4558(5) 0.1474(3) -0.5848(3)
H13 H -0.5969 0.1456 -0.6031
C12 C -0.3550(4) 0.1764(2) -0.6621(2)
C13 C -0.1482(5) 0.1763(3) -0.6341(3)
H14 H -0.0770 0.1945 -0.6864
C14 C -0.0460(5) 0.1498(3) -0.5304(3)
H15 H 0.0949 0.1505 -0.5123
Cd2A Cd -0.50421(3) 0.120118(15) -0.065284(15)
Cd2A_2 Cd 0.49579(3) 0.120118(15) -0.065284(15)
Cd2A_3 Cd -0.50421(3) -0.879882(15) -0.065284(15)
Cd2_2 Cd -0.49579(3) -0.120118(15) 0.065284(15)
Cd2_3 Cd 0.50421(3) 0.879882(15) 0.065284(15)
O1A O -0.3403(3) -0.03055(16) -0.05127(16)
O1A_2 O 0.6597(3) -0.03055(16) -0.05127(16)
O1_2 O -0.6597(3) 0.03055(16) 0.05127(16)
H1A H -0.382(5) -0.060(3) -0.107(3)
H1A_2 H 0.618(5) -0.060(3) -0.107(3)
H1_2 H -0.618(5) 0.060(3) 0.107(3)
O2A O -0.5993(3) 0.29475(18) -0.02567(18)
H2A H -0.669(6) 0.289(3) 0.017(3)
H3A H -0.497(6) 0.327(3) 0.004(3)
N1A N 0.1184(3) 0.27341(19) 0.09594(19)
N2A N -0.0251(3) 0.18636(19) 0.05514(19)
N3A N -0.2008(3) 0.21586(19) 0.04855(19)
N4A N -0.1788(3) 0.32350(19) 0.08486(19)
N5A N 0.4087(4) 0.8028(2) 0.2186(2)
N5A_2 N 0.4087(4) -0.1972(2) 0.2186(2)
N5_2 N -0.4087(4) 0.1972(2) -0.2186(2)
H4A H 0.522(6) 0.810(3) 0.262(3)
H4A_2 H 0.522(6) -0.190(3) 0.262(3)
H4_2 H -0.522(6) 0.190(3) -0.262(3)
H5A H 0.336(5) 0.850(3) 0.234(3)
H5A_2 H 0.336(5) -0.150(3) 0.234(3)
H5_2 H -0.336(5) 0.150(3) -0.234(3)
N6A N 0.1309(3) -0.0527(2) 0.26845(19)
N7A N -0.0181(3) -0.0462(2) 0.17802(19)
N8A N -0.1908(3) -0.0825(2) 0.19730(19)
N8A_2 N 0.8092(3) -0.0825(2) 0.19730(19)
N8_2 N -0.8092(3) 0.0825(2) -0.19730(19)
N9A N -0.1597(4) -0.1148(2) 0.29980(19)
N10A N 0.4613(4) -0.2005(2) 0.7675(2)
H6A H 0.580(6) -0.224(3) 0.771(3)
H7A H 0.389(6) -0.240(3) 0.801(3)
C1A C 0.0199(4) 0.3564(2) 0.1129(2)
C2A C 0.1186(4) 0.4711(2) 0.1503(2)
C3A C 0.3272(4) 0.4945(2) 0.1869(2)
H8A H 0.4049 0.4350 0.1939
C4A C 0.4217(4) 0.6031(2) 0.2130(2)
H9A H 0.5637 0.6178 0.2379
C5A C 0.3099(4) 0.6910(2) 0.2030(2)
C6A C 0.1008(4) 0.6681(2) 0.1702(2)
H10A H 0.0231 0.7273 0.1660
C7A C 0.0068(4) 0.5586(2) 0.1438(2)
H11A H -0.1353 0.5434 0.1211
C8A C 0.0395(4) -0.0959(2) 0.3416(2)
C9A C 0.1470(4) -0.1220(2) 0.4524(2)
C10A C 0.3541(4) -0.1210(3) 0.4820(2)
H12A H 0.4260 -0.1018 0.4302
C11A C 0.4558(5) -0.1474(3) 0.5848(3)
H13A H 0.5969 -0.1456 0.6031
C12A C 0.3550(4) -0.1764(2) 0.6621(2)
C13A C 0.1482(5) -0.1763(3) 0.6341(3)
H14A H 0.0770 -0.1945 0.6864
C14A C 0.0460(5) -0.1498(3) 0.5304(3)
H15A H -0.0949 -0.1505 0.5123
C17? C 0.217(3) -0.475(5) -0.458(4)
loop_
_geom_bond_atom_site_label_1
_geom_bond_atom_site_label_2
_geom_bond_site_symmetry_1
_geom_bond_site_symmetry_2
Cd1 O1 1_555 1_555
Cd2 O1 1_555 1_555
O1 H1 1_555 1_555
O2 Cd2 1_555 1_555
H2 O2 1_555 1_555
H3 O2 1_555 1_555
N1 N2 1_555 1_555
N2 Cd1 1_555 1_555
N3 Cd2 1_555 1_555
N4 N3 1_555 1_555
N5 H4 1_555 1_555
H5 N5 1_555 1_555
N6 N7 1_555 1_555
N7 Cd1 1_555 1_555
N8 N7 1_555 1_555
N9 N8 1_555 1_555
N10 H6 1_555 1_555
H7 N10 1_555 1_555
C1 N1 1_555 1_555
C2 C1 1_555 1_555
C3 C2 1_555 1_555
H8 C3 1_555 1_555
C4 C3 1_555 1_555
H9 C4 1_555 1_555
C5 N5 1_555 1_555
C6 C5 1_555 1_555
H10 C6 1_555 1_555
C7 C2 1_555 1_555
H11 C7 1_555 1_555
C8 N6 1_555 1_555
C9 C8 1_555 1_555
C10 C9 1_555 1_555
H12 C10 1_555 1_555
C11 C10 1_555 1_555
H13 C11 1_555 1_555
C12 N10 1_555 1_555
C13 C12 1_555 1_555
H14 C13 1_555 1_555
C14 C9 1_555 1_555
H15 C14 1_555 1_555
O3 C15 1_555 1_555
N11 C15 1_555 1_555
C15 C16 1_555 1_555
C16 N11 1_555 1_555
Cd2A O1A 1_555 1_555
Cd2A_2 O1 1_555 1_555
Cd2A_3 N5 1_555 1_555
Cd2_2 O1A 1_555 1_555
Cd2_3 N5A 1_555 1_555
O1A Cd1 1_555 1_555
O1A_2 Cd2 1_555 1_555
O1_2 Cd2A 1_555 1_555
H1A O1A 1_555 1_555
H1A_2 O1A_2 1_555 1_555
H1_2 O1_2 1_555 1_555
O2A Cd2A 1_555 1_555
H2A O2A 1_555 1_555
H3A O2A 1_555 1_555
N1A N2A 1_555 1_555
N2A Cd1 1_555 1_555
N3A Cd2A 1_555 1_555
N4A N3A 1_555 1_555
N5A H4A 1_555 1_555
N5A_2 Cd2 1_555 1_555
N5_2 Cd2A 1_555 1_555
H4A_2 N5A_2 1_555 1_555
H4_2 N5_2 1_555 1_555
H5A N5A 1_555 1_555
H5A_2 N5A_2 1_555 1_555
H5_2 N5_2 1_555 1_555
N6A N7A 1_555 1_555
N7A Cd1 1_555 1_555
N8A Cd2_2 1_555 1_555
N8A_2 Cd2 1_555 1_555
N8_2 Cd2A 1_555 1_555
N9A N8A 1_555 1_555
N10A H6A 1_555 1_555
H7A N10A 1_555 1_555
C1A N1A 1_555 1_555
C2A C1A 1_555 1_555
C3A C2A 1_555 1_555
H8A C3A 1_555 1_555
C4A C3A 1_555 1_555
H9A C4A 1_555 1_555
C5A N5A 1_555 1_555
C6A C5A 1_555 1_555
H10A C6A 1_555 1_555
C7A C2A 1_555 1_555
H11A C7A 1_555 1_555
C8A N6A 1_555 1_555
C9A C8A 1_555 1_555
C10A C9A 1_555 1_555
H12A C10A 1_555 1_555
C11A C10A 1_555 1_555
H13A C11A 1_555 1_555
C12A N10A 1_555 1_555
C13A C12A 1_555 1_555
H14A C13A 1_555 1_555
C14A C9A 1_555 1_555
H15A C14A 1_555 1_555
O3A C15A 1_555 1_555
C15A N11 1_555 1_555
C16A N11 1_555 1_555
N2 N3 1_555 1_555
N4 C1 1_555 1_555
N8 Cd2A_2 1_555 1_555
N9 C8 1_555 1_555
C4 C5 1_555 1_555
C6 C7 1_555 1_555
C11 C12 1_555 1_555
C13 C14 1_555 1_555
Cd2A_2 O1A_2 1_555 1_555
Cd2_2 O1_2 1_555 1_555
N2A N3A 1_555 1_555
N4A C1A 1_555 1_555
N7A N8A 1_555 1_555
N9A C8A 1_555 1_555
C4A C5A 1_555 1_555
C6A C7A 1_555 1_555
C11A C12A 1_555 1_555
C13A C14A 1_555 1_555
C15A C16A 1_555 1_555

#END
