
#######################################################################
#
#                 Cambridge Crystallographic Data Centre
#                                CCDC 
#
#######################################################################
#
# If this CIF has been generated from an entry in the Cambridge 
# Structural Database, then it will include bibliographic, chemical, 
# crystal, experimental, refinement or atomic coordinate data resulting 
# from the CCDC's data processing and validation procedures.
#
#######################################################################

data_CITVUX
_symmetry_cell_setting           triclinic
_symmetry_space_group_name_H-M   'P -1'
_symmetry_Int_Tables_number      2
_space_group_name_Hall           '-P 1'
loop_
_symmetry_equiv_pos_site_id
_symmetry_equiv_pos_as_xyz
1 x,y,z
2 -x,-y,-z
_cell_length_a                   6.9889(8)
_cell_length_b                   12.0763(13)
_cell_length_c                   12.8137(14)
_cell_angle_alpha                87.184(2)
_cell_angle_beta                 105.317(2)
_cell_angle_gamma                97.988(2)
_cell_volume                     1032.85
loop_
_atom_site_label
_atom_site_type_symbol
_atom_site_fract_x
_atom_site_fract_y
_atom_site_fract_z
Cd1 Cd 1.0000 0.0000 1.0000
Cd2 Cd 0.56178(3) 0.121975(17) 1.067268(16)
O1 O 0.7094(3) -0.02876(17) 1.05050(17)
H1 H 0.727(6) -0.057(3) 1.106(3)
O2 O 0.4271(4) 0.29569(19) 1.02874(19)
H2 H 0.312(6) 0.287(3) 0.988(3)
H3 H 0.499(6) 0.334(3) 0.996(3)
N1 N 1.0238(4) 0.2705(2) 0.9060(2)
N2 N 0.9210(4) 0.1857(2) 0.9476(2)
N3 N 0.7524(4) 0.2153(2) 0.9545(2)
N4 N 0.7377(4) 0.3213(2) 0.9176(2)
N5 N 1.1904(4) 0.7954(2) 0.7798(2)
H4 H 1.245(6) 0.796(3) 0.729(3)
H5 H 1.102(6) 0.842(3) 0.767(3)
N6 N 0.8674(4) -0.0570(2) 0.7333(2)
N7 N 0.8077(4) -0.0509(2) 0.8235(2)
N8 N 0.6144(4) -0.0862(2) 0.8034(2)
N9 N 0.5433(4) -0.1172(2) 0.7001(2)
N10 N 0.6919(5) -0.1926(2) 0.2276(2)
H6 H 0.791(6) -0.216(3) 0.219(3)
H7 H 0.579(6) -0.236(3) 0.190(3)
C1 C 0.9080(4) 0.3529(2) 0.8883(2)
C2 C 0.9683(4) 0.4658(2) 0.8500(2)
C3 C 1.1418(5) 0.4879(3) 0.8138(3)
H8 H 1.2135 0.4283 0.8077
C4 C 1.2101(5) 0.5955(3) 0.7868(2)
H9 H 1.3283 0.6092 0.7623
C5 C 1.1076(4) 0.6836(2) 0.7952(2)
C6 C 0.9288(5) 0.6616(2) 0.8270(2)
H10 H 0.8536 0.7207 0.8297
C7 C 0.8619(5) 0.5536(3) 0.8546(2)
H11 H 0.7414 0.5394 0.8769
C8 C 0.7025(5) -0.0985(2) 0.6586(2)
C9 C 0.6985(5) -0.1231(3) 0.5470(2)
C10 C 0.8749(5) -0.1234(3) 0.5165(3)
H12 H 0.9994 -0.1067 0.5687
C11 C 0.8731(5) -0.1475(3) 0.4122(3)
H13 H 0.9958 -0.1474 0.3934
C12 C 0.6934(5) -0.1717(3) 0.3345(3)
C13 C 0.5155(5) -0.1702(3) 0.3634(3)
H14 H 0.3912 -0.1859 0.3108
C14 C 0.5181(5) -0.1460(3) 0.4684(3)
H15 H 0.3955 -0.1450 0.4870
Cd2A Cd 1.43822(3) -0.121975(17) 0.932732(16)
Cd2A_2 Cd 0.43822(3) -0.121975(17) 0.932732(16)
Cd2A_3 Cd 1.43822(3) 0.878025(17) 0.932732(16)
Cd2_2 Cd 1.56178(3) 0.121975(17) 1.067268(16)
Cd2_3 Cd 0.56178(3) -0.878025(17) 1.067268(16)
O1A O 1.2906(3) 0.02876(17) 0.94950(17)
O1A_2 O 0.2906(3) 0.02876(17) 0.94950(17)
O1_2 O 1.7094(3) -0.02876(17) 1.05050(17)
H1A H 1.273(6) 0.057(3) 0.894(3)
H1A_2 H 0.273(6) 0.057(3) 0.894(3)
H1_2 H 1.727(6) -0.057(3) 1.106(3)
O2A O 1.5729(4) -0.29569(19) 0.97126(19)
H2A H 1.688(6) -0.287(3) 1.012(3)
H3A H 1.501(6) -0.334(3) 1.004(3)
N1A N 0.9762(4) -0.2705(2) 1.0940(2)
N2A N 1.0790(4) -0.1857(2) 1.0524(2)
N3A N 1.2476(4) -0.2153(2) 1.0455(2)
N4A N 1.2623(4) -0.3213(2) 1.0824(2)
N5A N 0.8096(4) -0.7954(2) 1.2202(2)
N5A_2 N 0.8096(4) 0.2046(2) 1.2202(2)
N5_2 N 1.1904(4) -0.2046(2) 0.7798(2)
H4A H 0.755(6) -0.796(3) 1.271(3)
H4A_2 H 0.755(6) 0.204(3) 1.271(3)
H4_2 H 1.245(6) -0.204(3) 0.729(3)
H5A H 0.898(6) -0.842(3) 1.233(3)
H5A_2 H 0.898(6) 0.158(3) 1.233(3)
H5_2 H 1.102(6) -0.158(3) 0.767(3)
N6A N 1.1326(4) 0.0570(2) 1.2667(2)
N7A N 1.1923(4) 0.0509(2) 1.1765(2)
N8A N 1.3856(4) 0.0862(2) 1.1966(2)
N8A_2 N 0.3856(4) 0.0862(2) 1.1966(2)
N8_2 N 1.6144(4) -0.0862(2) 0.8034(2)
N9A N 1.4567(4) 0.1172(2) 1.2999(2)
N10A N 1.3081(5) 0.1926(2) 1.7724(2)
H6A H 1.209(6) 0.216(3) 1.781(3)
H7A H 1.421(6) 0.236(3) 1.810(3)
C1A C 1.0920(4) -0.3529(2) 1.1117(2)
C2A C 1.0317(4) -0.4658(2) 1.1500(2)
C3A C 0.8582(5) -0.4879(3) 1.1862(3)
H8A H 0.7865 -0.4283 1.1923
C4A C 0.7899(5) -0.5955(3) 1.2132(2)
H9A H 0.6717 -0.6092 1.2377
C5A C 0.8924(4) -0.6836(2) 1.2048(2)
C6A C 1.0712(5) -0.6616(2) 1.1730(2)
H10A H 1.1464 -0.7207 1.1703
C7A C 1.1381(5) -0.5536(3) 1.1454(2)
H11A H 1.2586 -0.5394 1.1231
C8A C 1.2975(5) 0.0985(2) 1.3414(2)
C9A C 1.3015(5) 0.1231(3) 1.4530(2)
C10A C 1.1251(5) 0.1234(3) 1.4835(3)
H12A H 1.0006 0.1067 1.4313
C11A C 1.1269(5) 0.1475(3) 1.5878(3)
H13A H 1.0042 0.1474 1.6066
C12A C 1.3066(5) 0.1717(3) 1.6655(3)
C13A C 1.4845(5) 0.1702(3) 1.6366(3)
H14A H 1.6088 0.1859 1.6892
C14A C 1.4819(5) 0.1460(3) 1.5316(3)
H15A H 1.6045 0.1450 1.5130
loop_
_geom_bond_atom_site_label_1
_geom_bond_atom_site_label_2
_geom_bond_site_symmetry_1
_geom_bond_site_symmetry_2
Cd1 O1 1_555 1_555
Cd2 O1 1_555 1_555
O1 H1 1_555 1_555
O2 Cd2 1_555 1_555
H2 O2 1_555 1_555
H3 O2 1_555 1_555
N1 N2 1_555 1_555
N2 Cd1 1_555 1_555
N3 Cd2 1_555 1_555
N4 N3 1_555 1_555
N5 H4 1_555 1_555
H5 N5 1_555 1_555
N6 N7 1_555 1_555
N7 Cd1 1_555 1_555
N8 N7 1_555 1_555
N9 N8 1_555 1_555
N10 H6 1_555 1_555
H7 N10 1_555 1_555
C1 N1 1_555 1_555
C2 C1 1_555 1_555
C3 C2 1_555 1_555
H8 C3 1_555 1_555
C4 C3 1_555 1_555
H9 C4 1_555 1_555
C5 N5 1_555 1_555
C6 C5 1_555 1_555
H10 C6 1_555 1_555
C7 C2 1_555 1_555
H11 C7 1_555 1_555
C8 N6 1_555 1_555
C9 C8 1_555 1_555
C10 C9 1_555 1_555
H12 C10 1_555 1_555
C11 C10 1_555 1_555
H13 C11 1_555 1_555
C12 N10 1_555 1_555
C13 C12 1_555 1_555
H14 C13 1_555 1_555
C14 C9 1_555 1_555
H15 C14 1_555 1_555
Cd2A O1A 1_555 1_555
Cd2A_2 O1 1_555 1_555
Cd2A_3 N5 1_555 1_555
Cd2_2 O1A 1_555 1_555
Cd2_3 N5A 1_555 1_555
O1A Cd1 1_555 1_555
O1A_2 Cd2 1_555 1_555
O1_2 Cd2A 1_555 1_555
H1A O1A 1_555 1_555
H1A_2 O1A_2 1_555 1_555
H1_2 O1_2 1_555 1_555
O2A Cd2A 1_555 1_555
H2A O2A 1_555 1_555
H3A O2A 1_555 1_555
N1A N2A 1_555 1_555
N2A Cd1 1_555 1_555
N3A Cd2A 1_555 1_555
N4A N3A 1_555 1_555
N5A H4A 1_555 1_555
N5A_2 Cd2 1_555 1_555
N5_2 Cd2A 1_555 1_555
H4A_2 N5A_2 1_555 1_555
H4_2 N5_2 1_555 1_555
H5A N5A 1_555 1_555
H5A_2 N5A_2 1_555 1_555
H5_2 N5_2 1_555 1_555
N6A N7A 1_555 1_555
N7A Cd1 1_555 1_555
N8A Cd2_2 1_555 1_555
N8A_2 Cd2 1_555 1_555
N8_2 Cd2A 1_555 1_555
N9A N8A 1_555 1_555
N10A H6A 1_555 1_555
H7A N10A 1_555 1_555
C1A N1A 1_555 1_555
C2A C1A 1_555 1_555
C3A C2A 1_555 1_555
H8A C3A 1_555 1_555
C4A C3A 1_555 1_555
H9A C4A 1_555 1_555
C5A N5A 1_555 1_555
C6A C5A 1_555 1_555
H10A C6A 1_555 1_555
C7A C2A 1_555 1_555
H11A C7A 1_555 1_555
C8A N6A 1_555 1_555
C9A C8A 1_555 1_555
C10A C9A 1_555 1_555
H12A C10A 1_555 1_555
C11A C10A 1_555 1_555
H13A C11A 1_555 1_555
C12A N10A 1_555 1_555
C13A C12A 1_555 1_555
H14A C13A 1_555 1_555
C14A C9A 1_555 1_555
H15A C14A 1_555 1_555
N2 N3 1_555 1_555
N4 C1 1_555 1_555
N8 Cd2A_2 1_555 1_555
N9 C8 1_555 1_555
C4 C5 1_555 1_555
C6 C7 1_555 1_555
C11 C12 1_555 1_555
C13 C14 1_555 1_555
Cd2A_2 O1A_2 1_555 1_555
Cd2_2 O1_2 1_555 1_555
N2A N3A 1_555 1_555
N4A C1A 1_555 1_555
N7A N8A 1_555 1_555
N9A C8A 1_555 1_555
C4A C5A 1_555 1_555
C6A C7A 1_555 1_555
C11A C12A 1_555 1_555
C13A C14A 1_555 1_555

#END
