
#######################################################################
#
#                 Cambridge Crystallographic Data Centre
#                                CCDC 
#
#######################################################################
#
# If this CIF has been generated from an entry in the Cambridge 
# Structural Database, then it will include bibliographic, chemical, 
# crystal, experimental, refinement or atomic coordinate data resulting 
# from the CCDC's data processing and validation procedures.
#
#######################################################################

data_CIYZUG
_symmetry_cell_setting           monoclinic
_symmetry_space_group_name_H-M   'P 2/c'
_symmetry_Int_Tables_number      13
_space_group_name_Hall           '-P 2yc'
loop_
_symmetry_equiv_pos_site_id
_symmetry_equiv_pos_as_xyz
1 x,y,z
2 -x,y,1/2-z
3 -x,-y,-z
4 x,-y,1/2+z
_cell_length_a                   17.314(3)
_cell_length_b                   5.3628(11)
_cell_length_c                   23.927(7)
_cell_angle_alpha                90
_cell_angle_beta                 133.577(17)
_cell_angle_gamma                90
_cell_volume                     1609.48
loop_
_atom_site_label
_atom_site_type_symbol
_atom_site_fract_x
_atom_site_fract_y
_atom_site_fract_z
Br1 Br 1.0000 -0.69671(12) 0.7500
Cu1 Cu 1.0000 -0.19569(14) 0.7500
O1 O 0.6077(3) 0.2014(8) 0.5653(2)
O2 O 0.9153(3) -0.2533(6) 0.9434(2)
N1 N 0.8947(3) -0.1960(7) 0.6300(2)
N2 N 0.5538(3) 0.0200(8) 0.4582(2)
H1 H 0.5069 -0.0757 0.4197
N3 N 0.8722(3) -0.1964(7) 0.7406(2)
N4 N 0.8969(3) 0.1544(7) 0.9114(2)
H2 H 0.9273 0.2980 0.9263
C1 C 0.9042(4) -0.3557(9) 0.5918(3)
H3 H 0.9629 -0.4616 0.6201
C2 C 0.8311(4) -0.3695(10) 0.5126(3)
H4 H 0.8402 -0.4833 0.4882
C3 C 0.7435(4) -0.2117(11) 0.4697(3)
H5 H 0.6933 -0.2183 0.4161
C4 C 0.7319(4) -0.0457(9) 0.5071(3)
C5 C 0.8092(3) -0.0440(9) 0.5870(3)
H6 H 0.8016 0.0687 0.6125
C6 C 0.6362(3) 0.1235(11) 0.4642(3)
H7 H 0.6586 0.2825 0.4907
H8 H 0.6073 0.1536 0.4128
C7 C 0.5470(4) 0.0647(10) 0.5086(3)
C8 C 0.7905(3) -0.3530(8) 0.6932(3)
H9 H 0.7908 -0.4606 0.6629
C9 C 0.7054(4) -0.3615(10) 0.6874(3)
H10 H 0.6492 -0.4710 0.6532
C10 C 0.7050(4) -0.2062(9) 0.7329(3)
H11 H 0.6488 -0.2112 0.7303
C11 C 0.7887(3) -0.0428(8) 0.7825(2)
C12 C 0.8701(3) -0.0430(8) 0.7840(2)
H12 H 0.9262 0.0686 0.8167
C13 C 0.7914(3) 0.1286(10) 0.8340(3)
H13 H 0.7662 0.2921 0.8102
H14 H 0.7427 0.0652 0.8378
C14 C 0.9471(4) -0.0357(9) 0.9595(3)
Br1_2 Br 1.0000 0.30329(12) 0.7500
Cu1_2 Cu 1.0000 -1.19569(14) 0.7500
Cu1C Cu 0.0000 0.19569(14) 0.2500
Cu1C_2 Cu 1.0000 0.19569(14) 1.2500
O1B O 0.3923(3) -0.2014(8) 0.4347(2)
O2B O 1.0847(3) 0.2533(6) 1.0566(2)
N1B N 0.1053(3) 0.1960(7) 0.3700(2)
N1A N 1.1053(3) -0.1960(7) 0.8700(2)
N2B N 0.4462(3) -0.0200(8) 0.5418(2)
H1B H 0.4931 0.0757 0.5803
N3B N 1.1278(3) 0.1964(7) 1.2594(2)
N3A N 1.1278(3) -0.1964(7) 0.7594(2)
N4B N 1.1031(3) -0.1544(7) 1.0886(2)
H2B H 1.0727 -0.2980 1.0737
C1B C 0.0958(4) 0.3557(9) 0.4082(3)
H3B H 0.0371 0.4616 0.3799
C2B C 0.1689(4) 0.3695(10) 0.4874(3)
H4B H 0.1598 0.4833 0.5118
C3B C 0.2565(4) 0.2117(11) 0.5303(3)
H5B H 0.3067 0.2183 0.5839
C4B C 0.2681(4) 0.0457(9) 0.4929(3)
C5B C 0.1908(3) 0.0440(9) 0.4130(3)
H6B H 0.1984 -0.0687 0.3875
C6B C 0.3638(3) -0.1235(11) 0.5358(3)
H7B H 0.3414 -0.2825 0.5093
H8B H 0.3927 -0.1536 0.5872
C7B C 0.4530(4) -0.0647(10) 0.4914(3)
C8B C 1.2095(3) 0.3530(8) 1.3068(3)
H9B H 1.2092 0.4606 1.3371
C9B C 1.2946(4) 0.3615(10) 1.3126(3)
H10B H 1.3508 0.4710 1.3468
C10B C 1.2950(4) 0.2062(9) 1.2671(3)
H11B H 1.3512 0.2112 1.2697
C11B C 1.2113(3) 0.0428(8) 1.2175(2)
C12B C 1.1299(3) 0.0430(8) 1.2160(2)
H12B H 1.0738 -0.0686 1.1833
C13B C 1.2086(3) -0.1286(10) 1.1660(3)
H13B H 1.2338 -0.2921 1.1898
H14B H 1.2573 -0.0652 1.1622
C14B C 1.0529(4) 0.0357(9) 1.0405(3)
Br2 Br 0.5000 -0.20686(17) 0.7500
O3 O 0.5334(3) 0.2862(8) 0.6822(2)
H15 H 0.4863 0.3030 0.6526
H16 H 0.5703 0.3093 0.7277
loop_
_geom_bond_atom_site_label_1
_geom_bond_atom_site_label_2
_geom_bond_site_symmetry_1
_geom_bond_site_symmetry_2
Br1 Cu1 1_555 1_555
Cu1 N1 1_555 1_555
O1 C7 1_555 1_555
O2 C14 1_555 1_555
N1 C1 1_555 1_555
N2 H1 1_555 1_555
N3 Cu1 1_555 1_555
N4 H2 1_555 1_555
C1 H3 1_555 1_555
C2 C1 1_555 1_555
H4 C2 1_555 1_555
C3 C2 1_555 1_555
H5 C3 1_555 1_555
C4 C3 1_555 1_555
C5 N1 1_555 1_555
H6 C5 1_555 1_555
C6 N2 1_555 1_555
H7 C6 1_555 1_555
H8 C6 1_555 1_555
C7 N2 1_555 1_555
C8 N3 1_555 1_555
H9 C8 1_555 1_555
C9 C8 1_555 1_555
H10 C9 1_555 1_555
C10 C9 1_555 1_555
H11 C10 1_555 1_555
C11 C10 1_555 1_555
C12 N3 1_555 1_555
H12 C12 1_555 1_555
C13 N4 1_555 1_555
H13 C13 1_555 1_555
H14 C13 1_555 1_555
C14 N4 1_555 1_555
O3 H15 1_555 1_555
H16 O3 1_555 1_555
Br1_2 Cu1 1_555 1_555
Cu1_2 Br1 1_555 1_555
Cu1C N1B 1_555 1_555
Cu1C_2 N3B 1_555 1_555
O1B C7B 1_555 1_555
O2B C14B 1_555 1_555
N1B C1B 1_555 1_555
N1A Cu1 1_555 1_555
N2B H1B 1_555 1_555
N3B C8B 1_555 1_555
N3A Cu1 1_555 1_555
N4B H2B 1_555 1_555
C1B H3B 1_555 1_555
C2B C1B 1_555 1_555
H4B C2B 1_555 1_555
C3B C2B 1_555 1_555
H5B C3B 1_555 1_555
C4B C3B 1_555 1_555
C5B N1B 1_555 1_555
H6B C5B 1_555 1_555
C6B N2B 1_555 1_555
H7B C6B 1_555 1_555
H8B C6B 1_555 1_555
C7B C7 1_555 1_555
C8B H9B 1_555 1_555
C9B C8B 1_555 1_555
H10B C9B 1_555 1_555
C10B C9B 1_555 1_555
H11B C10B 1_555 1_555
C11B C10B 1_555 1_555
C12B N3B 1_555 1_555
H12B C12B 1_555 1_555
C13B N4B 1_555 1_555
H13B C13B 1_555 1_555
H14B C13B 1_555 1_555
C14B C14 1_555 1_555
C4 C5 1_555 1_555
C4 C6 1_555 1_555
C11 C12 1_555 1_555
C11 C13 1_555 1_555
N2B C7B 1_555 1_555
N4B C14B 1_555 1_555
C4B C5B 1_555 1_555
C4B C6B 1_555 1_555
C11B C12B 1_555 1_555
C11B C13B 1_555 1_555

#END
