
#######################################################################
#
#                 Cambridge Crystallographic Data Centre
#                                CCDC 
#
#######################################################################
#
# If this CIF has been generated from an entry in the Cambridge 
# Structural Database, then it will include bibliographic, chemical, 
# crystal, experimental, refinement or atomic coordinate data resulting 
# from the CCDC's data processing and validation procedures.
#
#######################################################################

data_COCMUE
_symmetry_cell_setting           cubic
_symmetry_space_group_name_H-M   'I a -3 d'
_symmetry_Int_Tables_number      230
_space_group_name_Hall           '-I 4bd 2c 3'
loop_
_symmetry_equiv_pos_site_id
_symmetry_equiv_pos_as_xyz
1 x,y,z
2 1/2-x,-y,1/2+z
3 -x,1/2+y,1/2-z
4 1/2+x,1/2-y,-z
5 z,x,y
6 1/2+z,1/2-x,-y
7 1/2-z,-x,1/2+y
8 -z,1/2+x,1/2-y
9 y,z,x
10 -y,1/2+z,1/2-x
11 1/2+y,1/2-z,-x
12 1/2-y,-z,1/2+x
13 3/4+y,1/4+x,1/4-z
14 3/4-y,3/4-x,3/4-z
15 1/4+y,1/4-x,3/4+z
16 1/4-y,3/4+x,1/4+z
17 3/4+x,1/4+z,1/4-y
18 1/4-x,3/4+z,1/4+y
19 3/4-x,3/4-z,3/4-y
20 1/4+x,1/4-z,3/4+y
21 3/4+z,1/4+y,1/4-x
22 1/4+z,1/4-y,3/4+x
23 1/4-z,3/4+y,1/4+x
24 3/4-z,3/4-y,3/4-x
25 1/2+x,1/2+y,1/2+z
26 -x,1/2-y,z
27 1/2-x,y,-z
28 x,-y,1/2-z
29 1/2+z,1/2+x,1/2+y
30 z,-x,1/2-y
31 -z,1/2-x,y
32 1/2-z,x,-y
33 1/2+y,1/2+z,1/2+x
34 1/2-y,z,-x
35 y,-z,1/2-x
36 -y,1/2-z,x
37 1/4+y,3/4+x,3/4-z
38 1/4-y,1/4-x,1/4-z
39 3/4+y,3/4-x,1/4+z
40 3/4-y,1/4+x,3/4+z
41 1/4+x,3/4+z,3/4-y
42 3/4-x,1/4+z,3/4+y
43 1/4-x,1/4-z,1/4-y
44 3/4+x,3/4-z,1/4+y
45 1/4+z,3/4+y,3/4-x
46 3/4+z,3/4-y,1/4+x
47 3/4-z,1/4+y,3/4+x
48 1/4-z,1/4-y,1/4-x
49 -x,-y,-z
50 1/2+x,y,1/2-z
51 x,1/2-y,1/2+z
52 1/2-x,1/2+y,z
53 -z,-x,-y
54 1/2-z,1/2+x,y
55 1/2+z,x,1/2-y
56 z,1/2-x,1/2+y
57 -y,-z,-x
58 y,1/2-z,1/2+x
59 1/2-y,1/2+z,x
60 1/2+y,z,1/2-x
61 1/4-y,3/4-x,3/4+z
62 1/4+y,1/4+x,1/4+z
63 3/4-y,3/4+x,1/4-z
64 3/4+y,1/4-x,3/4-z
65 1/4-x,3/4-z,3/4+y
66 3/4+x,1/4-z,3/4-y
67 1/4+x,1/4+z,1/4+y
68 3/4-x,3/4+z,1/4-y
69 1/4-z,3/4-y,3/4+x
70 3/4-z,3/4+y,1/4-x
71 3/4+z,1/4-y,3/4-x
72 1/4+z,1/4+y,1/4+x
73 1/2-x,1/2-y,1/2-z
74 x,1/2+y,-z
75 1/2+x,-y,z
76 -x,y,1/2+z
77 1/2-z,1/2-x,1/2-y
78 -z,x,1/2+y
79 z,1/2+x,-y
80 1/2+z,-x,y
81 1/2-y,1/2-z,1/2-x
82 1/2+y,-z,x
83 -y,z,1/2+x
84 y,1/2+z,-x
85 3/4-y,1/4-x,1/4+z
86 3/4+y,3/4+x,3/4+z
87 1/4-y,1/4+x,3/4-z
88 1/4+y,3/4-x,1/4-z
89 3/4-x,1/4-z,1/4+y
90 1/4+x,3/4-z,1/4-y
91 3/4+x,3/4+z,3/4+y
92 1/4-x,1/4+z,3/4-y
93 3/4-z,1/4-y,1/4+x
94 1/4-z,1/4+y,3/4-x
95 1/4+z,3/4-y,1/4-x
96 3/4+z,3/4+y,3/4+x
_cell_length_a                   36.7051(15)
_cell_length_b                   36.7051(15)
_cell_length_c                   36.7051(15)
_cell_angle_alpha                90
_cell_angle_beta                 90
_cell_angle_gamma                90
_cell_volume                     49451.5
loop_
_atom_site_label
_atom_site_type_symbol
_atom_site_fract_x
_atom_site_fract_y
_atom_site_fract_z
Mn1 Mn 0.5000 0.5000 0.5000
N1 N 0.5578(2) 0.4907(3) 0.5117(2)
N2 N 0.5794(3) 0.5125(3) 0.5335(3)
N3 N 0.5782(3) 0.4636(2) 0.4997(3)
Mn2 Mn 0.56378(5) 0.56378(5) 0.56378(5)
N4 N 0.6138(2) 0.5000(3) 0.5363(2)
C1 C 0.6115(4) 0.4698(3) 0.5152(3)
O1 O 0.5935(3) 0.5457(2) 0.6111(2)
C2 C 0.6461(3) 0.4462(3) 0.5105(3)
C3 C 0.6790(4) 0.4525(3) 0.5342(4)
C4 C 0.6478(3) 0.4226(3) 0.4834(3)
H1 H 0.6799 0.4713 0.5519
C5 C 0.7074(3) 0.4291(5) 0.5283(4)
C6 C 0.6763(3) 0.4018(3) 0.4798(3)
H2 H 0.6283 0.4208 0.4666
H3 H 0.7284 0.4313 0.5431
C7 C 0.7069(4) 0.4022(3) 0.5018(3)
H4 H 0.6761 0.3848 0.4603
Si1 Si 0.7500 0.3750 0.5000
N1D N 0.5117(2) 0.5578(2) 0.4907(3)
N1H N 0.4907(3) 0.5117(2) 0.5578(2)
N1VA N 0.4422(2) 0.5093(3) 0.4883(2)
N1ZA N 0.4883(2) 0.4422(2) 0.5093(3)
N1DB N 0.5093(3) 0.4883(2) 0.4422(2)
N2D N 0.5335(3) 0.5794(3) 0.5125(3)
N3D N 0.4997(3) 0.5782(3) 0.4636(2)
N2H N 0.5125(3) 0.5335(3) 0.5794(3)
N3H N 0.4636(2) 0.4997(3) 0.5782(3)
N4D N 0.5363(2) 0.6138(2) 0.5000(3)
C1D C 0.5152(3) 0.6115(4) 0.4698(3)
N4H N 0.5000(3) 0.5363(2) 0.6138(2)
C1H C 0.4698(3) 0.5152(3) 0.6115(4)
O1D O 0.6111(2) 0.5935(3) 0.5457(2)
O1H O 0.5457(2) 0.6111(2) 0.5935(3)
C2D C 0.5105(3) 0.6461(3) 0.4462(3)
C2H C 0.4462(3) 0.5105(3) 0.6461(3)
C3D C 0.5342(4) 0.6790(4) 0.4525(3)
C4D C 0.4834(3) 0.6478(3) 0.4226(3)
C3H C 0.4525(3) 0.5342(4) 0.6790(4)
C4H C 0.4226(3) 0.4834(3) 0.6478(3)
H1D H 0.5519 0.6799 0.4713
C5D C 0.5283(4) 0.7074(3) 0.4291(5)
C6D C 0.4798(3) 0.6763(3) 0.4018(3)
H2D H 0.4666 0.6283 0.4208
H1H H 0.4713 0.5519 0.6799
C5H C 0.4291(5) 0.5283(4) 0.7074(3)
C6H C 0.4018(3) 0.4798(3) 0.6763(3)
H2H H 0.4208 0.4666 0.6283
H3D H 0.5431 0.7284 0.4313
C7D C 0.5018(3) 0.7069(4) 0.4022(3)
H4D H 0.4603 0.6761 0.3848
H3H H 0.4313 0.5431 0.7284
C7H C 0.4022(3) 0.5018(3) 0.7069(4)
H4H H 0.3848 0.4603 0.6761
Si1D Si 0.5000 0.7500 0.3750
Si1H Si 0.3750 0.5000 0.7500
C7Z C 0.7931(4) 0.4022(3) 0.4982(3)
C7PB C 0.7482(3) 0.3478(3) 0.4569(4)
C7PC C 0.7518(3) 0.3478(3) 0.5431(4)
C7DA C 0.4982(3) 0.7931(4) 0.4022(3)
C7MB C 0.4569(4) 0.7482(3) 0.3478(3)
C7MC C 0.5431(4) 0.7518(3) 0.3478(3)
C7HA C 0.4022(3) 0.4982(3) 0.7931(4)
C7JB C 0.3478(3) 0.4569(4) 0.7482(3)
C7FC C 0.3478(3) 0.5431(4) 0.7518(3)
C5Z C 0.7926(3) 0.4291(5) 0.4717(4)
C6Z C 0.8237(3) 0.4018(3) 0.5202(3)
C5PB C 0.7217(4) 0.3209(5) 0.4574(3)
C6PB C 0.7702(3) 0.3482(3) 0.4263(3)
C5PC C 0.7783(4) 0.3209(5) 0.5426(3)
C6PC C 0.7298(3) 0.3482(3) 0.5737(3)
C5DA C 0.4717(4) 0.7926(3) 0.4291(5)
C6DA C 0.5202(3) 0.8237(3) 0.4018(3)
C5MB C 0.4574(3) 0.7217(4) 0.3209(5)
C6MB C 0.4263(3) 0.7702(3) 0.3482(3)
C5MC C 0.5426(3) 0.7783(4) 0.3209(5)
C6MC C 0.5737(3) 0.7298(3) 0.3482(3)
C5HA C 0.4291(5) 0.4717(4) 0.7926(3)
C6HA C 0.4018(3) 0.5202(3) 0.8237(3)
C5JB C 0.3209(5) 0.4574(3) 0.7217(4)
C6JB C 0.3482(3) 0.4263(3) 0.7702(3)
C5FC C 0.3209(5) 0.5426(3) 0.7783(4)
C6FC C 0.3482(3) 0.5737(3) 0.7298(3)
C3Z C 0.8210(4) 0.4525(3) 0.4658(4)
H3Z H 0.7716 0.4313 0.4569
H4Z H 0.8239 0.3848 0.5397
C4Z C 0.8522(3) 0.4226(3) 0.5166(3)
C3PB C 0.7158(4) 0.2975(3) 0.4290(4)
H3PB H 0.7069 0.3187 0.4784
H4PB H 0.7897 0.3652 0.4261
C4PB C 0.7666(3) 0.3274(3) 0.3978(3)
C3PC C 0.7842(4) 0.2975(3) 0.5710(4)
H3PC H 0.7931 0.3187 0.5216
H4PC H 0.7103 0.3652 0.5739
C4PC C 0.7334(3) 0.3274(3) 0.6022(3)
C3DA C 0.4658(4) 0.8210(4) 0.4525(3)
H3DA H 0.4569 0.7716 0.4313
H4DA H 0.5397 0.8239 0.3848
C4DA C 0.5166(3) 0.8522(3) 0.4226(3)
C3MB C 0.4290(4) 0.7158(4) 0.2975(3)
H3MB H 0.4784 0.7069 0.3187
H4MB H 0.4261 0.7897 0.3652
C4MB C 0.3978(3) 0.7666(3) 0.3274(3)
C3MC C 0.5710(4) 0.7842(4) 0.2975(3)
H3MC H 0.5216 0.7931 0.3187
H4MC H 0.5739 0.7103 0.3652
C4MC C 0.6022(3) 0.7334(3) 0.3274(3)
C3HA C 0.4525(3) 0.4658(4) 0.8210(4)
H3HA H 0.4313 0.4569 0.7716
H4HA H 0.3848 0.5397 0.8239
C4HA C 0.4226(3) 0.5166(3) 0.8522(3)
C3JB C 0.2975(3) 0.4290(4) 0.7158(4)
H3JB H 0.3187 0.4784 0.7069
H4JB H 0.3652 0.4261 0.7897
C4JB C 0.3274(3) 0.3978(3) 0.7666(3)
C3FC C 0.2975(3) 0.5710(4) 0.7842(4)
H3FC H 0.3187 0.5216 0.7931
H4FC H 0.3652 0.5739 0.7103
C4FC C 0.3274(3) 0.6022(3) 0.7334(3)
C2Z C 0.8539(3) 0.4462(3) 0.4895(3)
H1Z H 0.8201 0.4713 0.4481
H2Z H 0.8717 0.4208 0.5334
C2PB C 0.7395(3) 0.3038(3) 0.3961(3)
H1PB H 0.6981 0.2787 0.4299
H2PB H 0.7834 0.3292 0.3783
C2PC C 0.7605(3) 0.3038(3) 0.6039(3)
H1PC H 0.8019 0.2787 0.5701
H2PC H 0.7166 0.3292 0.6217
C2DA C 0.4895(3) 0.8539(3) 0.4462(3)
H1DA H 0.4481 0.8201 0.4713
H2DA H 0.5334 0.8717 0.4208
C2MB C 0.3961(3) 0.7395(3) 0.3038(3)
H1MB H 0.4299 0.6981 0.2787
H2MB H 0.3783 0.7834 0.3292
C2MC C 0.6039(3) 0.7605(3) 0.3038(3)
H1MC H 0.5701 0.8019 0.2787
H2MC H 0.6217 0.7166 0.3292
C2HA C 0.4462(3) 0.4895(3) 0.8539(3)
H1HA H 0.4713 0.4481 0.8201
H2HA H 0.4208 0.5334 0.8717
C2JB C 0.3038(3) 0.3961(3) 0.7395(3)
H1JB H 0.2787 0.4299 0.6981
H2JB H 0.3292 0.3783 0.7834
C2FC C 0.3038(3) 0.6039(3) 0.7605(3)
H1FC H 0.2787 0.5701 0.8019
H2FC H 0.3292 0.6217 0.7166
C1Z C 0.8885(4) 0.4698(3) 0.4848(3)
C1PB C 0.7348(3) 0.2802(3) 0.3615(4)
C1PC C 0.7652(3) 0.2802(3) 0.6385(4)
C1DA C 0.4848(3) 0.8885(4) 0.4698(3)
C1MB C 0.3615(4) 0.7348(3) 0.2802(3)
C1MC C 0.6385(4) 0.7652(3) 0.2802(3)
C1HA C 0.4698(3) 0.4848(3) 0.8885(4)
C1JB C 0.2802(3) 0.3615(4) 0.7348(3)
C1FC C 0.2802(3) 0.6385(4) 0.7652(3)
N4Z N 0.8862(2) 0.5000(3) 0.4637(2)
N3Z N 0.9218(3) 0.4636(2) 0.5003(3)
N4PB N 0.7137(2) 0.2500(3) 0.3638(2)
N3PB N 0.7503(3) 0.2864(2) 0.3282(3)
N4PC N 0.7863(2) 0.2500(3) 0.6362(2)
N3PC N 0.7497(3) 0.2864(2) 0.6718(3)
N4DA N 0.4637(2) 0.8862(2) 0.5000(3)
N3DA N 0.5003(3) 0.9218(3) 0.4636(2)
N4MB N 0.3638(2) 0.7137(2) 0.2500(3)
N3MB N 0.3282(3) 0.7503(3) 0.2864(2)
N4MC N 0.6362(2) 0.7863(2) 0.2500(3)
N3MC N 0.6718(3) 0.7497(3) 0.2864(2)
N4HA N 0.5000(3) 0.4637(2) 0.8862(2)
N3HA N 0.4636(2) 0.5003(3) 0.9218(3)
N4JB N 0.2500(3) 0.3638(2) 0.7137(2)
N3JB N 0.2864(2) 0.3282(3) 0.7503(3)
N4FC N 0.2500(3) 0.6362(2) 0.7863(2)
N3FC N 0.2864(2) 0.6718(3) 0.7497(3)
N2Z N 0.9206(3) 0.5125(3) 0.4665(3)
N1Z N 0.9422(2) 0.4907(3) 0.4883(2)
N2PB N 0.7165(3) 0.2375(3) 0.3294(3)
N1PB N 0.7383(2) 0.2593(3) 0.3078(2)
N2PC N 0.7835(3) 0.2375(3) 0.6706(3)
N1PC N 0.7617(2) 0.2593(3) 0.6922(2)
N2DA N 0.4665(3) 0.9206(3) 0.5125(3)
N1DA N 0.4883(2) 0.9422(2) 0.4907(3)
N2MB N 0.3294(3) 0.7165(3) 0.2375(3)
N1MB N 0.3078(2) 0.7383(2) 0.2593(3)
N2MC N 0.6706(3) 0.7835(3) 0.2375(3)
N1MC N 0.6922(2) 0.7617(2) 0.2593(3)
N2HA N 0.5125(3) 0.4665(3) 0.9206(3)
N1HA N 0.4907(3) 0.4883(2) 0.9422(2)
N2JB N 0.2375(3) 0.3294(3) 0.7165(3)
N1JB N 0.2593(3) 0.3078(2) 0.7383(2)
N2FC N 0.2375(3) 0.6706(3) 0.7835(3)
N1FC N 0.2593(3) 0.6922(2) 0.7617(2)
Mn2Z Mn 0.93622(5) 0.56378(5) 0.43622(5)
Mn1Z Mn 1.0000 0.5000 0.5000
Mn2HB Mn 0.68622(5) 0.18622(5) 0.31378(5)
Mn1JA Mn 0.7500 0.2500 0.2500
Mn2IC Mn 0.81378(5) 0.18622(5) 0.68622(5)
Mn1O Mn 0.7500 0.2500 0.7500
Mn2Y Mn 0.43622(5) 0.93622(5) 0.56378(5)
Mn1Y Mn 0.5000 1.0000 0.5000
Mn2KB Mn 0.31378(5) 0.68622(5) 0.18622(5)
Mn1MA Mn 0.2500 0.7500 0.2500
Mn2HC Mn 0.68622(5) 0.81378(5) 0.18622(5)
Mn1N Mn 0.7500 0.7500 0.2500
Mn2AA Mn 0.56378(5) 0.43622(5) 0.93622(5)
Mn1AA Mn 0.5000 0.5000 1.0000
Mn2JB Mn 0.18622(5) 0.31378(5) 0.68622(5)
Mn1LA Mn 0.2500 0.2500 0.7500
Mn2FC Mn 0.18622(5) 0.68622(5) 0.81378(5)
Mn1L Mn 0.2500 0.7500 0.7500
O1Z O 0.9065(3) 0.5457(2) 0.3889(2)
O1EA O 0.8889(2) 0.5935(3) 0.4543(2)
O1GA O 0.9543(2) 0.6111(2) 0.4065(3)
N2EA N 0.9665(3) 0.5794(3) 0.4875(3)
N2GA N 0.9875(3) 0.5335(3) 0.4206(3)
O1HB O 0.7043(2) 0.1565(3) 0.3611(2)
O1LB O 0.6565(3) 0.1389(2) 0.2957(2)
O1PB O 0.6389(2) 0.2043(2) 0.3435(3)
N2HB N 0.7375(3) 0.1706(3) 0.2835(3)
N2LB N 0.6706(3) 0.2165(3) 0.2625(3)
O1IC O 0.7957(2) 0.1565(3) 0.6389(2)
O1PC O 0.8611(2) 0.2043(2) 0.6565(3)
O1KC O 0.8435(3) 0.1389(2) 0.7043(2)
N2IC N 0.7625(3) 0.1706(3) 0.7165(3)
N2KC N 0.8294(3) 0.2165(3) 0.7375(3)
N1O N 0.7593(3) 0.3078(2) 0.7617(2)
N1Q N 0.6922(2) 0.2617(2) 0.7407(3)
N1V N 0.7383(2) 0.2407(3) 0.8078(2)
N1IC N 0.7407(3) 0.1922(2) 0.7383(2)
N1KC N 0.8078(2) 0.2383(2) 0.7593(3)
loop_
_geom_bond_atom_site_label_1
_geom_bond_atom_site_label_2
_geom_bond_site_symmetry_1
_geom_bond_site_symmetry_2
Mn1 N1 1_555 1_555
N1 N2 1_555 1_555
N2 Mn2 1_555 1_555
N3 N1 1_555 1_555
Mn2 O1 1_555 1_555
N4 N2 1_555 1_555
C1 N3 1_555 1_555
C2 C1 1_555 1_555
C3 C2 1_555 1_555
C4 C2 1_555 1_555
H1 C3 1_555 1_555
C5 C3 1_555 1_555
C6 C4 1_555 1_555
H2 C4 1_555 1_555
H3 C5 1_555 1_555
C7 C5 1_555 1_555
H4 C6 1_555 1_555
Si1 C7 1_555 1_555
N1D Mn1 1_555 1_555
N1H Mn1 1_555 1_555
N1VA Mn1 1_555 1_555
N1ZA Mn1 1_555 1_555
N1DB Mn1 1_555 1_555
N2D Mn2 1_555 1_555
N3D N1D 1_555 1_555
N2H Mn2 1_555 1_555
N3H N1H 1_555 1_555
N4D N2D 1_555 1_555
C1D N3D 1_555 1_555
N4H N2H 1_555 1_555
C1H N3H 1_555 1_555
O1D Mn2 1_555 1_555
O1H Mn2 1_555 1_555
C2D C1D 1_555 1_555
C2H C1H 1_555 1_555
C3D C2D 1_555 1_555
C4D C2D 1_555 1_555
C3H C2H 1_555 1_555
C4H C2H 1_555 1_555
H1D C3D 1_555 1_555
C5D C3D 1_555 1_555
C6D C4D 1_555 1_555
H2D C4D 1_555 1_555
H1H C3H 1_555 1_555
C5H C3H 1_555 1_555
C6H C4H 1_555 1_555
H2H C4H 1_555 1_555
H3D C5D 1_555 1_555
C7D C5D 1_555 1_555
H4D C6D 1_555 1_555
H3H C5H 1_555 1_555
C7H C5H 1_555 1_555
H4H C6H 1_555 1_555
Si1D C7D 1_555 1_555
Si1H C7H 1_555 1_555
C7Z Si1 1_555 1_555
C7PB Si1 1_555 1_555
C7PC Si1 1_555 1_555
C7DA Si1D 1_555 1_555
C7MB Si1D 1_555 1_555
C7MC Si1D 1_555 1_555
C7HA Si1H 1_555 1_555
C7JB Si1H 1_555 1_555
C7FC Si1H 1_555 1_555
C5Z C7Z 1_555 1_555
C6Z C7Z 1_555 1_555
C5PB C7PB 1_555 1_555
C6PB C7PB 1_555 1_555
C5PC C7PC 1_555 1_555
C6PC C7PC 1_555 1_555
C5DA C7DA 1_555 1_555
C6DA C7DA 1_555 1_555
C5MB C7MB 1_555 1_555
C6MB C7MB 1_555 1_555
C5MC C7MC 1_555 1_555
C6MC C7MC 1_555 1_555
C5HA C7HA 1_555 1_555
C6HA C7HA 1_555 1_555
C5JB C7JB 1_555 1_555
C6JB C7JB 1_555 1_555
C5FC C7FC 1_555 1_555
C6FC C7FC 1_555 1_555
C3Z C5Z 1_555 1_555
H3Z C5Z 1_555 1_555
H4Z C6Z 1_555 1_555
C4Z C6Z 1_555 1_555
C3PB C5PB 1_555 1_555
H3PB C5PB 1_555 1_555
H4PB C6PB 1_555 1_555
C4PB C6PB 1_555 1_555
C3PC C5PC 1_555 1_555
H3PC C5PC 1_555 1_555
H4PC C6PC 1_555 1_555
C4PC C6PC 1_555 1_555
C3DA C5DA 1_555 1_555
H3DA C5DA 1_555 1_555
H4DA C6DA 1_555 1_555
C4DA C6DA 1_555 1_555
C3MB C5MB 1_555 1_555
H3MB C5MB 1_555 1_555
H4MB C6MB 1_555 1_555
C4MB C6MB 1_555 1_555
C3MC C5MC 1_555 1_555
H3MC C5MC 1_555 1_555
H4MC C6MC 1_555 1_555
C4MC C6MC 1_555 1_555
C3HA C5HA 1_555 1_555
H3HA C5HA 1_555 1_555
H4HA C6HA 1_555 1_555
C4HA C6HA 1_555 1_555
C3JB C5JB 1_555 1_555
H3JB C5JB 1_555 1_555
H4JB C6JB 1_555 1_555
C4JB C6JB 1_555 1_555
C3FC C5FC 1_555 1_555
H3FC C5FC 1_555 1_555
H4FC C6FC 1_555 1_555
C4FC C6FC 1_555 1_555
C2Z C3Z 1_555 1_555
H1Z C3Z 1_555 1_555
H2Z C4Z 1_555 1_555
C2PB C3PB 1_555 1_555
H1PB C3PB 1_555 1_555
H2PB C4PB 1_555 1_555
C2PC C3PC 1_555 1_555
H1PC C3PC 1_555 1_555
H2PC C4PC 1_555 1_555
C2DA C3DA 1_555 1_555
H1DA C3DA 1_555 1_555
H2DA C4DA 1_555 1_555
C2MB C3MB 1_555 1_555
H1MB C3MB 1_555 1_555
H2MB C4MB 1_555 1_555
C2MC C3MC 1_555 1_555
H1MC C3MC 1_555 1_555
H2MC C4MC 1_555 1_555
C2HA C3HA 1_555 1_555
H1HA C3HA 1_555 1_555
H2HA C4HA 1_555 1_555
C2JB C3JB 1_555 1_555
H1JB C3JB 1_555 1_555
H2JB C4JB 1_555 1_555
C2FC C3FC 1_555 1_555
H1FC C3FC 1_555 1_555
H2FC C4FC 1_555 1_555
C1Z C2Z 1_555 1_555
C1PB C2PB 1_555 1_555
C1PC C2PC 1_555 1_555
C1DA C2DA 1_555 1_555
C1MB C2MB 1_555 1_555
C1MC C2MC 1_555 1_555
C1HA C2HA 1_555 1_555
C1JB C2JB 1_555 1_555
C1FC C2FC 1_555 1_555
N4Z C1Z 1_555 1_555
N3Z C1Z 1_555 1_555
N4PB C1PB 1_555 1_555
N3PB C1PB 1_555 1_555
N4PC C1PC 1_555 1_555
N3PC C1PC 1_555 1_555
N4DA C1DA 1_555 1_555
N3DA C1DA 1_555 1_555
N4MB C1MB 1_555 1_555
N3MB C1MB 1_555 1_555
N4MC C1MC 1_555 1_555
N3MC C1MC 1_555 1_555
N4HA C1HA 1_555 1_555
N3HA C1HA 1_555 1_555
N4JB C1JB 1_555 1_555
N3JB C1JB 1_555 1_555
N4FC C1FC 1_555 1_555
N3FC C1FC 1_555 1_555
N2Z N4Z 1_555 1_555
N1Z N3Z 1_555 1_555
N2PB N4PB 1_555 1_555
N1PB N3PB 1_555 1_555
N2PC N4PC 1_555 1_555
N1PC N3PC 1_555 1_555
N2DA N4DA 1_555 1_555
N1DA N3DA 1_555 1_555
N2MB N4MB 1_555 1_555
N1MB N3MB 1_555 1_555
N2MC N4MC 1_555 1_555
N1MC N3MC 1_555 1_555
N2HA N4HA 1_555 1_555
N1HA N3HA 1_555 1_555
N2JB N4JB 1_555 1_555
N1JB N3JB 1_555 1_555
N2FC N4FC 1_555 1_555
N1FC N3FC 1_555 1_555
Mn2Z N2Z 1_555 1_555
Mn1Z N1Z 1_555 1_555
Mn2HB N2PB 1_555 1_555
Mn1JA N1PB 1_555 1_555
Mn2IC N2PC 1_555 1_555
Mn1O N1PC 1_555 1_555
Mn2Y N2DA 1_555 1_555
Mn1Y N1DA 1_555 1_555
Mn2KB N2MB 1_555 1_555
Mn1MA N1MB 1_555 1_555
Mn2HC N2MC 1_555 1_555
Mn1N N1MC 1_555 1_555
Mn2AA N2HA 1_555 1_555
Mn1AA N1HA 1_555 1_555
Mn2JB N2JB 1_555 1_555
Mn1LA N1JB 1_555 1_555
Mn2FC N2FC 1_555 1_555
Mn1L N1FC 1_555 1_555
O1Z Mn2Z 1_555 1_555
O1EA Mn2Z 1_555 1_555
O1GA Mn2Z 1_555 1_555
N2EA Mn2Z 1_555 1_555
N2GA Mn2Z 1_555 1_555
O1HB Mn2HB 1_555 1_555
O1LB Mn2HB 1_555 1_555
O1PB Mn2HB 1_555 1_555
N2HB Mn2HB 1_555 1_555
N2LB Mn2HB 1_555 1_555
O1IC Mn2IC 1_555 1_555
O1PC Mn2IC 1_555 1_555
O1KC Mn2IC 1_555 1_555
N2IC Mn2IC 1_555 1_555
N2KC Mn2IC 1_555 1_555
N1O Mn1O 1_555 1_555
N1Q Mn1O 1_555 1_555
N1V Mn1O 1_555 1_555
N1IC Mn1O 1_555 1_555
N1KC Mn1O 1_555 1_555
N4 C1 1_555 1_555
C6 C7 1_555 1_555
N1D N2D 1_555 1_555
N1H N2H 1_555 1_555
N4D C1D 1_555 1_555
N4H C1H 1_555 1_555
C6D C7D 1_555 1_555
C6H C7H 1_555 1_555
C4Z C2Z 1_555 1_555
C4PB C2PB 1_555 1_555
C4PC C2PC 1_555 1_555
C4DA C2DA 1_555 1_555
C4MB C2MB 1_555 1_555
C4MC C2MC 1_555 1_555
C4HA C2HA 1_555 1_555
C4JB C2JB 1_555 1_555
C4FC C2FC 1_555 1_555
N2Z N1Z 1_555 1_555
N2PB N1PB 1_555 1_555
N2PC N1PC 1_555 1_555
N2DA N1DA 1_555 1_555
N2MB N1MB 1_555 1_555
N2MC N1MC 1_555 1_555
N2HA N1HA 1_555 1_555
N2JB N1JB 1_555 1_555
N2FC N1FC 1_555 1_555
N2IC N1IC 1_555 1_555
N2KC N1KC 1_555 1_555

#END
