
#######################################################################
#
#                 Cambridge Crystallographic Data Centre
#                                CCDC 
#
#######################################################################
#
# If this CIF has been generated from an entry in the Cambridge 
# Structural Database, then it will include bibliographic, chemical, 
# crystal, experimental, refinement or atomic coordinate data resulting 
# from the CCDC's data processing and validation procedures.
#
#######################################################################

data_CODROD
_symmetry_cell_setting           orthorhombic
_symmetry_space_group_name_H-M   'F d d d'
_symmetry_Int_Tables_number      70
_space_group_name_Hall           '-F 2uv 2vw'
loop_
_symmetry_equiv_pos_site_id
_symmetry_equiv_pos_as_xyz
1 x,y,z
2 x,1/2+y,1/2+z
3 x,1/4-y,1/4-z
4 1/2+x,y,1/2+z
5 1/4-x,y,1/4-z
6 1/2+x,1/2+y,z
7 1/4-x,1/4-y,z
8 3/4-x,3/4-y,z
9 3/4-x,y,3/4-z
10 x,3/4-y,3/4-z
11 3/4-x,1/4-y,1/2+z
12 3/4-x,1/2+y,1/4-z
13 1/4-x,3/4-y,1/2+z
14 1/2+x,3/4-y,1/4-z
15 1/4-x,1/2+y,3/4-z
16 1/2+x,1/4-y,3/4-z
17 -x,-y,-z
18 -x,1/2-y,1/2-z
19 -x,3/4+y,3/4+z
20 1/2-x,-y,1/2-z
21 3/4+x,-y,3/4+z
22 1/2-x,1/2-y,-z
23 3/4+x,3/4+y,-z
24 1/4+x,1/4+y,-z
25 1/4+x,-y,1/4+z
26 -x,1/4+y,1/4+z
27 1/4+x,3/4+y,1/2-z
28 1/4+x,1/2-y,3/4+z
29 3/4+x,1/4+y,1/2-z
30 1/2-x,1/4+y,3/4+z
31 3/4+x,1/2-y,1/4+z
32 1/2-x,3/4+y,1/4+z
_cell_length_a                   9.7442(19)
_cell_length_b                   15.474(3)
_cell_length_c                   27.893(6)
_cell_angle_alpha                90
_cell_angle_beta                 90
_cell_angle_gamma                90
_cell_volume                     4205.76
loop_
_atom_site_label
_atom_site_type_symbol
_atom_site_fract_x
_atom_site_fract_y
_atom_site_fract_z
Pr1 Pr 0.3750 0.8750 0.759186(8)
C1 C 0.3750 0.8245(3) 0.8750
C2 C 0.3161(4) 0.6557(2) 0.72079(13)
C3 C 0.1637(4) 0.6599(3) 0.71758(19)
H1 H 0.125(7) 0.722(5) 0.715(2)
O1 O 0.3859(3) 0.78860(15) 0.83521(8)
O2 O 0.3757(3) 0.72397(17) 0.73342(9)
O3 O 0.5269(3) 0.87799(17) 0.68474(9)
O4 O 0.3823(3) 0.58757(17) 0.71208(11)
Pr1H Pr 0.3750 0.8750 0.990814(8)
Pr1Z Pr 0.6250 0.6250 0.740814(8)
Pr1E Pr -0.1250 0.3750 0.759186(8)
Pr1Z_2 Pr -0.3750 0.6250 0.740814(8)
Pr1BA Pr 0.1250 1.1250 0.740814(8)
Pr1E_2 Pr 0.8750 1.3750 0.759186(8)
Pr1BA_2 Pr 1.1250 1.1250 0.740814(8)
C1G C 0.3750 0.9255(3) 0.8750
C2F C -0.0661(4) 0.5943(2) 0.72079(13)
C2G C 0.4339(4) 1.0943(2) 0.72079(13)
C2E C 0.8161(4) 1.1557(2) 0.72079(13)
C3F C 0.0863(4) 0.5901(3) 0.71758(19)
C3G C 0.5863(4) 1.0901(3) 0.71758(19)
C3E C 0.6637(4) 1.1599(3) 0.71758(19)
H1F H 0.125(7) 0.528(5) 0.715(2)
H1G H 0.625(7) 1.028(5) 0.715(2)
H1E H 0.625(7) 1.222(5) 0.715(2)
O1G O 0.3641(3) 0.96140(15) 0.83521(8)
O1I O 0.3859(3) 0.96140(15) 0.91479(8)
O1H O 0.3641(3) 0.78860(15) 0.91479(8)
O2F O -0.1257(3) 0.52603(17) 0.73342(9)
O2G O 0.3743(3) 1.02603(17) 0.73342(9)
O2E O 0.8757(3) 1.22397(17) 0.73342(9)
O2H O 0.3743(3) 0.72397(17) 1.01658(9)
O2I O 0.3757(3) 1.02603(17) 1.01658(9)
O3G O 0.2231(3) 0.87201(17) 0.68474(9)
O3I O 0.5269(3) 0.87201(17) 1.06526(9)
O3H O 0.2231(3) 0.87799(17) 1.06526(9)
O4F O -0.1323(3) 0.66243(17) 0.71208(11)
O4G O 0.3677(3) 1.16243(17) 0.71208(11)
O4E O 0.8823(3) 1.08757(17) 0.71208(11)
O4BA O 0.1323(3) 0.83757(17) 0.78792(11)
O4Q O 0.6177(3) 0.91243(17) 0.78792(11)
O4Y O 0.6177(3) 0.83757(17) 0.96208(11)
O4DA O 0.1323(3) 0.91243(17) 0.96208(11)
O5 O 0.4505(7) 0.9500(4) 0.5975(2)
loop_
_geom_bond_atom_site_label_1
_geom_bond_atom_site_label_2
_geom_bond_site_symmetry_1
_geom_bond_site_symmetry_2
Pr1 O1 1_555 1_555
C1 O1 1_555 1_555
C2 C3 1_555 1_555
C3 H1 1_555 1_555
O2 Pr1 1_555 1_555
O3 Pr1 1_555 1_555
O4 C2 1_555 1_555
Pr1H O1I 1_555 1_555
Pr1Z O4 1_555 1_555
Pr1E O2F 1_555 1_555
Pr1Z_2 O4F 1_555 1_555
Pr1BA O4G 1_555 1_555
Pr1E_2 O2E 1_555 1_555
Pr1BA_2 O4E 1_555 1_555
C1G C1 1_555 1_555
C2F C3F 1_555 1_555
C2G C3G 1_555 1_555
C2E C3E 1_555 1_555
C3F C3 1_555 1_555
C3G C3E 1_555 1_555
C3E H1E 1_555 1_555
H1F C3F 1_555 1_555
H1G C3G 1_555 1_555
O1G Pr1 1_555 1_555
O1I C1G 1_555 1_555
O1H C1 1_555 1_555
O2F C2F 1_555 1_555
O2G Pr1 1_555 1_555
O2E C2E 1_555 1_555
O2H Pr1H 1_555 1_555
O2I Pr1H 1_555 1_555
O3G Pr1 1_555 1_555
O3I Pr1H 1_555 1_555
O3H Pr1H 1_555 1_555
O4F C2F 1_555 1_555
O4G C2G 1_555 1_555
O4E C2E 1_555 1_555
O4BA Pr1 1_555 1_555
O4Q Pr1 1_555 1_555
O4Y Pr1H 1_555 1_555
O4DA Pr1H 1_555 1_555
C2 O2 1_555 1_555
Pr1H O1H 1_555 1_555
C1G O1G 1_555 1_555
C2G O2G 1_555 1_555

#END
