
#######################################################################
#
#                 Cambridge Crystallographic Data Centre
#                                CCDC 
#
#######################################################################
#
# If this CIF has been generated from an entry in the Cambridge 
# Structural Database, then it will include bibliographic, chemical, 
# crystal, experimental, refinement or atomic coordinate data resulting 
# from the CCDC's data processing and validation procedures.
#
#######################################################################

data_COJMOF01
_symmetry_cell_setting           monoclinic
_symmetry_space_group_name_H-M   'C 2/c'
_symmetry_Int_Tables_number      15
_space_group_name_Hall           '-C 2yn'
loop_
_symmetry_equiv_pos_site_id
_symmetry_equiv_pos_as_xyz
1 x,y,z
2 -x,y,1/2-z
3 1/2+x,1/2+y,z
4 1/2-x,1/2+y,1/2-z
5 -x,-y,-z
6 x,-y,1/2+z
7 1/2-x,1/2-y,-z
8 1/2+x,1/2-y,1/2+z
_cell_length_a                   33.559(7)
_cell_length_b                   22.171(4)
_cell_length_c                   19.706(4)
_cell_angle_alpha                90
_cell_angle_beta                 124.022(3)
_cell_angle_gamma                90
_cell_volume                     12152.2
loop_
_atom_site_label
_atom_site_type_symbol
_atom_site_fract_x
_atom_site_fract_y
_atom_site_fract_z
Zn1 Zn 0.192746(9) 0.263583(12) 0.581209(16)
Zn2 Zn 0.089929(9) 0.236044(12) 0.481978(16)
N1 N -0.23480(7) 0.23110(9) 0.15514(13)
N2 N 0.01749(7) 0.22870(10) 0.40931(13)
O1 O 0.18876(6) 0.20336(9) 0.50070(11)
O2 O 0.10468(7) -0.16931(9) 0.06174(12)
O3 O 0.09861(7) 0.29654(9) 0.56562(12)
O4 O 0.17212(7) 0.67098(8) 0.99542(11)
O5 O 0.17597(7) 0.32012(9) 0.64097(12)
O6 O 0.09420(7) 0.69246(9) 0.92064(12)
O7 O 0.18213(7) -0.19257(9) 0.13440(13)
O8 O 0.11073(7) 0.18277(8) 0.42414(12)
C1 C -0.00685(14) 0.2520(3) 0.3395(3)
H1 H 0.0098 0.2729 0.3220
C2 C 0.12969(10) 0.66141(11) 0.93743(16)
C3 C -0.13526(9) 0.22751(12) 0.25660(17)
C4 C -0.08216(9) 0.22618(13) 0.30958(17)
C5 C 0.13352(11) 0.32618(12) 0.62008(17)
C6 C 0.14778(11) -0.16158(12) 0.12014(18)
C7 C 0.16174(9) 0.12613(12) 0.40265(17)
C8 C 0.15314(10) 0.17452(11) 0.44558(16)
C9 C 0.12319(10) 0.37319(14) 0.66164(18)
C10 C 0.12382(10) 0.09577(12) 0.33797(17)
H2 H 0.0924 0.1060 0.3192
C11 C 0.13278(10) 0.05011(13) 0.30124(19)
C12 C 0.12037(10) 0.60949(12) 0.88290(17)
C13 C -0.15864(10) 0.26427(14) 0.1904(2)
H3 H -0.1411 0.2888 0.1780
C14 C 0.15027(11) 0.45183(15) 0.7608(2)
C15 C -0.21218(10) 0.19491(15) 0.21985(18)
H4 H -0.2305 0.1709 0.2312
C16 C 0.10205(11) 0.51408(15) 0.7793(2)
C17 C 0.16011(11) 0.40687(15) 0.72513(19)
H5 H 0.1918 0.3987 0.7435
C18 C 0.13146(11) -0.03080(14) 0.2236(2)
C19 C 0.15823(11) -0.11003(14) 0.17625(19)
C20 C 0.12105(11) -0.07750(14) 0.17110(18)
H6 H 0.0892 -0.0876 0.1319
C21 C 0.14896(10) 0.53253(15) 0.83712(19)
C22 C 0.15770(10) 0.57926(13) 0.88806(18)
H7 H 0.1892 0.5909 0.9268
C23 C 0.10252(11) 0.46371(16) 0.7327(2)
C24 C 0.18020(10) 0.03532(15) 0.3292(2)
C25 C 0.06600(12) 0.43013(19) 0.6706(3)
H8 H 0.0342 0.4381 0.6519
C26 C 0.20857(11) 0.11285(14) 0.42774(19)
H9 H 0.2339 0.1350 0.4700
C27 C 0.07680(11) 0.38493(17) 0.6366(2)
H10 H 0.0521 0.3615 0.5953
C28 C 0.09804(11) 0.01002(15) 0.2299(2)
H11 H 0.0777 -0.0126 0.2413
H12 H 0.0780 0.0333 0.1802
C29 C -0.16297(10) 0.19137(15) 0.27075(18)
H13 H -0.1486 0.1646 0.3146
C30 C -0.05582(15) 0.2493(3) 0.2869(3)
H14 H -0.0705 0.2644 0.2340
C31 C 0.06398(11) 0.54521(17) 0.7726(2)
H15 H 0.0324 0.5342 0.7333
C32 C 0.21597(12) -0.04516(19) 0.2839(2)
H16 H 0.2478 -0.0336 0.3204
C33 C 0.17953(11) -0.01479(16) 0.2805(2)
C34 C 0.07346(11) 0.59182(15) 0.8241(2)
H17 H 0.0481 0.6124 0.8200
C35 C 0.21803(11) 0.06816(16) 0.3917(2)
H18 H 0.2495 0.0597 0.4089
C36 C 0.20460(12) -0.09271(18) 0.2327(2)
H19 H 0.2294 -0.1144 0.2361
C37 C -0.00766(12) 0.1994(2) 0.4260(3)
H20 H 0.0081 0.1785 0.4754
C38 C -0.20774(10) 0.26560(14) 0.1417(2)
H21 H -0.2227 0.2918 0.0972
C39 C -0.05716(12) 0.1957(3) 0.3768(3)
H22 H -0.0729 0.1707 0.3924
C40 C 0.18334(12) 0.49429(16) 0.8291(2)
H23 H 0.2017 0.5187 0.8151
H24 H 0.2053 0.4725 0.8794
Zn1E Zn 0.192746(9) -0.263583(12) 0.081209(16)
Zn1E_2 Zn 0.192746(9) 0.736417(12) 1.081209(16)
Zn1G Zn -0.307254(9) 0.236417(12) 0.081209(16)
Zn2E Zn 0.089929(9) -0.236044(12) -0.018022(16)
Zn2E_2 Zn 0.089929(9) 0.763956(12) 0.981978(16)
N1G N 0.26520(7) 0.26890(9) 0.65514(13)
O2E O 0.10468(7) 0.16931(9) 0.56174(12)
O4E O 0.17212(7) 0.32902(8) 0.49542(11)
O6E O 0.09420(7) 0.30754(9) 0.42064(12)
O7E O 0.18213(7) 0.19257(9) 0.63440(13)
loop_
_geom_bond_atom_site_label_1
_geom_bond_atom_site_label_2
_geom_bond_site_symmetry_1
_geom_bond_site_symmetry_2
Zn1 O1 1_555 1_555
Zn2 N2 1_555 1_555
N1 C15 1_555 1_555
N2 C1 1_555 1_555
O1 C8 1_555 1_555
O2 C6 1_555 1_555
O3 Zn2 1_555 1_555
O4 C2 1_555 1_555
O5 Zn1 1_555 1_555
O6 C2 1_555 1_555
O7 C6 1_555 1_555
O8 Zn2 1_555 1_555
C1 H1 1_555 1_555
C2 C12 1_555 1_555
C3 C4 1_555 1_555
C4 C30 1_555 1_555
C5 O3 1_555 1_555
C6 C19 1_555 1_555
C7 C8 1_555 1_555
C8 O8 1_555 1_555
C9 C5 1_555 1_555
C10 C7 1_555 1_555
H2 C10 1_555 1_555
C11 C10 1_555 1_555
C12 C22 1_555 1_555
C13 C3 1_555 1_555
H3 C13 1_555 1_555
C14 C17 1_555 1_555
C15 H4 1_555 1_555
C16 C21 1_555 1_555
C17 C9 1_555 1_555
H5 C17 1_555 1_555
C18 C20 1_555 1_555
C19 C20 1_555 1_555
C20 H6 1_555 1_555
C21 C22 1_555 1_555
C22 H7 1_555 1_555
C23 C14 1_555 1_555
C24 C11 1_555 1_555
C25 C23 1_555 1_555
H8 C25 1_555 1_555
C26 C7 1_555 1_555
H9 C26 1_555 1_555
C27 C9 1_555 1_555
H10 C27 1_555 1_555
C28 C11 1_555 1_555
H11 C28 1_555 1_555
H12 C28 1_555 1_555
C29 C3 1_555 1_555
H13 C29 1_555 1_555
C30 C1 1_555 1_555
H14 C30 1_555 1_555
C31 C16 1_555 1_555
H15 C31 1_555 1_555
C32 H16 1_555 1_555
C33 C18 1_555 1_555
C34 C12 1_555 1_555
H17 C34 1_555 1_555
C35 C24 1_555 1_555
H18 C35 1_555 1_555
C36 C19 1_555 1_555
H19 C36 1_555 1_555
C37 N2 1_555 1_555
H20 C37 1_555 1_555
C38 N1 1_555 1_555
H21 C38 1_555 1_555
C39 C4 1_555 1_555
H22 C39 1_555 1_555
C40 C14 1_555 1_555
H23 C40 1_555 1_555
H24 C40 1_555 1_555
Zn1E O7 1_555 1_555
Zn1E_2 O4 1_555 1_555
Zn1G N1 1_555 1_555
Zn2E O2 1_555 1_555
Zn2E_2 O6 1_555 1_555
N1G Zn1 1_555 1_555
O2E Zn2 1_555 1_555
O4E Zn1 1_555 1_555
O6E Zn2 1_555 1_555
O7E Zn1 1_555 1_555
O5 C5 1_555 1_555
C13 C38 1_555 1_555
C15 C29 1_555 1_555
C16 C23 1_555 1_555
C18 C28 1_555 1_555
C21 C40 1_555 1_555
C24 C33 1_555 1_555
C25 C27 1_555 1_555
C26 C35 1_555 1_555
C31 C34 1_555 1_555
C32 C33 1_555 1_555
C32 C36 1_555 1_555
C37 C39 1_555 1_555

#END
