
#######################################################################
#
#                 Cambridge Crystallographic Data Centre
#                                CCDC 
#
#######################################################################
#
# If this CIF has been generated from an entry in the Cambridge 
# Structural Database, then it will include bibliographic, chemical, 
# crystal, experimental, refinement or atomic coordinate data resulting 
# from the CCDC's data processing and validation procedures.
#
#######################################################################

data_COKFAK
_symmetry_cell_setting           triclinic
_symmetry_space_group_name_H-M   'P -1'
_symmetry_Int_Tables_number      2
_space_group_name_Hall           '-P 1'
loop_
_symmetry_equiv_pos_site_id
_symmetry_equiv_pos_as_xyz
1 x,y,z
2 -x,-y,-z
_cell_length_a                   8.7796(19)
_cell_length_b                   14.857(3)
_cell_length_c                   21.621(5)
_cell_angle_alpha                72.212(4)
_cell_angle_beta                 81.686(4)
_cell_angle_gamma                83.572(4)
_cell_volume                     2650.28
loop_
_atom_site_label
_atom_site_type_symbol
_atom_site_fract_x
_atom_site_fract_y
_atom_site_fract_z
C1 C -0.0381(8) -0.1996(5) 0.6032(3)
H1 H -0.0031 -0.1780 0.6344
C3 C -0.1156(9) -0.2043(6) 0.5152(3)
H4 H -0.1451 -0.1864 0.4732
C5 C -0.1122(10) -0.2933(5) 0.5566(3)
H8 H -0.1385 -0.3471 0.5483
C7 C -0.0426(8) -0.3697(5) 0.6715(3)
H11 H 0.0029 -0.3481 0.7023
H12 H 0.0283 -0.4184 0.6598
C9 C -0.1939(8) -0.4118(5) 0.7040(3)
C10 C -0.2314(8) -0.4971(5) 0.6999(4)
H16 H -0.1605 -0.5312 0.6778
C11 C -0.3015(9) -0.3628(6) 0.7372(4)
H17 H -0.2786 -0.3047 0.7400
C12 C -0.3729(8) -0.5336(5) 0.7281(3)
H18 H -0.3950 -0.5918 0.7250
C13 C -0.4417(9) -0.3973(5) 0.7660(4)
H19 H -0.5103 -0.3633 0.7890
C14 C -0.4821(8) -0.4830(5) 0.7612(3)
C15 C -0.6367(7) -0.5192(4) 0.7898(3)
C16 C -0.6621(8) -0.6148(5) 0.8085(3)
H20 H -0.5795 -0.6582 0.8038
C17 C -0.7651(8) -0.4570(5) 0.7983(3)
H21 H -0.7529 -0.3923 0.7865
C18 C -0.8066(8) -0.6480(5) 0.8338(3)
H22 H -0.8192 -0.7126 0.8455
C19 C -0.9073(8) -0.4890(4) 0.8234(3)
H23 H -0.9896 -0.4456 0.8284
C20 C -0.9325(7) -0.5854(5) 0.8419(3)
C21 C -1.0935(9) -0.6149(5) 0.8690(4)
H24 H -1.1240 -0.5973 0.9090
H25 H -1.1643 -0.5805 0.8379
C22 C -1.0619(8) -0.7854(5) 0.9348(3)
H26 H -1.0236 -0.7738 0.9693
C23 C -1.1572(8) -0.7621(5) 0.8437(3)
H27 H -1.1956 -0.7331 0.8039
C24 C -1.1398(10) -0.8559(5) 0.8738(3)
H28 H -1.1658 -0.9034 0.8582
C25 C -0.0353(8) 0.0603(6) 0.6281(3)
H29 H -0.1357 0.0858 0.6222
C26 C 0.1848(8) -0.0161(5) 0.6189(3)
H30 H 0.2659 -0.0537 0.6048
C27 C 0.1847(9) 0.0226(7) 0.6665(3)
H31 H 0.2654 0.0170 0.6912
C28 C 0.0037(10) 0.1363(9) 0.7135(4)
H32 H 0.0448 0.1089 0.7551
H33 H -0.1078 0.1443 0.7222
C29 C 0.0670(10) 0.2309(8) 0.6796(4)
C30 C 0.0047(9) 0.2942(9) 0.6256(5)
H34 H -0.0826 0.2790 0.6122
C31 C 0.1977(9) 0.2566(8) 0.6980(4)
H35 H 0.2428 0.2154 0.7335
C32 C 0.0673(9) 0.3770(8) 0.5921(4)
H36 H 0.0222 0.4169 0.5562
C33 C 0.2614(9) 0.3403(8) 0.6656(4)
H37 H 0.3469 0.3552 0.6803
C34 C 0.2017(9) 0.4049(7) 0.6104(4)
C35 C 0.2738(9) 0.4929(7) 0.5738(4)
C36 C 0.2819(10) 0.5269(8) 0.5052(4)
H38 H 0.2381 0.4941 0.4827
C37 C 0.3422(10) 0.5443(7) 0.6060(4)
H39 H 0.3382 0.5235 0.6513
C38 C 0.3534(11) 0.6077(8) 0.4712(5)
H40 H 0.3563 0.6294 0.4259
C39 C 0.4144(10) 0.6241(8) 0.5716(4)
H41 H 0.4595 0.6568 0.5938
C40 C 0.4220(10) 0.6580(8) 0.5033(5)
C41 C 0.5052(11) 0.7458(8) 0.4651(5)
H42 H 0.6017 0.7431 0.4828
H43 H 0.5300 0.7456 0.4200
C42 C 0.2726(9) 0.8490(6) 0.4923(4)
H44 H 0.2094 0.8004 0.5150
C43 C 0.4653(12) 0.9179(10) 0.4369(10)
H45 H 0.5616 0.9303 0.4130
C44 C 0.3473(11) 0.9864(7) 0.4469(8)
H46 H 0.3516 1.0518 0.4317
C45 C -1.3004(9) -1.0786(4) 0.9777(3)
H47 H -1.2686 -1.0671 0.9332
C46 C -1.3056(9) -1.0899(4) 1.0786(3)
H48 H -1.2765 -1.0871 1.1176
C47 C -1.4360(8) -1.1238(4) 1.0725(3)
H49 H -1.5132 -1.1476 1.1061
C48 C -1.5496(10) -1.1474(5) 0.9771(4)
H50 H -1.5396 -1.1136 0.9307
H51 H -1.6518 -1.1302 0.9958
C49 C -1.5358(10) -1.2531(5) 0.9854(3)
C50 C -1.590(3) -1.2849(7) 0.9411(6)
H52 H -1.6375 -1.2427 0.9067
C51 C -1.4955(10) -1.3198(5) 1.0395(4)
H53 H -1.4748 -1.3006 1.0744
C52 C -1.575(3) -1.3820(7) 0.9474(7)
H54 H -1.6125 -1.4025 0.9164
C53 C -1.4834(10) -1.4154(5) 1.0455(4)
H55 H -1.4577 -1.4583 1.0846
C54 C -1.5075(14) -1.4485(5) 0.9970(4)
N1 N -0.0681(7) -0.1442(4) 0.5451(3)
N2 N -0.0636(6) -0.2898(4) 0.6125(3)
N3 N -1.0774(7) -0.8703(4) 0.9312(3)
N4 N -1.1075(6) -0.7178(4) 0.8832(3)
N5 N 0.0440(6) 0.0083(4) 0.5935(2)
N6 N 0.0450(7) 0.0725(6) 0.6729(3)
N7 N 0.2290(6) 0.9394(5) 0.4822(3)
N8 N 0.4161(7) 0.8346(5) 0.4668(4)
N9 N -1.2207(7) -1.0596(4) 1.0177(3)
N10 N -1.4345(7) -1.1167(3) 1.0076(3)
Co1 Co 0.0000 0.0000 0.5000
Co2 Co -1.0000 -1.0000 1.0000
O10 O -1.0544(8) -0.9393(4) 1.0786(2)
H58 H -1.038(9) -0.875(2) 1.071(4)
H59 H -1.134(7) -0.955(5) 1.114(3)
C1A C 0.0381(8) 0.1996(5) 0.3968(3)
H1A H 0.0031 0.1780 0.3656
C3A C 0.1156(9) 0.2043(6) 0.4848(3)
H4A H 0.1451 0.1864 0.5268
C5A C 0.1122(10) 0.2933(5) 0.4434(3)
H8A H 0.1385 0.3471 0.4517
C7A C 0.0426(8) 0.3697(5) 0.3285(3)
H11A H -0.0029 0.3481 0.2977
H12A H -0.0283 0.4184 0.3402
C9A C 0.1939(8) 0.4118(5) 0.2960(3)
C10A C 0.2314(8) 0.4971(5) 0.3001(4)
H16A H 0.1605 0.5312 0.3222
C11A C 0.3015(9) 0.3628(6) 0.2628(4)
H17A H 0.2786 0.3047 0.2600
C12A C 0.3729(8) 0.5336(5) 0.2719(3)
H18A H 0.3950 0.5918 0.2750
C13A C 0.4417(9) 0.3973(5) 0.2340(4)
H19A H 0.5103 0.3633 0.2110
C14A C 0.4821(8) 0.4830(5) 0.2388(3)
C15A C 0.6367(7) 0.5192(4) 0.2102(3)
C16A C 0.6621(8) 0.6148(5) 0.1915(3)
H20A H 0.5795 0.6582 0.1962
C17A C 0.7651(8) 0.4570(5) 0.2017(3)
H21A H 0.7529 0.3923 0.2135
C18A C 0.8066(8) 0.6480(5) 0.1662(3)
H22A H 0.8192 0.7126 0.1545
C19A C 0.9073(8) 0.4890(4) 0.1766(3)
H23A H 0.9896 0.4456 0.1716
C20A C 0.9325(7) 0.5854(5) 0.1581(3)
C21A C 1.0935(9) 0.6149(5) 0.1310(4)
H24A H 1.1240 0.5973 0.0910
H25A H 1.1643 0.5805 0.1621
C22A C 1.0619(8) 0.7854(5) 0.0652(3)
H26A H 1.0236 0.7738 0.0307
C23A C 1.1572(8) 0.7621(5) 0.1563(3)
H27A H 1.1956 0.7331 0.1961
C24A C 1.1398(10) 0.8559(5) 0.1262(3)
H28A H 1.1658 0.9034 0.1418
C25A C 0.0353(8) -0.0603(6) 0.3719(3)
H29A H 0.1357 -0.0858 0.3778
C26A C -0.1848(8) 0.0161(5) 0.3811(3)
H30A H -0.2659 0.0537 0.3952
C27A C -0.1847(9) -0.0226(7) 0.3335(3)
H31A H -0.2654 -0.0170 0.3088
C28A C -0.0037(10) -0.1363(9) 0.2865(4)
H32A H -0.0448 -0.1089 0.2449
H33A H 0.1078 -0.1443 0.2778
C29A C -0.0670(10) -0.2309(8) 0.3204(4)
C30A C -0.0047(9) -0.2942(9) 0.3744(5)
H34A H 0.0826 -0.2790 0.3878
C31A C -0.1977(9) -0.2566(8) 0.3020(4)
H35A H -0.2428 -0.2154 0.2665
C32A C -0.0673(9) -0.3770(8) 0.4079(4)
H36A H -0.0222 -0.4169 0.4438
C33A C -0.2614(9) -0.3403(8) 0.3344(4)
H37A H -0.3469 -0.3552 0.3197
C34A C -0.2017(9) -0.4049(7) 0.3896(4)
C35A C -0.2738(9) -0.4929(7) 0.4262(4)
C36A C -0.2819(10) -0.5269(8) 0.4948(4)
H38A H -0.2381 -0.4941 0.5173
C37A C -0.3422(10) -0.5443(7) 0.3940(4)
H39A H -0.3382 -0.5235 0.3487
C38A C -0.3534(11) -0.6077(8) 0.5288(5)
H40A H -0.3563 -0.6294 0.5741
C39A C -0.4144(10) -0.6241(8) 0.4284(4)
H41A H -0.4595 -0.6568 0.4062
C40A C -0.4220(10) -0.6580(8) 0.4967(5)
C41A C -0.5052(11) -0.7458(8) 0.5349(5)
H42A H -0.6017 -0.7431 0.5172
H43A H -0.5300 -0.7456 0.5800
C42A C -0.2726(9) -0.8490(6) 0.5077(4)
H44A H -0.2094 -0.8004 0.4850
C43A C -0.4653(12) -0.9179(10) 0.5631(10)
H45A H -0.5616 -0.9303 0.5870
C44A C -0.3473(11) -0.9864(7) 0.5531(8)
H46A H -0.3516 -1.0518 0.5683
C45A C -1.6996(9) -1.9214(4) 1.0223(3)
H47A H -1.7314 -1.9329 1.0668
C46A C -1.6944(9) -1.9101(4) 0.9214(3)
H48A H -1.7235 -1.9129 0.8824
C47A C -1.5640(8) -1.8762(4) 0.9275(3)
H49A H -1.4868 -1.8524 0.8939
C48A C -1.4504(10) -1.8526(5) 1.0229(4)
H50A H -1.4604 -1.8864 1.0693
H51A H -1.3482 -1.8698 1.0042
C49A C -1.4642(10) -1.7469(5) 1.0146(3)
C50A C -1.410(3) -1.7151(7) 1.0589(6)
H52A H -1.3625 -1.7573 1.0933
C51A C -1.5045(10) -1.6802(5) 0.9605(4)
H53A H -1.5252 -1.6994 0.9256
C52A C -1.425(3) -1.6180(7) 1.0526(7)
H54A H -1.3875 -1.5975 1.0836
C53A C -1.5166(10) -1.5846(5) 0.9545(4)
H55A H -1.5423 -1.5417 0.9154
C54A C -1.4925(14) -1.5515(5) 1.0030(4)
N1A N 0.0681(7) 0.1442(4) 0.4549(3)
N2A N 0.0636(6) 0.2898(4) 0.3875(3)
N3A N 1.0774(7) 0.8703(4) 0.0688(3)
N3A_2 N -0.9226(7) -1.1297(4) 1.0688(3)
N4A N 1.1075(6) 0.7178(4) 0.1168(3)
N5A N -0.0440(6) -0.0083(4) 0.4065(2)
N6A N -0.0450(7) -0.0725(6) 0.3271(3)
N7A N -0.2290(6) -0.9394(5) 0.5178(3)
N7_2 N 0.2290(6) -0.0606(5) 0.4822(3)
N7A_2 N -0.2290(6) 0.0606(5) 0.5178(3)
N8A N -0.4161(7) -0.8346(5) 0.5332(4)
N9A N -1.7793(7) -1.9404(4) 0.9823(3)
N9A_2 N -0.7793(7) -0.9404(4) 0.9823(3)
N10A N -1.5655(7) -1.8833(3) 0.9924(3)
Co1_2 Co 0.0000 1.0000 0.5000
Co1_3 Co 0.0000 -1.0000 0.5000
Co2_2 Co -2.0000 -2.0000 1.0000
Co2_3 Co 1.0000 1.0000 0.0000
O10A O -0.9456(8) -1.0607(4) 0.9214(2)
H58A H -0.962(9) -1.125(2) 0.929(4)
H59A H -0.866(7) -1.045(5) 0.886(3)
C2 C -0.036(5) -0.355(3) -0.043(2)
H2 H 0.0499 -0.3958 -0.0543
H3 H -0.0698 -0.3713 0.0036
C4 C -0.184(4) -0.326(3) -0.0942(19)
H5 H -0.2440 -0.3797 -0.0853
H6 H -0.1392 -0.3092 -0.1391
H7 H -0.2493 -0.2734 -0.0863
O1 O -0.0269(10) -0.2294(6) -0.0850(4)
H56 H 0.0221 -0.2223 -0.1212
C6 C 0.6991(19) -0.0822(12) 0.7847(8)
H9 H 0.7898 -0.0466 0.7674
H10 H 0.7300 -0.1418 0.8155
C8 C 0.635(2) -0.1002(13) 0.7317(9)
H13 H 0.7116 -0.1345 0.7095
H14 H 0.6039 -0.0411 0.7014
H15 H 0.5470 -0.1370 0.7491
O2 O 0.5811(11) -0.0271(7) 0.8189(5)
H57 H 0.5523 0.0222 0.7924
N11 N 1.147(2) -0.2181(7) 0.7553(6)
O3 O 0.9919(15) -0.2172(11) 0.7720(10)
O4 O 1.2388(12) -0.2315(6) 0.6984(5)
O5 O 1.2472(14) -0.2083(6) 0.7890(6)
N12 N 0.5919(11) 0.1907(8) 0.7204(6)
O6 O 0.5611(12) 0.1684(7) 0.7750(4)
O7 O 0.6338(11) 0.2739(8) 0.6934(5)
O8 O 0.6143(13) 0.1438(7) 0.6826(4)
O9 O 0.7180(9) 0.0477(5) 0.1773(3)
loop_
_geom_bond_atom_site_label_1
_geom_bond_atom_site_label_2
_geom_bond_site_symmetry_1
_geom_bond_site_symmetry_2
C1 H1 1_555 1_555
C2 H2 1_555 1_555
H3 C2 1_555 1_555
C3 H4 1_555 1_555
C4 C2 1_555 1_555
H5 C4 1_555 1_555
H6 C4 1_555 1_555
H7 C4 1_555 1_555
C5 C3 1_555 1_555
H8 C5 1_555 1_555
C6 H9 1_555 1_555
H10 C6 1_555 1_555
C7 H11 1_555 1_555
H12 C7 1_555 1_555
C8 C6 1_555 1_555
H13 C8 1_555 1_555
H14 C8 1_555 1_555
H15 C8 1_555 1_555
C9 C7 1_555 1_555
C10 C9 1_555 1_555
H16 C10 1_555 1_555
C11 C9 1_555 1_555
H17 C11 1_555 1_555
C12 C10 1_555 1_555
H18 C12 1_555 1_555
C13 C11 1_555 1_555
H19 C13 1_555 1_555
C14 C12 1_555 1_555
C15 C14 1_555 1_555
C16 C15 1_555 1_555
H20 C16 1_555 1_555
C17 C15 1_555 1_555
H21 C17 1_555 1_555
C18 C16 1_555 1_555
H22 C18 1_555 1_555
C19 C17 1_555 1_555
H23 C19 1_555 1_555
C20 C18 1_555 1_555
C21 C20 1_555 1_555
H24 C21 1_555 1_555
H25 C21 1_555 1_555
C22 H26 1_555 1_555
C23 H27 1_555 1_555
C24 C23 1_555 1_555
H28 C24 1_555 1_555
C25 H29 1_555 1_555
C26 H30 1_555 1_555
C27 C26 1_555 1_555
H31 C27 1_555 1_555
C28 H32 1_555 1_555
H33 C28 1_555 1_555
C29 C28 1_555 1_555
C30 C29 1_555 1_555
H34 C30 1_555 1_555
C31 C29 1_555 1_555
H35 C31 1_555 1_555
C32 C30 1_555 1_555
H36 C32 1_555 1_555
C33 C31 1_555 1_555
H37 C33 1_555 1_555
C34 C32 1_555 1_555
C35 C34 1_555 1_555
C36 C35 1_555 1_555
H38 C36 1_555 1_555
C37 C35 1_555 1_555
H39 C37 1_555 1_555
C38 C36 1_555 1_555
H40 C38 1_555 1_555
C39 C37 1_555 1_555
H41 C39 1_555 1_555
C40 C38 1_555 1_555
C41 C40 1_555 1_555
H42 C41 1_555 1_555
H43 C41 1_555 1_555
C42 H44 1_555 1_555
C43 H45 1_555 1_555
C44 C43 1_555 1_555
H46 C44 1_555 1_555
C45 H47 1_555 1_555
C46 H48 1_555 1_555
C47 C46 1_555 1_555
H49 C47 1_555 1_555
C48 H50 1_555 1_555
H51 C48 1_555 1_555
C49 C48 1_555 1_555
C50 C49 1_555 1_555
H52 C50 1_555 1_555
C51 C49 1_555 1_555
H53 C51 1_555 1_555
C52 C50 1_555 1_555
H54 C52 1_555 1_555
C53 C51 1_555 1_555
H55 C53 1_555 1_555
C54 C52 1_555 1_555
N1 C1 1_555 1_555
N2 C1 1_555 1_555
N3 C22 1_555 1_555
N4 C21 1_555 1_555
N5 C25 1_555 1_555
N6 C25 1_555 1_555
N7 C42 1_555 1_555
N8 C41 1_555 1_555
N9 C45 1_555 1_555
N10 C45 1_555 1_555
N11 O3 1_555 1_555
N12 O6 1_555 1_555
O1 C2 1_555 1_555
H56 O1 1_555 1_555
O2 C6 1_555 1_555
H57 O2 1_555 1_555
O4 N11 1_555 1_555
O5 N11 1_555 1_555
O7 N12 1_555 1_555
O8 N12 1_555 1_555
Co1 N1 1_555 1_555
Co2 N3 1_555 1_555
O10 Co2 1_555 1_555
H58 O10 1_555 1_555
H59 O10 1_555 1_555
C1A H1A 1_555 1_555
C3A H4A 1_555 1_555
C5A C3A 1_555 1_555
H8A C5A 1_555 1_555
C7A H11A 1_555 1_555
H12A C7A 1_555 1_555
C9A C7A 1_555 1_555
C10A C9A 1_555 1_555
H16A C10A 1_555 1_555
C11A C9A 1_555 1_555
H17A C11A 1_555 1_555
C12A C10A 1_555 1_555
H18A C12A 1_555 1_555
C13A C11A 1_555 1_555
H19A C13A 1_555 1_555
C14A C12A 1_555 1_555
C15A C14A 1_555 1_555
C16A C15A 1_555 1_555
H20A C16A 1_555 1_555
C17A C15A 1_555 1_555
H21A C17A 1_555 1_555
C18A C16A 1_555 1_555
H22A C18A 1_555 1_555
C19A C17A 1_555 1_555
H23A C19A 1_555 1_555
C20A C18A 1_555 1_555
C21A C20A 1_555 1_555
H24A C21A 1_555 1_555
H25A C21A 1_555 1_555
C22A H26A 1_555 1_555
C23A H27A 1_555 1_555
C24A C23A 1_555 1_555
H28A C24A 1_555 1_555
C25A H29A 1_555 1_555
C26A H30A 1_555 1_555
C27A C26A 1_555 1_555
H31A C27A 1_555 1_555
C28A H32A 1_555 1_555
H33A C28A 1_555 1_555
C29A C28A 1_555 1_555
C30A C29A 1_555 1_555
H34A C30A 1_555 1_555
C31A C29A 1_555 1_555
H35A C31A 1_555 1_555
C32A C30A 1_555 1_555
H36A C32A 1_555 1_555
C33A C31A 1_555 1_555
H37A C33A 1_555 1_555
C34A C32A 1_555 1_555
C35A C34A 1_555 1_555
C36A C35A 1_555 1_555
H38A C36A 1_555 1_555
C37A C35A 1_555 1_555
H39A C37A 1_555 1_555
C38A C36A 1_555 1_555
H40A C38A 1_555 1_555
C39A C37A 1_555 1_555
H41A C39A 1_555 1_555
C40A C38A 1_555 1_555
C41A C40A 1_555 1_555
H42A C41A 1_555 1_555
H43A C41A 1_555 1_555
C42A H44A 1_555 1_555
C43A H45A 1_555 1_555
C44A C43A 1_555 1_555
H46A C44A 1_555 1_555
C45A H47A 1_555 1_555
C46A H48A 1_555 1_555
C47A C46A 1_555 1_555
H49A C47A 1_555 1_555
C48A H50A 1_555 1_555
H51A C48A 1_555 1_555
C49A C48A 1_555 1_555
C50A C49A 1_555 1_555
H52A C50A 1_555 1_555
C51A C49A 1_555 1_555
H53A C51A 1_555 1_555
C52A C50A 1_555 1_555
H54A C52A 1_555 1_555
C53A C51A 1_555 1_555
H55A C53A 1_555 1_555
C54A C54 1_555 1_555
N1A Co1 1_555 1_555
N2A C1A 1_555 1_555
N3A C22A 1_555 1_555
N3A_2 Co2 1_555 1_555
N4A C21A 1_555 1_555
N5A Co1 1_555 1_555
N6A C25A 1_555 1_555
N7A C42A 1_555 1_555
N7_2 Co1 1_555 1_555
N7A_2 Co1 1_555 1_555
N8A C41A 1_555 1_555
N9A C45A 1_555 1_555
N9A_2 Co2 1_555 1_555
N10A C45A 1_555 1_555
Co1_2 N7 1_555 1_555
Co1_3 N7A 1_555 1_555
Co2_2 N9A 1_555 1_555
Co2_3 N3A 1_555 1_555
O10A Co2 1_555 1_555
H58A O10A 1_555 1_555
H59A O10A 1_555 1_555
C3 N1 1_555 1_555
C5 N2 1_555 1_555
C7 N2 1_555 1_555
C13 C14 1_555 1_555
C19 C20 1_555 1_555
C22 N4 1_555 1_555
C23 N4 1_555 1_555
C24 N3 1_555 1_555
C26 N5 1_555 1_555
C27 N6 1_555 1_555
C28 N6 1_555 1_555
C33 C34 1_555 1_555
C39 C40 1_555 1_555
C42 N8 1_555 1_555
C43 N8 1_555 1_555
C44 N7 1_555 1_555
C46 N9 1_555 1_555
C47 N10 1_555 1_555
C48 N10 1_555 1_555
C53 C54 1_555 1_555
N5 Co1 1_555 1_555
N9 Co2 1_555 1_555
C1A N1A 1_555 1_555
C3A N1A 1_555 1_555
C5A N2A 1_555 1_555
C7A N2A 1_555 1_555
C13A C14A 1_555 1_555
C19A C20A 1_555 1_555
C22A N4A 1_555 1_555
C23A N4A 1_555 1_555
C24A N3A 1_555 1_555
C25A N5A 1_555 1_555
C26A N5A 1_555 1_555
C27A N6A 1_555 1_555
C28A N6A 1_555 1_555
C33A C34A 1_555 1_555
C39A C40A 1_555 1_555
C42A N8A 1_555 1_555
C43A N8A 1_555 1_555
C44A N7A 1_555 1_555
C46A N9A 1_555 1_555
C47A N10A 1_555 1_555
C48A N10A 1_555 1_555
C52A C54A 1_555 1_555
C53A C54A 1_555 1_555

#END
