
#######################################################################
#
#                 Cambridge Crystallographic Data Centre
#                                CCDC 
#
#######################################################################
#
# If this CIF has been generated from an entry in the Cambridge 
# Structural Database, then it will include bibliographic, chemical, 
# crystal, experimental, refinement or atomic coordinate data resulting 
# from the CCDC's data processing and validation procedures.
#
#######################################################################

data_COKJIX
_symmetry_cell_setting           triclinic
_symmetry_space_group_name_H-M   'P -1'
_symmetry_Int_Tables_number      2
_space_group_name_Hall           '-P 1'
loop_
_symmetry_equiv_pos_site_id
_symmetry_equiv_pos_as_xyz
1 x,y,z
2 -x,-y,-z
_cell_length_a                   8.3576(2)
_cell_length_b                   10.5283(4)
_cell_length_c                   17.4675(6)
_cell_angle_alpha                98.741(3)
_cell_angle_beta                 97.008(3)
_cell_angle_gamma                100.523(3)
_cell_volume                     1475.74
loop_
_atom_site_label
_atom_site_type_symbol
_atom_site_fract_x
_atom_site_fract_y
_atom_site_fract_z
Gd1 Gd 0.03334(2) 0.18963(2) 0.236737(10)
Gd2 Gd 0.52029(2) 0.13507(2) 0.295276(11)
C1 C 0.2759(5) 0.2073(5) 0.4101(2)
C2 C 0.1841(5) 0.1962(5) 0.4784(2)
C3 C 0.2189(4) 0.1121(4) 0.5287(2)
H1 H 0.3036 0.0672 0.5219
C4 C 0.1287(5) 0.0940(4) 0.5894(2)
C5 C 0.0046(5) 0.1627(5) 0.5987(3)
H2 H -0.0577 0.1506 0.6387
C6 C -0.0283(6) 0.2481(6) 0.5502(3)
H3 H -0.1111 0.2947 0.5580
C7 C 0.0607(5) 0.2659(5) 0.4896(3)
H4 H 0.0380 0.3241 0.4567
C8 C 0.1641(5) -0.0014(5) 0.6416(2)
C9 C 0.3395(5) 0.2271(4) 0.1402(2)
C10 C 0.4163(4) 0.2024(4) 0.0682(2)
C11 C 0.3275(4) 0.1200(5) 0.0007(2)
H5 H 0.2176 0.0819 -0.0002
C12 C 0.4015(5) 0.0941(5) -0.0652(2)
C13 C 0.5657(5) 0.1539(5) -0.0632(3)
H6 H 0.6157 0.1387 -0.1075
C14 C 0.6543(5) 0.2347(6) 0.0033(3)
H7 H 0.7640 0.2733 0.0040
C15 C 0.5803(5) 0.2590(5) 0.0692(3)
H8 H 0.6407 0.3134 0.1143
C16 C 0.3132(5) 0.0014(4) -0.1369(2)
C17 C 0.0265(5) 0.4386(5) 0.1940(2)
C18 C 0.0274(5) 0.5696(4) 0.1709(2)
C19 C 0.1226(5) 0.6830(4) 0.2176(2)
H9 H 0.1844 0.6779 0.2646
C20 C 0.1264(4) 0.8047(4) 0.1947(2)
C21 C 0.0330(5) 0.8121(5) 0.1248(3)
H10 H 0.0327 0.8930 0.1096
C22 C -0.0598(6) 0.6981(5) 0.0775(3)
H11 H -0.1200 0.7031 0.0301
C23 C -0.0642(5) 0.5780(5) 0.0997(3)
H12 H -0.1277 0.5025 0.0677
C24 C 0.2405(5) 0.9223(5) 0.2424(2)
C25 C 0.7842(5) 0.3674(5) 0.3362(3)
H13 H 0.8660 0.4432 0.3506
O1 O 0.2200(4) 0.2613(3) 0.35555(16)
O2 O 0.4028(4) 0.1604(4) 0.41014(17)
O3 O 0.0639(3) -0.0306(3) 0.68729(16)
O4 O 0.2919(3) -0.0475(3) 0.63458(16)
O5 O 0.1857(3) 0.2088(3) 0.13264(16)
O6 O 0.4337(3) 0.2649(3) 0.20630(15)
O7 O 0.1622(3) -0.0455(3) -0.14118(15)
O8 O 0.3973(3) -0.0268(3) -0.19017(16)
O9 O 0.1247(3) 0.4316(3) 0.25459(16)
O10 O -0.0704(3) 0.3399(3) 0.15591(17)
O11 O 0.3610(3) 0.9080(3) 0.28845(18)
O12 O 0.2239(3) 1.0370(3) 0.23258(16)
O13 O 0.6487(3) 0.3671(3) 0.35893(17)
O14 O 0.8142(3) 0.2707(3) 0.29500(17)
Gd1_2 Gd 0.03334(2) 1.18963(2) 0.236737(10)
Gd1_3 Gd 1.03334(2) 0.18963(2) 0.236737(10)
Gd1A Gd -0.03334(2) -0.18963(2) -0.236737(10)
Gd1A_2 Gd -0.03334(2) -0.18963(2) 0.763263(10)
Gd2_2 Gd 0.52029(2) 1.13507(2) 0.295276(11)
Gd2A Gd 0.47971(2) -0.13507(2) -0.295276(11)
Gd2A_2 Gd 0.47971(2) -0.13507(2) 0.704724(11)
O3A O -0.0639(3) 0.0306(3) 0.31271(16)
O4A O 0.7081(3) 0.0475(3) 0.36542(16)
O7A O -0.1622(3) 0.0455(3) 0.14118(15)
O8A O 0.6027(3) 0.0268(3) 0.19017(16)
O11_2 O 0.3610(3) -0.0920(3) 0.28845(18)
O12_2 O 0.2239(3) 0.0370(3) 0.23258(16)
O14_2 O -0.1858(3) 0.2707(3) 0.29500(17)
C26 C 0.4419(11) 0.6114(11) 0.3921(6)
H14 H 0.4255 0.6984 0.3887
H15 H 0.5440 0.6166 0.4254
H16 H 0.3528 0.5654 0.4136
C27 C 0.5389(10) 0.6114(10) 0.2609(8)
H17 H 0.5023 0.5697 0.2072
H18 H 0.6542 0.6129 0.2743
H19 H 0.5211 0.6997 0.2678
N1 N 0.4471(6) 0.5387(6) 0.3113(4)
H20 H 0.4904 0.4677 0.3167
H21 H 0.3428 0.5094 0.2866
loop_
_geom_bond_atom_site_label_1
_geom_bond_atom_site_label_2
_geom_bond_site_symmetry_1
_geom_bond_site_symmetry_2
Gd1 O1 1_555 1_555
Gd2 O2 1_555 1_555
C1 C2 1_555 1_555
C2 C3 1_555 1_555
C3 H1 1_555 1_555
C4 C3 1_555 1_555
C5 C4 1_555 1_555
H2 C5 1_555 1_555
C6 C5 1_555 1_555
H3 C6 1_555 1_555
C7 C2 1_555 1_555
H4 C7 1_555 1_555
C8 C4 1_555 1_555
C9 C10 1_555 1_555
C10 C11 1_555 1_555
C11 H5 1_555 1_555
C12 C11 1_555 1_555
C13 C12 1_555 1_555
H6 C13 1_555 1_555
C14 C13 1_555 1_555
H7 C14 1_555 1_555
C15 C10 1_555 1_555
H8 C15 1_555 1_555
C16 C12 1_555 1_555
C17 C18 1_555 1_555
C18 C19 1_555 1_555
C19 H9 1_555 1_555
C20 C19 1_555 1_555
C21 C20 1_555 1_555
H10 C21 1_555 1_555
C22 C21 1_555 1_555
H11 C22 1_555 1_555
C23 C18 1_555 1_555
H12 C23 1_555 1_555
C24 C20 1_555 1_555
C25 H13 1_555 1_555
O1 C1 1_555 1_555
O2 C1 1_555 1_555
O3 C8 1_555 1_555
O4 C8 1_555 1_555
O5 Gd1 1_555 1_555
O6 Gd2 1_555 1_555
O7 C16 1_555 1_555
O8 C16 1_555 1_555
O9 Gd1 1_555 1_555
O10 Gd1 1_555 1_555
O11 C24 1_555 1_555
O12 C24 1_555 1_555
O13 Gd2 1_555 1_555
O14 Gd2 1_555 1_555
C26 H14 1_555 1_555
H15 C26 1_555 1_555
H16 C26 1_555 1_555
C27 H17 1_555 1_555
H18 C27 1_555 1_555
H19 C27 1_555 1_555
N1 C26 1_555 1_555
H20 N1 1_555 1_555
H21 N1 1_555 1_555
Gd1_2 O12 1_555 1_555
Gd1_3 O14 1_555 1_555
Gd1A O7 1_555 1_555
Gd1A_2 O3 1_555 1_555
Gd2_2 O11 1_555 1_555
Gd2A O8 1_555 1_555
Gd2A_2 O4 1_555 1_555
O3A Gd1 1_555 1_555
O4A Gd2 1_555 1_555
O7A Gd1 1_555 1_555
O8A Gd2 1_555 1_555
O11_2 Gd2 1_555 1_555
O12_2 Gd1 1_555 1_555
O14_2 Gd1 1_555 1_555
Gd2 O12_2 1_555 1_555
C6 C7 1_555 1_555
C9 O5 1_555 1_555
C9 O6 1_555 1_555
C14 C15 1_555 1_555
C17 O9 1_555 1_555
C17 O10 1_555 1_555
C22 C23 1_555 1_555
C25 O13 1_555 1_555
C25 O14 1_555 1_555
O12 Gd2_2 1_555 1_555
C27 N1 1_555 1_555

#END
