
#######################################################################
#
#                 Cambridge Crystallographic Data Centre
#                                CCDC 
#
#######################################################################
#
# If this CIF has been generated from an entry in the Cambridge 
# Structural Database, then it will include bibliographic, chemical, 
# crystal, experimental, refinement or atomic coordinate data resulting 
# from the CCDC's data processing and validation procedures.
#
#######################################################################

data_COLPEA
_symmetry_cell_setting           monoclinic
_symmetry_space_group_name_H-M   'C c'
_symmetry_Int_Tables_number      9
_space_group_name_Hall           'C -2yc'
loop_
_symmetry_equiv_pos_site_id
_symmetry_equiv_pos_as_xyz
1 x,y,z
2 x,-y,1/2+z
3 1/2+x,1/2+y,z
4 1/2+x,1/2-y,1/2+z
_cell_length_a                   17.554(4)
_cell_length_b                   28.815(6)
_cell_length_c                   8.4209(18)
_cell_angle_alpha                90
_cell_angle_beta                 108.753(4)
_cell_angle_gamma                90
_cell_volume                     4033.33
loop_
_atom_site_label
_atom_site_type_symbol
_atom_site_fract_x
_atom_site_fract_y
_atom_site_fract_z
Co1 Co 0.32240(3) 0.216968(18) 0.34476(6)
Cl1 Cl 0.14613(8) 0.00008(4) 0.60507(15)
O1 O 0.19401(18) 0.29419(9) -0.0702(4)
O2 O 0.01838(18) 0.28384(10) -0.1823(4)
O3 O 0.3697(2) 0.17421(10) 0.2013(4)
H1 H 0.3635 0.1470 0.2229
O4 O 0.29094(17) 0.26464(10) 0.1458(4)
O5 O -0.05858(17) 0.25444(10) -0.0411(4)
N1 N 0.1931(2) 0.20123(11) 0.2150(4)
N2 N 0.0605(2) 0.19995(12) 0.1489(4)
C1 C 0.1412(3) 0.05276(15) 0.4988(6)
C2 C 0.2008(3) 0.10703(14) 0.3585(5)
H2 H 0.2424 0.1156 0.3186
C3 C 0.1338(3) 0.13606(13) 0.3323(5)
C4 C 0.2050(3) 0.06538(14) 0.4441(6)
H3 H 0.2498 0.0463 0.4645
C5 C 0.0078(2) 0.26043(14) -0.0641(5)
C6 C 0.0781(3) 0.23554(14) 0.0577(5)
C7 C 0.0743(3) 0.08057(15) 0.4716(6)
H4 H 0.0319 0.0712 0.5077
C8 C 0.1301(3) 0.17956(14) 0.2384(5)
C9 C 0.2184(2) 0.26696(14) 0.0542(5)
C10 C 0.0710(3) 0.12279(14) 0.3894(5)
H5 H 0.0267 0.1422 0.3727
C11 C 0.1606(3) 0.23602(14) 0.1001(5)
H6 H 0.411(4) 0.192(2) 0.242(8)
Co2 Co 0.10503(3) 0.289407(18) 0.69993(6)
Cl2 Cl -0.13211(7) 0.09290(4) 0.91993(16)
O6 O 0.28479(18) 0.26417(9) 0.4901(4)
O7 O 0.0177(2) 0.29160(11) 0.4670(4)
H7 H -0.0241 0.2802 0.4731
O8 O 0.35717(18) 0.17093(10) 0.5438(4)
O9 O 0.35174(18) 0.11768(10) 0.7318(4)
O10 O 0.19219(18) 0.29758(10) 0.5797(4)
N3 N 0.1457(2) 0.21704(11) 0.6828(4)
C12 C 0.2552(3) 0.17654(14) 0.6745(5)
C13 C 0.0782(3) 0.15498(14) 0.7958(5)
C14 C 0.0242(3) 0.09714(15) 0.9387(6)
H8 H 0.0312 0.0714 1.0086
N4 N 0.2105(2) 0.14984(12) 0.7492(4)
C15 C -0.0513(3) 0.11709(14) 0.8702(6)
C16 C 0.0013(3) 0.17331(14) 0.7263(5)
H9 H -0.0068 0.1982 0.6524
C17 C -0.0639(3) 0.15493(15) 0.7656(6)
H10 H -0.1148 0.1680 0.7220
C18 C 0.1450(3) 0.17476(14) 0.7485(5)
C19 C 0.2327(3) 0.26232(14) 0.5621(5)
C20 C 0.2142(3) 0.21819(14) 0.6353(5)
C21 C 0.3279(3) 0.15378(14) 0.6486(5)
C22 C 0.0894(3) 0.11630(14) 0.9010(5)
H11 H 0.1403 0.1033 0.9460
H12 H 0.010(4) 0.319(2) 0.464(9)
Co3 Co -0.04585(3) 0.572464(17) 0.76618(7)
Cl3 Cl 0.36760(7) 0.59271(4) 1.41978(15)
O11 O -0.09738(18) 0.46981(10) 0.4019(4)
O12 O -0.00570(19) 0.61752(11) 0.6176(4)
H13 H 0.0399 0.6264 0.6698
O13 O 0.00516(19) 0.38722(10) 0.4760(4)
O14 O 0.08808(18) 0.36289(10) 0.7235(4)
O15 O -0.10150(18) 0.53275(10) 0.5504(4)
N5 N 0.0421(2) 0.51584(12) 0.7807(4)
C23 C 0.1691(3) 0.51873(14) 1.0228(5)
C24 C 0.2827(3) 0.51653(15) 1.2768(6)
H14 H 0.3182 0.5000 1.3646
N6 N 0.1106(2) 0.44986(12) 0.8484(4)
C25 C 0.0482(2) 0.44071(14) 0.7031(5)
C26 C 0.2909(3) 0.56435(15) 1.2649(6)
C27 C 0.2403(3) 0.58971(15) 1.1345(6)
H15 H 0.2465 0.6217 1.1286
C28 C 0.1802(3) 0.56658(15) 1.0127(6)
H16 H 0.1465 0.5831 0.9226
C29 C 0.2217(3) 0.49394(15) 1.1573(5)
H17 H 0.2152 0.4621 1.1656
C30 C 0.1061(3) 0.49541(14) 0.8899(5)
C31 C -0.0686(3) 0.49525(14) 0.5299(5)
C32 C 0.0063(3) 0.48243(14) 0.6632(5)
C33 C 0.0461(3) 0.39377(14) 0.6272(5)
Co1C Co -0.17760(3) 0.283032(18) -0.15524(6)
O1_2 O 0.19401(18) 0.29419(9) 0.9298(4)
O2_2 O 0.01838(18) 0.28384(10) 0.8177(4)
O5C O 0.44142(17) 0.24556(10) 0.4589(4)
Co2_2 Co 0.10503(3) 0.289407(18) -0.30007(6)
O9B O -0.14826(18) 0.61768(10) 0.7318(4)
Co3A Co -0.04585(3) 0.427536(17) 0.26618(7)
Co3B Co 0.45415(3) 0.072464(17) 0.76618(7)
O11A O -0.09738(18) 0.53019(10) 0.9019(4)
O13A O 0.00516(19) 0.61278(10) 0.9760(4)
O16 O 0.7174(2) 0.11709(12) 0.5509(5)
H18 H 0.7689(7) 0.1139(18) 0.585(7)
H19 H 0.719(3) 0.1428(12) 0.500(7)
O17 O 0.2578(2) 0.06287(12) 0.9114(5)
H20 H 0.297(2) 0.0528(16) 0.882(8)
H21 H 0.236(3) 0.0358(9) 0.903(8)
O18 O 0.4059(2) 0.32033(12) 0.6779(5)
H22 H 0.373(2) 0.3036(18) 0.602(6)
H23 H 0.445(2) 0.316(2) 0.638(7)
O19 O 0.3850(2) 0.25950(14) 0.9242(5)
H24 H 0.373(4) 0.265(2) 1.014(5)
O20 O 0.3595(3) 0.08251(13) 0.2404(5)
H25 H 0.329(3) 0.0648(18) 0.164(6)
H26 H 0.378(6) 0.0600(17) 0.309(8)
O21 O 0.6375(2) 0.15809(14) 0.7593(5)
H27 H 0.679(2) 0.148(2) 0.736(8)
H28 H 0.666(3) 0.175(2) 0.842(6)
loop_
_geom_bond_atom_site_label_1
_geom_bond_atom_site_label_2
_geom_bond_site_symmetry_1
_geom_bond_site_symmetry_2
Co1 O3 1_555 1_555
Cl1 C1 1_555 1_555
O1 C9 1_555 1_555
O2 C5 1_555 1_555
O3 H1 1_555 1_555
O4 Co1 1_555 1_555
O5 C5 1_555 1_555
N1 Co1 1_555 1_555
N2 C6 1_555 1_555
C1 C4 1_555 1_555
C2 H2 1_555 1_555
C3 C2 1_555 1_555
C4 C2 1_555 1_555
H3 C4 1_555 1_555
C5 C6 1_555 1_555
C6 C11 1_555 1_555
C7 C1 1_555 1_555
H4 C7 1_555 1_555
C8 N1 1_555 1_555
C9 O4 1_555 1_555
C10 C3 1_555 1_555
H5 C10 1_555 1_555
C11 N1 1_555 1_555
H6 O3 1_555 1_555
Co2 O7 1_555 1_555
Cl2 C15 1_555 1_555
O6 Co1 1_555 1_555
O7 H7 1_555 1_555
O8 Co1 1_555 1_555
O9 C21 1_555 1_555
O10 Co2 1_555 1_555
N3 Co2 1_555 1_555
C12 N4 1_555 1_555
C13 C16 1_555 1_555
C14 H8 1_555 1_555
N4 C18 1_555 1_555
C15 C14 1_555 1_555
C16 H9 1_555 1_555
C17 C15 1_555 1_555
H10 C17 1_555 1_555
C18 N3 1_555 1_555
C19 O6 1_555 1_555
C20 N3 1_555 1_555
C21 O8 1_555 1_555
C22 C13 1_555 1_555
H11 C22 1_555 1_555
H12 O7 1_555 1_555
Co3 O12 1_555 1_555
Cl3 C26 1_555 1_555
O11 C31 1_555 1_555
O12 H13 1_555 1_555
O13 C33 1_555 1_555
O14 Co2 1_555 1_555
O15 Co3 1_555 1_555
N5 Co3 1_555 1_555
C23 C28 1_555 1_555
C24 H14 1_555 1_555
N6 C25 1_555 1_555
C25 C32 1_555 1_555
C26 C24 1_555 1_555
C27 C26 1_555 1_555
H15 C27 1_555 1_555
C28 C27 1_555 1_555
H16 C28 1_555 1_555
C29 C23 1_555 1_555
H17 C29 1_555 1_555
C30 N5 1_555 1_555
C31 O15 1_555 1_555
C32 N5 1_555 1_555
C33 O14 1_555 1_555
O16 H18 1_555 1_555
H19 O16 1_555 1_555
O17 H20 1_555 1_555
H21 O17 1_555 1_555
O18 H22 1_555 1_555
H23 O18 1_555 1_555
O19 H24 1_555 1_555
O20 H25 1_555 1_555
H26 O20 1_555 1_555
O21 H27 1_555 1_555
H28 O21 1_555 1_555
Co1C O5 1_555 1_555
O1_2 Co2 1_555 1_555
O2_2 Co2 1_555 1_555
O5C Co1 1_555 1_555
Co2_2 O1 1_555 1_555
O9B Co3 1_555 1_555
Co3A O11 1_555 1_555
Co3B O9 1_555 1_555
O11A Co3 1_555 1_555
O13A Co3 1_555 1_555
O2 Co2_2 1_555 1_555
N2 C8 1_555 1_555
C3 C8 1_555 1_555
C7 C10 1_555 1_555
C9 C11 1_555 1_555
O10 C19 1_555 1_555
C12 C20 1_555 1_555
C12 C21 1_555 1_555
C13 C18 1_555 1_555
C14 C22 1_555 1_555
C16 C17 1_555 1_555
C19 C20 1_555 1_555
O13 Co3A 1_555 1_555
C23 C30 1_555 1_555
C24 C29 1_555 1_555
N6 C30 1_555 1_555
C25 C33 1_555 1_555
C31 C32 1_555 1_555

#END
