
#######################################################################
#
#                 Cambridge Crystallographic Data Centre
#                                CCDC 
#
#######################################################################
#
# If this CIF has been generated from an entry in the Cambridge 
# Structural Database, then it will include bibliographic, chemical, 
# crystal, experimental, refinement or atomic coordinate data resulting 
# from the CCDC's data processing and validation procedures.
#
#######################################################################

data_COPXOV
_symmetry_cell_setting           monoclinic
_symmetry_space_group_name_H-M   'C 2/c'
_symmetry_Int_Tables_number      15
_space_group_name_Hall           '-C 2yn'
loop_
_symmetry_equiv_pos_site_id
_symmetry_equiv_pos_as_xyz
1 x,y,z
2 -x,y,1/2-z
3 1/2+x,1/2+y,z
4 1/2-x,1/2+y,1/2-z
5 -x,-y,-z
6 x,-y,1/2+z
7 1/2-x,1/2-y,-z
8 1/2+x,1/2-y,1/2+z
_cell_length_a                   23.8309(11)
_cell_length_b                   13.3997(6)
_cell_length_c                   46.339(2)
_cell_angle_alpha                90
_cell_angle_beta                 98.8000(10)
_cell_angle_gamma                90
_cell_volume                     14623.1
loop_
_atom_site_label
_atom_site_type_symbol
_atom_site_fract_x
_atom_site_fract_y
_atom_site_fract_z
Co1 Co 0.178582(18) 0.53078(3) 0.120003(9)
Co2 Co 0.17828(2) 0.49716(3) 0.210122(9)
Co3 Co 0.017953(18) 0.03105(3) 0.043775(9)
O1 O 0.18597(10) 0.63958(18) 0.08464(5)
O2 O 0.15107(12) 0.49136(19) 0.07392(5)
O3 O 0.05223(10) 0.90057(17) 0.03332(5)
O4 O 0.01379(11) 0.87277(18) -0.01260(5)
O5 O 0.21541(11) 0.62729(18) 0.15023(5)
O6 O 0.20686(11) 0.62857(17) 0.19743(5)
O7 O 0.33163(12) 0.8906(2) 0.25594(5)
O8 O 0.29801(14) 1.0376(2) 0.24256(6)
O9 O 0.14132(12) 0.40355(19) 0.17941(5)
O10 O 0.14995(10) 0.39766(17) 0.13239(5)
O11 O 0.00646(11) 0.14298(19) 0.07796(5)
O12 O 0.04098(12) -0.0038(2) 0.09084(6)
N1 N 0.09831(11) 0.6046(2) 0.12303(6)
N2 N -0.23864(12) 0.9695(2) 0.11957(6)
N3 N 0.25871(13) 0.4241(2) 0.20751(7)
N4 N 0.59635(14) 0.0621(2) 0.21078(7)
N5 N 0.09838(11) 0.1042(2) 0.04176(6)
N6 N 0.43543(12) 0.4690(2) 0.04335(6)
C1 C 0.12734(14) 0.6190(3) 0.03836(7)
C2 C 0.10630(13) 0.7156(2) 0.03681(7)
H7 H 0.1148 0.7585 0.0527
C3 C 0.07252(13) 0.7481(2) 0.01156(7)
C4 C 0.06234(14) 0.6849(2) -0.01270(7)
H8 H 0.0412 0.7084 -0.0299
C5 C 0.08301(15) 0.5879(3) -0.01183(7)
C6 C 0.11475(15) 0.5563(3) 0.01423(7)
H9 H 0.1281 0.4909 0.0156
C7 C 0.15769(14) 0.5807(3) 0.06690(7)
C8 C 0.04445(13) 0.8488(2) 0.01051(7)
C9 C 0.0709(2) 0.5174(3) -0.03809(9)
C10 C 0.0270(4) 0.5596(5) -0.06177(14)
H10 H 0.0436 0.6125 -0.0716
H11 H -0.0044 0.5853 -0.0533
H12 H 0.0138 0.5080 -0.0755
C11 C 0.1259(3) 0.4969(5) -0.04949(15)
H13 H 0.1195 0.4484 -0.0649
H14 H 0.1536 0.4718 -0.0339
H15 H 0.1397 0.5576 -0.0569
C12 C 0.0483(3) 0.4175(4) -0.02899(12)
H16 H 0.0161 0.4288 -0.0192
H17 H 0.0775 0.3838 -0.0160
H18 H 0.0371 0.3772 -0.0460
C13 C 0.24257(15) 0.7719(2) 0.17751(7)
C14 C 0.24134(16) 0.8310(3) 0.15259(7)
H19 H 0.2277 0.8041 0.1344
C15 C 0.26029(18) 0.9297(3) 0.15457(8)
C16 C 0.2811(2) 0.9661(3) 0.18218(8)
H20 H 0.2929 1.0323 0.1841
C17 C 0.28489(18) 0.9073(3) 0.20709(8)
C18 C 0.26503(17) 0.8097(3) 0.20457(7)
H21 H 0.2669 0.7698 0.2211
C19 C 0.21957(14) 0.6674(2) 0.17459(7)
C20 C 0.30689(18) 0.9480(3) 0.23674(8)
C21 C 0.2583(3) 0.9957(3) 0.12734(10)
C22 C 0.3201(3) 1.0243(5) 0.12452(16)
H22 H 0.3419 0.9649 0.1229
H23 H 0.3366 1.0612 0.1415
H24 H 0.3203 1.0648 0.1074
C23 C 0.2273(3) 1.0906(5) 0.13120(14)
H25 H 0.2264 1.1313 0.1141
H26 H 0.2463 1.1259 0.1479
H27 H 0.1891 1.0754 0.1341
C24 C 0.2353(5) 0.9432(6) 0.10008(12)
H28 H 0.1962 0.9268 0.1003
H29 H 0.2566 0.8831 0.0985
H30 H 0.2383 0.9855 0.0837
C25 C 0.11043(14) 0.2590(2) 0.15339(7)
C26 C 0.08298(14) 0.2231(3) 0.12706(7)
H31 H 0.0798 0.2627 0.1104
C27 C 0.06006(15) 0.1274(3) 0.12551(7)
C28 C 0.06609(17) 0.0683(3) 0.15054(8)
H32 H 0.0518 0.0036 0.1492
C29 C 0.09272(18) 0.1029(3) 0.17746(8)
C30 C 0.11423(16) 0.2002(3) 0.17840(7)
H33 H 0.1315 0.2263 0.1962
C31 C 0.13634(13) 0.3616(2) 0.15522(7)
C32 C 0.03325(15) 0.0856(3) 0.09655(8)
C33 C 0.0978(2) 0.0361(4) 0.20463(10)
C34 C 0.0389(3) 0.0153(5) 0.21173(14)
H34 H 0.0413 -0.0332 0.2271
H35 H 0.0152 -0.0101 0.1947
H36 H 0.0228 0.0759 0.2179
C35 C 0.1241(3) -0.0645(4) 0.19774(14)
H37 H 0.1299 -0.1051 0.2150
H38 H 0.1599 -0.0530 0.1912
H39 H 0.0989 -0.0982 0.1827
C36 C 0.1356(4) 0.0815(6) 0.23056(12)
H40 H 0.1168 0.1378 0.2376
H41 H 0.1706 0.1028 0.2247
H42 H 0.1434 0.0326 0.2458
C37 C 0.09313(14) 0.7030(3) 0.11817(8)
H43 H 0.1246 0.7379 0.1139
C38 C 0.04358(14) 0.7551(3) 0.11920(9)
H44 H 0.0421 0.8233 0.1154
C39 C -0.00403(14) 0.7059(2) 0.12582(8)
C40 C 0.00186(14) 0.6042(3) 0.13125(9)
H45 H -0.0286 0.5678 0.1360
C41 C 0.05264(14) 0.5569(3) 0.12959(8)
H46 H 0.0552 0.4887 0.1332
C42 C -0.05830(16) 0.7540(3) 0.12668(9)
H47 H -0.0867 0.7133 0.1320
C43 C -0.07258(15) 0.8478(3) 0.12097(8)
H48 H -0.0444 0.8909 0.1167
C44 C -0.12953(15) 0.8893(3) 0.12086(8)
C45 C -0.13905(16) 0.9906(3) 0.11943(9)
H49 H -0.1090 1.0342 0.1186
C46 C -0.19333(16) 1.0276(3) 0.11921(9)
H50 H -0.1985 1.0964 0.1188
C47 C -0.22961(16) 0.8714(3) 0.12050(9)
H51 H -0.2605 0.8293 0.1208
C48 C -0.17715(16) 0.8293(3) 0.12097(10)
H52 H -0.1733 0.7602 0.1214
C49 C 0.26501(17) 0.3260(3) 0.21394(9)
H53 H 0.2340 0.2916 0.2189
C50 C 0.31473(18) 0.2743(3) 0.21349(9)
H54 H 0.3171 0.2069 0.2184
C51 C 0.36117(17) 0.3235(3) 0.20572(9)
C52 C 0.35421(17) 0.4239(3) 0.19854(9)
H55 H 0.3841 0.4596 0.1928
C53 C 0.30340(16) 0.4703(3) 0.19985(9)
H56 H 0.3001 0.5378 0.1951
C54 C 0.41641(18) 0.2768(3) 0.20495(9)
H57 H 0.4447 0.3179 0.1997
C55 C 0.43068(18) 0.1833(3) 0.21082(9)
H58 H 0.4028 0.1402 0.2154
C56 C 0.48781(18) 0.1427(3) 0.21058(9)
C57 C 0.4974(2) 0.0411(3) 0.21180(11)
H59 H 0.4675 -0.0026 0.2129
C58 C 0.5515(2) 0.0044(3) 0.21141(12)
H60 H 0.5567 -0.0644 0.2116
C59 C 0.58761(18) 0.1596(3) 0.21015(10)
H61 H 0.6185 0.2018 0.2097
C60 C 0.53479(18) 0.2015(3) 0.21012(11)
H62 H 0.5309 0.2705 0.2098
C61 C 0.14410(15) 0.0565(3) 0.03539(8)
H63 H 0.1415 -0.0118 0.0319
C62 C 0.19475(15) 0.1032(3) 0.03372(8)
H64 H 0.2251 0.0668 0.0288
C63 C 0.20073(15) 0.2045(3) 0.03939(8)
C64 C 0.15317(15) 0.2547(3) 0.04595(8)
H65 H 0.1548 0.3228 0.0499
C65 C 0.10407(15) 0.2029(3) 0.04657(8)
H66 H 0.0725 0.2381 0.0506
C66 C 0.25614(15) 0.2526(3) 0.03860(8)
H67 H 0.2850 0.2112 0.0342
C67 C 0.26975(15) 0.3470(3) 0.04342(8)
H68 H 0.2413 0.3905 0.0471
C68 C 0.32672(14) 0.3881(3) 0.04330(8)
C69 C 0.37430(16) 0.3286(3) 0.04477(10)
H69 H 0.3708 0.2596 0.0458
C70 C 0.42688(16) 0.3709(3) 0.04475(9)
H70 H 0.4582 0.3288 0.0458
C71 C 0.38933(15) 0.5266(3) 0.04211(9)
H71 H 0.3939 0.5954 0.0410
C72 C 0.33537(16) 0.4897(3) 0.04241(9)
H72 H 0.3049 0.5333 0.0420
N1B N 0.59831(11) 0.1046(2) 0.12303(6)
N2B N 0.26136(12) 0.4695(2) 0.11957(6)
C37B C 0.59313(14) 0.2030(3) 0.11817(8)
H43B H 0.6246 0.2379 0.1139
C38B C 0.54358(14) 0.2551(3) 0.11920(9)
H44B H 0.5421 0.3233 0.1154
C39B C 0.49597(14) 0.2059(2) 0.12582(8)
C40B C 0.50186(14) 0.1042(3) 0.13125(9)
H45B H 0.4714 0.0678 0.1360
C41B C 0.55264(14) 0.0569(3) 0.12959(8)
H46B H 0.5552 -0.0113 0.1332
C42B C 0.44170(16) 0.2540(3) 0.12668(9)
H47B H 0.4133 0.2133 0.1320
C43B C 0.42742(15) 0.3478(3) 0.12097(8)
H48B H 0.4556 0.3909 0.1167
C44B C 0.37047(15) 0.3893(3) 0.12086(8)
C45B C 0.36095(16) 0.4906(3) 0.11943(9)
H49B H 0.3910 0.5342 0.1186
C46B C 0.30667(16) 0.5276(3) 0.11921(9)
H50B H 0.3015 0.5964 0.1188
C47B C 0.27039(16) 0.3714(3) 0.12050(9)
H51B H 0.2395 0.3293 0.1208
C48B C 0.32285(16) 0.3293(3) 0.12097(10)
H52B H 0.3267 0.2602 0.1214
Co1B Co 0.678582(18) 0.03078(3) 0.120003(9)
Co2C Co 0.32172(2) 0.99716(3) 0.289878(9)
Co3_2 Co 0.017953(18) 1.03105(3) 0.043775(9)
O5C O 0.28459(11) 0.12729(18) 0.34977(5)
O6C O 0.29314(11) 0.12857(17) 0.30257(5)
O7C O 0.16837(12) 0.3906(2) 0.24406(5)
O8C O 0.20199(14) 0.5376(2) 0.25744(6)
C13C C 0.25743(15) 0.2719(2) 0.32249(7)
C14C C 0.25866(16) 0.3310(3) 0.34741(7)
H19C H 0.2723 0.3041 0.3656
C15C C 0.23971(18) 0.4297(3) 0.34543(8)
C16C C 0.2189(2) 0.4661(3) 0.31782(8)
H20C H 0.2071 0.5323 0.3159
C17C C 0.21511(18) 0.4073(3) 0.29291(8)
C18C C 0.23497(17) 0.3097(3) 0.29543(7)
H21C H 0.2331 0.2698 0.2789
C19C C 0.28043(14) 0.1674(2) 0.32541(7)
C20C C 0.19311(18) 0.4480(3) 0.26326(8)
C21C C 0.2417(3) 0.4957(3) 0.37266(10)
C22C C 0.1799(3) 0.5243(5) 0.37548(16)
H22C H 0.1581 0.4649 0.3771
H23C H 0.1634 0.5612 0.3585
H24C H 0.1797 0.5648 0.3926
C23C C 0.2727(3) 0.5906(5) 0.36880(14)
H25C H 0.2736 0.6313 0.3859
H26C H 0.2537 0.6259 0.3521
H27C H 0.3109 0.5754 0.3659
C24C C 0.2647(5) 0.4432(6) 0.39992(12)
H28C H 0.3038 0.4268 0.3997
H29C H 0.2434 0.3831 0.4015
H30C H 0.2617 0.4855 0.4163
N3B N -0.24129(13) 0.9241(2) 0.20751(7)
N4B N 0.09635(14) 0.5621(2) 0.21078(7)
C49B C -0.23499(17) 0.8260(3) 0.21394(9)
H53B H -0.2660 0.7916 0.2189
C50B C -0.18527(18) 0.7743(3) 0.21349(9)
H54B H -0.1829 0.7069 0.2184
C51B C -0.13883(17) 0.8235(3) 0.20572(9)
C52B C -0.14579(17) 0.9239(3) 0.19854(9)
H55B H -0.1159 0.9596 0.1928
C53B C -0.19660(16) 0.9703(3) 0.19985(9)
H56B H -0.1999 1.0378 0.1951
C54B C -0.08359(18) 0.7768(3) 0.20495(9)
H57B H -0.0553 0.8179 0.1997
C55B C -0.06932(18) 0.6833(3) 0.21082(9)
H58B H -0.0972 0.6402 0.2154
C56B C -0.01219(18) 0.6427(3) 0.21058(9)
C57B C -0.0026(2) 0.5411(3) 0.21180(11)
H59B H -0.0325 0.4974 0.2129
C58B C 0.0515(2) 0.5044(3) 0.21141(12)
H60B H 0.0567 0.4356 0.2116
C59B C 0.08761(18) 0.6596(3) 0.21015(10)
H61B H 0.1185 0.7018 0.2097
C60B C 0.03479(18) 0.7015(3) 0.21012(11)
H62B H 0.0309 0.7705 0.2098
O1_2 O 0.18597(10) -0.36042(18) 0.08464(5)
O2_2 O 0.15107(12) -0.50864(19) 0.07392(5)
O3_2 O 0.05223(10) -0.09943(17) 0.03332(5)
O4_2 O 0.01379(11) -0.12723(18) -0.01260(5)
C1_2 C 0.12734(14) -0.3810(3) 0.03836(7)
C2_2 C 0.10630(13) -0.2844(2) 0.03681(7)
H7_2 H 0.1148 -0.2415 0.0527
C3_2 C 0.07252(13) -0.2519(2) 0.01156(7)
C4_2 C 0.06234(14) -0.3151(2) -0.01270(7)
H8_2 H 0.0412 -0.2916 -0.0299
C5_2 C 0.08301(15) -0.4121(3) -0.01183(7)
C6_2 C 0.11475(15) -0.4437(3) 0.01423(7)
H9_2 H 0.1281 -0.5091 0.0156
C7_2 C 0.15769(14) -0.4193(3) 0.06690(7)
C8_2 C 0.04445(13) -0.1512(2) 0.01051(7)
C9_2 C 0.0709(2) -0.4826(3) -0.03809(9)
C10_2 C 0.0270(4) -0.4404(5) -0.06177(14)
H10_2 H 0.0436 -0.3875 -0.0716
H11_2 H -0.0044 -0.4147 -0.0533
H12_2 H 0.0138 -0.4920 -0.0755
C11_2 C 0.1259(3) -0.5031(5) -0.04949(15)
H13_2 H 0.1195 -0.5516 -0.0649
H14_2 H 0.1536 -0.5282 -0.0339
H15_2 H 0.1397 -0.4424 -0.0569
C12_2 C 0.0483(3) -0.5825(4) -0.02899(12)
H16_2 H 0.0161 -0.5712 -0.0192
H17_2 H 0.0775 -0.6162 -0.0160
H18_2 H 0.0371 -0.6228 -0.0460
N5B N -0.40162(11) -0.3958(2) 0.04176(6)
N6B N -0.06457(12) -0.0310(2) 0.04335(6)
C61B C -0.35590(15) -0.4435(3) 0.03539(8)
H63B H -0.3585 -0.5118 0.0319
C62B C -0.30525(15) -0.3968(3) 0.03372(8)
H64B H -0.2749 -0.4332 0.0288
C63B C -0.29927(15) -0.2955(3) 0.03939(8)
C64B C -0.34683(15) -0.2453(3) 0.04595(8)
H65B H -0.3452 -0.1772 0.0499
C65B C -0.39593(15) -0.2971(3) 0.04657(8)
H66B H -0.4275 -0.2619 0.0506
C66B C -0.24386(15) -0.2474(3) 0.03860(8)
H67B H -0.2150 -0.2888 0.0342
C67B C -0.23025(15) -0.1530(3) 0.04342(8)
H68B H -0.2587 -0.1095 0.0471
C68B C -0.17328(14) -0.1119(3) 0.04330(8)
C69B C -0.12570(16) -0.1714(3) 0.04477(10)
H69B H -0.1292 -0.2404 0.0458
C70B C -0.07312(16) -0.1291(3) 0.04475(9)
H70B H -0.0418 -0.1712 0.0458
C71B C -0.11067(15) 0.0266(3) 0.04211(9)
H71B H -0.1061 0.0954 0.0410
C72B C -0.16463(16) -0.0103(3) 0.04241(9)
H72B H -0.1951 0.0333 0.0420
O9B O 0.64132(12) -0.09645(19) 0.17941(5)
O10B O 0.64995(10) -0.10234(17) 0.13239(5)
O11B O 0.50646(11) -0.35702(19) 0.07796(5)
O12B O 0.54098(12) -0.5038(2) 0.09084(6)
C25B C 0.61043(14) -0.2410(2) 0.15339(7)
C26B C 0.58298(14) -0.2769(3) 0.12706(7)
H31B H 0.5798 -0.2373 0.1104
C27B C 0.56006(15) -0.3726(3) 0.12551(7)
C28B C 0.56609(17) -0.4317(3) 0.15054(8)
H32B H 0.5518 -0.4964 0.1492
C29B C 0.59272(18) -0.3971(3) 0.17746(8)
C30B C 0.61423(16) -0.2998(3) 0.17840(7)
H33B H 0.6315 -0.2737 0.1962
C31B C 0.63634(13) -0.1384(2) 0.15522(7)
C32B C 0.53325(15) -0.4144(3) 0.09655(8)
C33B C 0.5978(2) -0.4639(4) 0.20463(10)
C34B C 0.5389(3) -0.4847(5) 0.21173(14)
H34B H 0.5413 -0.5332 0.2271
H35B H 0.5152 -0.5101 0.1947
H36B H 0.5228 -0.4241 0.2179
C35B C 0.6241(3) -0.5645(4) 0.19774(14)
H37B H 0.6299 -0.6051 0.2150
H38B H 0.6599 -0.5530 0.1912
H39B H 0.5989 -0.5982 0.1827
C36B C 0.6356(4) -0.4185(6) 0.23056(12)
H40B H 0.6168 -0.3622 0.2376
H41B H 0.6706 -0.3972 0.2247
H42B H 0.6434 -0.4674 0.2458
O4D O -0.01379(11) 0.12723(18) 0.01260(5)
Co3D Co -0.017953(18) 0.96895(3) -0.043775(9)
Co1B_2 Co -0.321418(18) 1.03078(3) 0.120003(9)
Co2B Co 0.67828(2) -0.00284(3) 0.210122(9)
Co3B Co 0.517953(18) 0.53105(3) 0.043775(9)
O1B O 0.68597(10) 0.13958(18) 0.08464(5)
O2B O 0.65107(12) -0.00864(19) 0.07392(5)
O5B O 0.71541(11) 0.12729(18) 0.15023(5)
N2_2 N 0.76136(12) -0.0305(2) 0.11957(6)
O6C_2 O 0.29314(11) 1.12857(17) 0.30257(5)
O9C O 0.35868(12) 0.90355(19) 0.32059(5)
N3C N 0.24129(13) 0.9241(2) 0.29249(7)
N4A N 0.40365(14) 1.0621(2) 0.28922(7)
O11_2 O 0.00646(11) 1.14298(19) 0.07796(5)
O12_2 O 0.04098(12) 0.9962(2) 0.09084(6)
N5_2 N 0.09838(11) 1.1042(2) 0.04176(6)
N6B_2 N -0.06457(12) 0.9690(2) 0.04335(6)
O4D_2 O -0.01379(11) 1.12723(18) 0.01260(5)
Co1C Co 0.321418(18) 0.03078(3) 0.379997(9)
Co2C_2 Co 0.32172(2) -0.00284(3) 0.289878(9)
Co2B_2 Co -0.32172(2) 0.99716(3) 0.210122(9)
Co1_2 Co 0.178582(18) -0.46922(3) 0.120003(9)
Co3D_2 Co -0.017953(18) -0.03105(3) -0.043775(9)
Co3B_2 Co -0.482047(18) -0.46895(3) 0.043775(9)
Co3B_3 Co 0.517953(18) -0.46895(3) 0.043775(9)
O13 O 0.2837(2) 0.7249(4) 0.05920(13)
H1 H 0.2589 0.7220 0.0711
H2 H 0.2755 0.6934 0.0445
O14 O 0.8953(2) 0.2236(4) 0.09534(13)
H3 H 0.9256 0.2355 0.0900
H4 H 0.8685 0.2133 0.0825
O15 O 0.2412(10) 0.8297(12) 0.0073(4)
H5 H 0.2547 0.8005 0.0231
H6 H 0.2360 0.8177 -0.0109
N7 N 0.5871(3) 0.7570(6) 0.34925(18)
C73 C 0.5339(4) 0.7806(6) 0.33975(18)
H73 H 0.5091 0.7910 0.3531
C74 C 0.5138(3) 0.7907(6) 0.30968(19)
H74 H 0.4761 0.8079 0.3036
C75 C 0.5495(3) 0.7753(4) 0.28894(17)
C76 C 0.6047(3) 0.7493(7) 0.30070(19)
H75 H 0.6309 0.7371 0.2882
C77 C 0.6219(3) 0.7410(8) 0.33051(19)
H76 H 0.6593 0.7236 0.3374
C78 C 0.5331(3) 0.7844(5) 0.25795(18)
H77 H 0.5615 0.7906 0.2463
C78A C 0.4669(3) 0.7844(5) 0.24205(18)
C75A C 0.4505(3) 0.7753(4) 0.21106(17)
C74A C 0.4862(3) 0.7907(6) 0.19032(19)
C73A C 0.4661(4) 0.7806(6) 0.16025(18)
N7A N 0.4129(3) 0.7570(6) 0.15075(18)
C77A C 0.3781(3) 0.7410(8) 0.16949(19)
C76A C 0.3953(3) 0.7493(7) 0.19930(19)
H75A H 0.3691 0.7371 0.2118
H76A H 0.3407 0.7236 0.1626
H73A H 0.4909 0.7910 0.1469
H74A H 0.5239 0.8079 0.1964
H77A H 0.4385 0.7906 0.2537
loop_
_geom_bond_atom_site_label_1
_geom_bond_atom_site_label_2
_geom_bond_site_symmetry_1
_geom_bond_site_symmetry_2
Co1 O1 1_555 1_555
Co2 O6 1_555 1_555
Co3 O11 1_555 1_555
O1 C7 1_555 1_555
O2 Co1 1_555 1_555
O3 C8 1_555 1_555
O4 C8 1_555 1_555
O5 Co1 1_555 1_555
O6 C19 1_555 1_555
O7 C20 1_555 1_555
O8 C20 1_555 1_555
O9 Co2 1_555 1_555
O10 Co1 1_555 1_555
O11 C32 1_555 1_555
O12 Co3 1_555 1_555
O13 H1 1_555 1_555
H2 O13 1_555 1_555
O14 H3 1_555 1_555
H4 O14 1_555 1_555
O15 H5 1_555 1_555
H6 O15 1_555 1_555
N1 Co1 1_555 1_555
N2 C46 1_555 1_555
N3 Co2 1_555 1_555
N4 C58 1_555 1_555
N5 Co3 1_555 1_555
N6 C70 1_555 1_555
N7 C73 1_555 1_555
C1 C2 1_555 1_555
C2 H7 1_555 1_555
C3 C2 1_555 1_555
C4 C3 1_555 1_555
H8 C4 1_555 1_555
C5 C4 1_555 1_555
C6 C1 1_555 1_555
H9 C6 1_555 1_555
C7 O2 1_555 1_555
C8 C3 1_555 1_555
C9 C5 1_555 1_555
C10 C9 1_555 1_555
H10 C10 1_555 1_555
H11 C10 1_555 1_555
H12 C10 1_555 1_555
C11 C9 1_555 1_555
H13 C11 1_555 1_555
H14 C11 1_555 1_555
H15 C11 1_555 1_555
C12 C9 1_555 1_555
H16 C12 1_555 1_555
H17 C12 1_555 1_555
H18 C12 1_555 1_555
C13 C14 1_555 1_555
C14 H19 1_555 1_555
C15 C14 1_555 1_555
C16 C15 1_555 1_555
H20 C16 1_555 1_555
C17 C16 1_555 1_555
C18 C13 1_555 1_555
H21 C18 1_555 1_555
C19 O5 1_555 1_555
C20 C17 1_555 1_555
C21 C15 1_555 1_555
C22 C21 1_555 1_555
H22 C22 1_555 1_555
H23 C22 1_555 1_555
H24 C22 1_555 1_555
C23 C21 1_555 1_555
H25 C23 1_555 1_555
H26 C23 1_555 1_555
H27 C23 1_555 1_555
C24 C21 1_555 1_555
H28 C24 1_555 1_555
H29 C24 1_555 1_555
H30 C24 1_555 1_555
C25 C26 1_555 1_555
C26 H31 1_555 1_555
C27 C26 1_555 1_555
C28 C27 1_555 1_555
H32 C28 1_555 1_555
C29 C28 1_555 1_555
C30 C25 1_555 1_555
H33 C30 1_555 1_555
C31 O9 1_555 1_555
C32 O12 1_555 1_555
C33 C29 1_555 1_555
C34 C33 1_555 1_555
H34 C34 1_555 1_555
H35 C34 1_555 1_555
H36 C34 1_555 1_555
C35 C33 1_555 1_555
H37 C35 1_555 1_555
H38 C35 1_555 1_555
H39 C35 1_555 1_555
C36 C33 1_555 1_555
H40 C36 1_555 1_555
H41 C36 1_555 1_555
H42 C36 1_555 1_555
C37 N1 1_555 1_555
H43 C37 1_555 1_555
C38 C37 1_555 1_555
H44 C38 1_555 1_555
C39 C38 1_555 1_555
C40 C39 1_555 1_555
H45 C40 1_555 1_555
C41 N1 1_555 1_555
H46 C41 1_555 1_555
C42 C39 1_555 1_555
H47 C42 1_555 1_555
C43 C42 1_555 1_555
H48 C43 1_555 1_555
C44 C43 1_555 1_555
C45 C44 1_555 1_555
H49 C45 1_555 1_555
C46 C45 1_555 1_555
H50 C46 1_555 1_555
C47 N2 1_555 1_555
H51 C47 1_555 1_555
C48 C44 1_555 1_555
H52 C48 1_555 1_555
C49 N3 1_555 1_555
H53 C49 1_555 1_555
C50 C49 1_555 1_555
H54 C50 1_555 1_555
C51 C50 1_555 1_555
C52 C51 1_555 1_555
H55 C52 1_555 1_555
C53 N3 1_555 1_555
H56 C53 1_555 1_555
C54 C51 1_555 1_555
H57 C54 1_555 1_555
C55 C54 1_555 1_555
H58 C55 1_555 1_555
C56 C55 1_555 1_555
C57 C56 1_555 1_555
H59 C57 1_555 1_555
C58 C57 1_555 1_555
H60 C58 1_555 1_555
C59 N4 1_555 1_555
H61 C59 1_555 1_555
C60 C56 1_555 1_555
H62 C60 1_555 1_555
C61 N5 1_555 1_555
H63 C61 1_555 1_555
C62 C61 1_555 1_555
H64 C62 1_555 1_555
C63 C62 1_555 1_555
C64 C63 1_555 1_555
H65 C64 1_555 1_555
C65 N5 1_555 1_555
H66 C65 1_555 1_555
C66 C63 1_555 1_555
H67 C66 1_555 1_555
C67 C66 1_555 1_555
H68 C67 1_555 1_555
C68 C67 1_555 1_555
C69 C68 1_555 1_555
H69 C69 1_555 1_555
C70 C69 1_555 1_555
H70 C70 1_555 1_555
C71 N6 1_555 1_555
H71 C71 1_555 1_555
C72 C68 1_555 1_555
H72 C72 1_555 1_555
C73 H73 1_555 1_555
C74 C73 1_555 1_555
H74 C74 1_555 1_555
C75 C74 1_555 1_555
C76 C75 1_555 1_555
H75 C76 1_555 1_555
C77 N7 1_555 1_555
H76 C77 1_555 1_555
C78 C75 1_555 1_555
H77 C78 1_555 1_555
C78A C78 1_555 1_555
C75A C78A 1_555 1_555
C74A C75A 1_555 1_555
C73A C74A 1_555 1_555
N7A C73A 1_555 1_555
C77A N7A 1_555 1_555
C76A C75A 1_555 1_555
H75A C76A 1_555 1_555
H76A C77A 1_555 1_555
H73A C73A 1_555 1_555
H74A C74A 1_555 1_555
H77A C78A 1_555 1_555
N1B C37B 1_555 1_555
N2B Co1 1_555 1_555
C37B H43B 1_555 1_555
C38B C37B 1_555 1_555
H44B C38B 1_555 1_555
C39B C38B 1_555 1_555
C40B C39B 1_555 1_555
H45B C40B 1_555 1_555
C41B N1B 1_555 1_555
H46B C41B 1_555 1_555
C42B C39B 1_555 1_555
H47B C42B 1_555 1_555
C43B C42B 1_555 1_555
H48B C43B 1_555 1_555
C44B C43B 1_555 1_555
C45B C44B 1_555 1_555
H49B C45B 1_555 1_555
C46B N2B 1_555 1_555
H50B C46B 1_555 1_555
C47B N2B 1_555 1_555
H51B C47B 1_555 1_555
C48B C44B 1_555 1_555
H52B C48B 1_555 1_555
Co1B N1B 1_555 1_555
Co2C O7 1_555 1_555
Co3_2 O3 1_555 1_555
O5C C19C 1_555 1_555
O6C C19C 1_555 1_555
O7C Co2 1_555 1_555
O8C Co2 1_555 1_555
C13C C14C 1_555 1_555
C14C H19C 1_555 1_555
C15C C14C 1_555 1_555
C16C C15C 1_555 1_555
H20C C16C 1_555 1_555
C17C C16C 1_555 1_555
C18C C13C 1_555 1_555
H21C C18C 1_555 1_555
C19C C13C 1_555 1_555
C20C O7C 1_555 1_555
C21C C15C 1_555 1_555
C22C C21C 1_555 1_555
H22C C22C 1_555 1_555
H23C C22C 1_555 1_555
H24C C22C 1_555 1_555
C23C C21C 1_555 1_555
H25C C23C 1_555 1_555
H26C C23C 1_555 1_555
H27C C23C 1_555 1_555
C24C C21C 1_555 1_555
H28C C24C 1_555 1_555
H29C C24C 1_555 1_555
H30C C24C 1_555 1_555
N3B C49B 1_555 1_555
N4B Co2 1_555 1_555
C49B H53B 1_555 1_555
C50B C49B 1_555 1_555
H54B C50B 1_555 1_555
C51B C50B 1_555 1_555
C52B C51B 1_555 1_555
H55B C52B 1_555 1_555
C53B N3B 1_555 1_555
H56B C53B 1_555 1_555
C54B C51B 1_555 1_555
H57B C54B 1_555 1_555
C55B C54B 1_555 1_555
H58B C55B 1_555 1_555
C56B C55B 1_555 1_555
C57B C56B 1_555 1_555
H59B C57B 1_555 1_555
C58B N4B 1_555 1_555
H60B C58B 1_555 1_555
C59B N4B 1_555 1_555
H61B C59B 1_555 1_555
C60B C56B 1_555 1_555
H62B C60B 1_555 1_555
O1_2 C7_2 1_555 1_555
O2_2 C7_2 1_555 1_555
O3_2 Co3 1_555 1_555
O4_2 C8_2 1_555 1_555
C1_2 C2_2 1_555 1_555
C2_2 H7_2 1_555 1_555
C3_2 C2_2 1_555 1_555
C4_2 C3_2 1_555 1_555
H8_2 C4_2 1_555 1_555
C5_2 C4_2 1_555 1_555
C6_2 C1_2 1_555 1_555
H9_2 C6_2 1_555 1_555
C7_2 C1_2 1_555 1_555
C8_2 O3_2 1_555 1_555
C9_2 C5_2 1_555 1_555
C10_2 C9_2 1_555 1_555
H10_2 C10_2 1_555 1_555
H11_2 C10_2 1_555 1_555
H12_2 C10_2 1_555 1_555
C11_2 C9_2 1_555 1_555
H13_2 C11_2 1_555 1_555
H14_2 C11_2 1_555 1_555
H15_2 C11_2 1_555 1_555
C12_2 C9_2 1_555 1_555
H16_2 C12_2 1_555 1_555
H17_2 C12_2 1_555 1_555
H18_2 C12_2 1_555 1_555
N5B C61B 1_555 1_555
N6B Co3 1_555 1_555
C61B H63B 1_555 1_555
C62B C61B 1_555 1_555
H64B C62B 1_555 1_555
C63B C62B 1_555 1_555
C64B C63B 1_555 1_555
H65B C64B 1_555 1_555
C65B N5B 1_555 1_555
H66B C65B 1_555 1_555
C66B C63B 1_555 1_555
H67B C66B 1_555 1_555
C67B C66B 1_555 1_555
H68B C67B 1_555 1_555
C68B C67B 1_555 1_555
C69B C68B 1_555 1_555
H69B C69B 1_555 1_555
C70B N6B 1_555 1_555
H70B C70B 1_555 1_555
C71B N6B 1_555 1_555
H71B C71B 1_555 1_555
C72B C68B 1_555 1_555
H72B C72B 1_555 1_555
O9B C31B 1_555 1_555
O10B Co1B 1_555 1_555
O11B C32B 1_555 1_555
O12B C32B 1_555 1_555
C25B C26B 1_555 1_555
C26B H31B 1_555 1_555
C27B C26B 1_555 1_555
C28B C27B 1_555 1_555
H32B C28B 1_555 1_555
C29B C28B 1_555 1_555
C30B C25B 1_555 1_555
H33B C30B 1_555 1_555
C31B O10B 1_555 1_555
C32B C27B 1_555 1_555
C33B C29B 1_555 1_555
C34B C33B 1_555 1_555
H34B C34B 1_555 1_555
H35B C34B 1_555 1_555
H36B C34B 1_555 1_555
C35B C33B 1_555 1_555
H37B C35B 1_555 1_555
H38B C35B 1_555 1_555
H39B C35B 1_555 1_555
C36B C33B 1_555 1_555
H40B C36B 1_555 1_555
H41B C36B 1_555 1_555
H42B C36B 1_555 1_555
O4D Co3 1_555 1_555
Co3D O4 1_555 1_555
Co1B_2 N2 1_555 1_555
Co2B N4 1_555 1_555
Co3B N6 1_555 1_555
O1B Co1B 1_555 1_555
O2B Co1B 1_555 1_555
O5B Co1B 1_555 1_555
N2_2 Co1B 1_555 1_555
O6C_2 Co2C 1_555 1_555
O9C Co2C 1_555 1_555
N3C Co2C 1_555 1_555
N4A Co2C 1_555 1_555
O11_2 Co3_2 1_555 1_555
O12_2 Co3_2 1_555 1_555
N5_2 Co3_2 1_555 1_555
N6B_2 Co3_2 1_555 1_555
O4D_2 Co3_2 1_555 1_555
Co1C O5C 1_555 1_555
Co2C_2 O6C 1_555 1_555
Co2B_2 N3B 1_555 1_555
Co1_2 O1_2 1_555 1_555
Co3D_2 O4_2 1_555 1_555
Co3B_2 N5B 1_555 1_555
Co3B_3 O11B 1_555 1_555
O8 Co2C 1_555 1_555
O10 C31 1_555 1_555
C1 C7 1_555 1_555
C5 C6 1_555 1_555
C13 C19 1_555 1_555
C17 C18 1_555 1_555
C25 C31 1_555 1_555
C27 C32 1_555 1_555
C29 C30 1_555 1_555
C40 C41 1_555 1_555
C47 C48 1_555 1_555
C52 C53 1_555 1_555
C59 C60 1_555 1_555
C64 C65 1_555 1_555
C71 C72 1_555 1_555
C76 C77 1_555 1_555
C77A C76A 1_555 1_555
C40B C41B 1_555 1_555
C45B C46B 1_555 1_555
C47B C48B 1_555 1_555
O8C C20C 1_555 1_555
C17C C18C 1_555 1_555
C17C C20C 1_555 1_555
C52B C53B 1_555 1_555
C57B C58B 1_555 1_555
C59B C60B 1_555 1_555
O2_2 Co1_2 1_555 1_555
C3_2 C8_2 1_555 1_555
C5_2 C6_2 1_555 1_555
C64B C65B 1_555 1_555
C69B C70B 1_555 1_555
C71B C72B 1_555 1_555
O9B Co2B 1_555 1_555
O12B Co3B_3 1_555 1_555
C25B C31B 1_555 1_555
C29B C30B 1_555 1_555

#END
