
#######################################################################
#
#                 Cambridge Crystallographic Data Centre
#                                CCDC 
#
#######################################################################
#
# If this CIF has been generated from an entry in the Cambridge 
# Structural Database, then it will include bibliographic, chemical, 
# crystal, experimental, refinement or atomic coordinate data resulting 
# from the CCDC's data processing and validation procedures.
#
#######################################################################

data_COQJID
_symmetry_cell_setting           monoclinic
_symmetry_space_group_name_H-M   'P 21/m'
_symmetry_Int_Tables_number      11
_space_group_name_Hall           '-P 2yb'
loop_
_symmetry_equiv_pos_site_id
_symmetry_equiv_pos_as_xyz
1 x,y,z
2 -x,1/2+y,-z
3 -x,-y,-z
4 x,1/2-y,z
_cell_length_a                   12.3582(5)
_cell_length_b                   33.9509(15)
_cell_length_c                   12.9507(6)
_cell_angle_alpha                90
_cell_angle_beta                 99.890(4)
_cell_angle_gamma                90
_cell_volume                     5353
loop_
_atom_site_label
_atom_site_type_symbol
_atom_site_fract_x
_atom_site_fract_y
_atom_site_fract_z
I2 I 0.3403(3) 0.2500 0.34579(13)
Mn1 Mn 0.20143(7) 0.06808(3) 0.10695(7)
Mn2 Mn 0.0000 0.0000 0.0000
Rh1 Rh 0.72855(9) -0.2500 0.19066(8)
I1 I 0.87112(16) -0.2500 0.40123(15)
C1 C 0.3017(5) 0.1444(2) 0.2476(5)
H1 H 0.3283 0.1686 0.2866
H2 H 0.2390 0.1518 0.1928
N1 N 0.3882(4) 0.12882(17) 0.1982(4)
N2 N 0.3624(4) 0.09860(17) 0.1306(4)
C2 C 0.4573(5) 0.0876(2) 0.1033(5)
C3 C 0.5427(5) 0.1120(2) 0.1530(5)
C4 C 0.4974(5) 0.1373(2) 0.2145(6)
C5 C 0.4565(6) 0.0538(2) 0.0277(6)
H3 H 0.4517 0.0289 0.0648
H4 H 0.5242 0.0542 -0.0021
H5 H 0.3930 0.0563 -0.0288
C6 C 0.5505(6) 0.1684(3) 0.2892(8)
H6 H 0.6295 0.1692 0.2880
H7 H 0.5384 0.1623 0.3603
H8 H 0.5180 0.1941 0.2680
C7 C 0.6603(5) 0.1075(2) 0.1421(5)
C8 C 0.7100(5) 0.0703(2) 0.1498(6)
H9 H 0.6689 0.0480 0.1649
C9 C 0.8152(5) 0.0655(2) 0.1362(6)
H10 H 0.8464 0.0398 0.1418
C10 C 0.8783(6) 0.0968(2) 0.1145(6)
C11 C 0.8285(6) 0.1348(3) 0.1063(7)
H11 H 0.8688 0.1571 0.0901
C12 C 0.7244(5) 0.1390(2) 0.1215(6)
H12 H 0.6934 0.1647 0.1179
C13 C 0.9930(5) 0.0905(2) 0.1012(5)
O1 O 1.0272(3) 0.05505(15) 0.0964(4)
O2 O 1.0580(3) 0.11958(16) 0.0999(4)
N3 N 0.2641(4) 0.11713(18) 0.3185(4)
N4 N 0.2116(4) 0.08395(18) 0.2805(4)
C14 C 0.1829(5) 0.0652(2) 0.3613(5)
C15 C 0.2135(6) 0.0872(2) 0.4532(5)
C16 C 0.2696(5) 0.1201(2) 0.4236(5)
C17 C 0.1244(7) 0.0270(2) 0.3474(6)
H13 H 0.1025 0.0215 0.2725
H14 H 0.0589 0.0282 0.3806
H15 H 0.1731 0.0060 0.3800
C18 C 0.3270(8) 0.1537(3) 0.4862(6)
H16 H 0.3214 0.1504 0.5602
H17 H 0.2925 0.1786 0.4603
H18 H 0.4046 0.1540 0.4786
C19 C 0.1975(6) 0.0770(2) 0.5614(5)
C20 C 0.2005(7) 0.0395(3) 0.5979(6)
H19 H 0.2145 0.0184 0.5539
C21 C 0.1827(7) 0.0314(3) 0.7025(6)
H20 H 0.1838 0.0050 0.7271
C22 C 0.1641(5) 0.0618(3) 0.7669(5)
C23 C 0.1632(6) 0.0994(3) 0.7303(6)
H21 H 0.1537 0.1205 0.7761
C24 C 0.1757(7) 0.1078(3) 0.6283(6)
H22 H 0.1697 0.1342 0.6035
C25 C 0.1508(5) 0.0536(2) 0.8763(5)
O3 O 0.1054(4) 0.02191(17) 0.8952(4)
O4 O 0.1862(4) 0.07925(17) 0.9437(3)
C26 C 0.5823(11) -0.2500 0.3652(10)
H23 H 0.6603 -0.2500 0.3994
H24 H 0.5368 -0.2500 0.4211
N5 N 0.5605(6) -0.21553(18) 0.3051(5)
N6 N 0.6229(6) -0.20742(19) 0.2306(5)
C27 C 0.5833(7) -0.1724(2) 0.1851(6)
C28 C 0.4983(7) -0.1590(2) 0.2356(6)
C29 C 0.4848(7) -0.1868(2) 0.3092(6)
C30 C 0.6248(7) -0.1538(3) 0.0930(7)
H25 H 0.6832 -0.1349 0.1188
H26 H 0.5643 -0.1402 0.0484
H27 H 0.6540 -0.1744 0.0523
C31 C 0.4079(6) -0.1891(2) 0.3875(7)
H28 H 0.3533 -0.2098 0.3664
H29 H 0.3706 -0.1638 0.3902
H30 H 0.4499 -0.1953 0.4569
C32 C 0.4322(6) -0.1234(2) 0.2103(6)
C33 C 0.3207(7) -0.1256(2) 0.1780(8)
H31 H 0.2866 -0.1507 0.1765
C34 C 0.2566(7) -0.0937(3) 0.1480(8)
H32 H 0.1819 -0.0971 0.1166
C35 C 0.3008(6) -0.0564(2) 0.1635(5)
C36 C 0.4154(6) -0.0529(2) 0.2008(6)
H33 H 0.4481 -0.0275 0.2098
C37 C 0.4797(6) -0.0859(2) 0.2243(6)
H34 H 0.5561 -0.0832 0.2499
C38 C 0.2329(5) -0.0217(2) 0.1323(5)
O5 O 0.2754(4) 0.01333(14) 0.1398(4)
O6 O 0.1303(4) -0.02695(17) 0.1008(4)
N7 N 0.8300(11) -0.2100(3) 0.1567(8)
C39 C 0.9056(7) -0.1933(3) 0.1525(11)
C40 C 0.9954(13) -0.1676(5) 0.1153(15)
H35 H 0.9633 -0.1425 0.0884
H36 H 1.0247 -0.1815 0.0597
H37 H 1.0548 -0.1627 0.1744
C41 C 0.6580 -0.2500 0.0450
C42 C 0.7320 -0.2500 -0.0416
O7 O 0.5572 -0.2500 0.0521
N5C N 0.5605(6) -0.28447(18) 0.3051(5)
N6C N 0.6229(6) -0.29258(19) 0.2306(5)
C27C C 0.5833(7) -0.3276(2) 0.1851(6)
C28C C 0.4983(7) -0.3410(2) 0.2356(6)
C29C C 0.4848(7) -0.3132(2) 0.3092(6)
C30C C 0.6248(7) -0.3462(3) 0.0930(7)
H25C H 0.6832 -0.3651 0.1188
H26C H 0.5643 -0.3598 0.0484
H27C H 0.6540 -0.3256 0.0523
C31C C 0.4079(6) -0.3109(2) 0.3875(7)
H28C H 0.3533 -0.2902 0.3664
H29C H 0.3706 -0.3362 0.3902
H30C H 0.4499 -0.3047 0.4569
C32C C 0.4322(6) -0.3766(2) 0.2103(6)
C33C C 0.3207(7) -0.3744(2) 0.1780(8)
H31C H 0.2866 -0.3493 0.1765
C34C C 0.2566(7) -0.4063(3) 0.1480(8)
H32C H 0.1819 -0.4029 0.1166
C35C C 0.3008(6) -0.4436(2) 0.1635(5)
C36C C 0.4154(6) -0.4471(2) 0.2008(6)
H33C H 0.4481 -0.4725 0.2098
C37C C 0.4797(6) -0.4141(2) 0.2243(6)
H34C H 0.5561 -0.4168 0.2499
C38C C 0.2329(5) -0.4783(2) 0.1323(5)
O5C O 0.2754(4) -0.51333(14) 0.1398(4)
O6C O 0.1303(4) -0.47305(17) 0.1008(4)
Mn1_2 Mn -0.79857(7) 0.06808(3) 0.10695(7)
C1_2 C -0.6983(5) 0.1444(2) 0.2476(5)
H1_2 H -0.6717 0.1686 0.2866
H2_2 H -0.7610 0.1518 0.1928
N1_2 N -0.6118(4) 0.12882(17) 0.1982(4)
N2_2 N -0.6376(4) 0.09860(17) 0.1306(4)
C2_2 C -0.5427(5) 0.0876(2) 0.1033(5)
C3_2 C -0.4573(5) 0.1120(2) 0.1530(5)
C4_2 C -0.5026(5) 0.1373(2) 0.2145(6)
C5_2 C -0.5435(6) 0.0538(2) 0.0277(6)
H3_2 H -0.5483 0.0289 0.0648
H4_2 H -0.4758 0.0542 -0.0021
H5_2 H -0.6070 0.0563 -0.0288
C6_2 C -0.4495(6) 0.1684(3) 0.2892(8)
H6_2 H -0.3705 0.1692 0.2880
H7_2 H -0.4616 0.1623 0.3603
H8_2 H -0.4820 0.1941 0.2680
C7_2 C -0.3397(5) 0.1075(2) 0.1421(5)
C8_2 C -0.2900(5) 0.0703(2) 0.1498(6)
H9_2 H -0.3311 0.0480 0.1649
C9_2 C -0.1848(5) 0.0655(2) 0.1362(6)
H10_2 H -0.1536 0.0398 0.1418
C10_2 C -0.1217(6) 0.0968(2) 0.1145(6)
C11_2 C -0.1715(6) 0.1348(3) 0.1063(7)
H11_2 H -0.1312 0.1571 0.0901
C12_2 C -0.2756(5) 0.1390(2) 0.1215(6)
H12_2 H -0.3066 0.1647 0.1179
C13_2 C -0.0070(5) 0.0905(2) 0.1012(5)
O1_2 O 0.0272(3) 0.05505(15) 0.0964(4)
O2_2 O 0.0580(3) 0.11958(16) 0.0999(4)
N3_2 N -0.7359(4) 0.11713(18) 0.3185(4)
N4_2 N -0.7884(4) 0.08395(18) 0.2805(4)
C14_2 C -0.8171(5) 0.0652(2) 0.3613(5)
C15_2 C -0.7865(6) 0.0872(2) 0.4532(5)
C16_2 C -0.7304(5) 0.1201(2) 0.4236(5)
C17_2 C -0.8756(7) 0.0270(2) 0.3474(6)
H13_2 H -0.8975 0.0215 0.2725
H14_2 H -0.9411 0.0282 0.3806
H15_2 H -0.8269 0.0060 0.3800
C18_2 C -0.6730(8) 0.1537(3) 0.4862(6)
H16_2 H -0.6786 0.1504 0.5602
H17_2 H -0.7075 0.1786 0.4603
H18_2 H -0.5954 0.1540 0.4786
C19_2 C -0.8025(6) 0.0770(2) 0.5614(5)
C20_2 C -0.7995(7) 0.0395(3) 0.5979(6)
H19_2 H -0.7855 0.0184 0.5539
C21_2 C -0.8173(7) 0.0314(3) 0.7025(6)
H20_2 H -0.8162 0.0050 0.7271
C22_2 C -0.8359(5) 0.0618(3) 0.7669(5)
C23_2 C -0.8368(6) 0.0994(3) 0.7303(6)
H21_2 H -0.8463 0.1205 0.7761
C24_2 C -0.8243(7) 0.1078(3) 0.6283(6)
H22_2 H -0.8303 0.1342 0.6035
C25_2 C -0.8492(5) 0.0536(2) 0.8763(5)
O3_2 O -0.8946(4) 0.02191(17) 0.8952(4)
O4_2 O -0.8138(4) 0.07925(17) 0.9437(3)
N7C N 0.8300(11) -0.2900(3) 0.1567(8)
C39C C 0.9056(7) -0.3067(3) 0.1525(11)
C40C C 0.9954(13) -0.3324(5) 0.1153(15)
H35C H 0.9633 -0.3575 0.0884
H36C H 1.0247 -0.3185 0.0597
H37C H 1.0548 -0.3373 0.1744
Mn1_3 Mn -0.79857(7) 0.06808(3) 1.10695(7)
Mn1_4 Mn 0.20143(7) 0.06808(3) 1.10695(7)
Mn1_5 Mn 1.20143(7) 0.06808(3) 0.10695(7)
Mn1C Mn 0.20143(7) -0.56808(3) 0.10695(7)
Mn2_2 Mn -1.0000 0.0000 1.0000
Mn2_3 Mn 0.0000 0.0000 1.0000
Mn2_4 Mn 1.0000 0.0000 0.0000
Mn2A Mn 0.0000 -0.5000 0.0000
O1_3 O -0.9728(3) 0.05505(15) 0.0964(4)
O1B O -0.0272(3) -0.05505(15) -0.0964(4)
O3_3 O 0.1054(4) 0.02191(17) -0.1048(4)
O3B O -0.1054(4) -0.02191(17) 0.1048(4)
O4_3 O -0.8138(4) 0.07925(17) -0.0563(3)
O4_4 O 0.1862(4) 0.07925(17) -0.0563(3)
O5_2 O -0.7246(4) 0.01333(14) 0.1398(4)
O6B O -0.1303(4) 0.02695(17) -0.1008(4)
I3? I 0.6028(7) -0.2500 -0.0299(4)
C43? C 0.8300(11) -0.2100(3) 0.1567(8)
O8? O 0.9056(7) -0.1933(3) 0.1525(11)
O9? O 0.8451 -0.2168 0.3811
C44? C 0.8058 -0.2500 0.3444
C45? C 0.8451 -0.2900 0.3966
H38? H 0.7693 -0.2982 0.3979
H39? H 0.8795 -0.2814 0.4668
H40? H 0.8863 -0.3122 0.3746
H41? H 0.3576 0.1717 0.4392
H42? H 0.3865 0.1434 0.5391
H43? H 0.2744 0.1680 0.5208
H44? H 0.7715 -0.2751 -0.0398
H45? H 0.7850 -0.2283 -0.0287
H46? H 0.6859 -0.2466 -0.1106
loop_
_geom_bond_atom_site_label_1
_geom_bond_atom_site_label_2
_geom_bond_site_symmetry_1
_geom_bond_site_symmetry_2
Mn1 N2 1_555 1_555
Mn2 O6 1_555 1_555
Rh1 I1 1_555 1_555
C1 H1 1_555 1_555
H2 C1 1_555 1_555
N1 C1 1_555 1_555
N2 N1 1_555 1_555
C2 N2 1_555 1_555
C3 C2 1_555 1_555
C4 N1 1_555 1_555
C5 C2 1_555 1_555
H3 C5 1_555 1_555
H4 C5 1_555 1_555
H5 C5 1_555 1_555
C6 C4 1_555 1_555
H6 C6 1_555 1_555
H7 C6 1_555 1_555
H8 C6 1_555 1_555
C7 C3 1_555 1_555
C8 C7 1_555 1_555
H9 C8 1_555 1_555
C9 C8 1_555 1_555
H10 C9 1_555 1_555
C10 C9 1_555 1_555
C11 C10 1_555 1_555
H11 C11 1_555 1_555
C12 C7 1_555 1_555
H12 C12 1_555 1_555
C13 C10 1_555 1_555
O1 C13 1_555 1_555
O2 C13 1_555 1_555
N3 C1 1_555 1_555
N4 Mn1 1_555 1_555
C14 N4 1_555 1_555
C15 C14 1_555 1_555
C16 N3 1_555 1_555
C17 C14 1_555 1_555
H13 C17 1_555 1_555
H14 C17 1_555 1_555
H15 C17 1_555 1_555
C18 C16 1_555 1_555
H16 C18 1_555 1_555
H17 C18 1_555 1_555
H18 C18 1_555 1_555
C19 C15 1_555 1_555
C20 C19 1_555 1_555
H19 C20 1_555 1_555
C21 C20 1_555 1_555
H20 C21 1_555 1_555
C22 C21 1_555 1_555
C23 C22 1_555 1_555
H21 C23 1_555 1_555
C24 C19 1_555 1_555
H22 C24 1_555 1_555
C25 C22 1_555 1_555
O3 C25 1_555 1_555
O4 C25 1_555 1_555
C26 H23 1_555 1_555
H24 C26 1_555 1_555
N5 C26 1_555 1_555
N6 Rh1 1_555 1_555
C27 N6 1_555 1_555
C28 C27 1_555 1_555
C29 N5 1_555 1_555
C30 C27 1_555 1_555
H25 C30 1_555 1_555
H26 C30 1_555 1_555
H27 C30 1_555 1_555
C31 C29 1_555 1_555
H28 C31 1_555 1_555
H29 C31 1_555 1_555
H30 C31 1_555 1_555
C32 C28 1_555 1_555
C33 C32 1_555 1_555
H31 C33 1_555 1_555
C34 C33 1_555 1_555
H32 C34 1_555 1_555
C35 C34 1_555 1_555
C36 C35 1_555 1_555
H33 C36 1_555 1_555
C37 C32 1_555 1_555
H34 C37 1_555 1_555
C38 C35 1_555 1_555
O5 Mn1 1_555 1_555
O6 C38 1_555 1_555
N7 Rh1 1_555 1_555
C39 N7 1_555 1_555
C40 C39 1_555 1_555
H35 C40 1_555 1_555
H36 C40 1_555 1_555
H37 C40 1_555 1_555
C41 Rh1 1_555 1_555
C42 C41 1_555 1_555
O7 C41 1_555 1_555
N5C C26 1_555 1_555
N6C Rh1 1_555 1_555
C27C N6C 1_555 1_555
C28C C27C 1_555 1_555
C29C N5C 1_555 1_555
C30C C27C 1_555 1_555
H25C C30C 1_555 1_555
H26C C30C 1_555 1_555
H27C C30C 1_555 1_555
C31C C29C 1_555 1_555
H28C C31C 1_555 1_555
H29C C31C 1_555 1_555
H30C C31C 1_555 1_555
C32C C28C 1_555 1_555
C33C C32C 1_555 1_555
H31C C33C 1_555 1_555
C34C C33C 1_555 1_555
H32C C34C 1_555 1_555
C35C C34C 1_555 1_555
C36C C35C 1_555 1_555
H33C C36C 1_555 1_555
C37C C32C 1_555 1_555
H34C C37C 1_555 1_555
C38C C35C 1_555 1_555
O5C C38C 1_555 1_555
O6C C38C 1_555 1_555
Mn1_2 N2_2 1_555 1_555
C1_2 H1_2 1_555 1_555
H2_2 C1_2 1_555 1_555
N1_2 C1_2 1_555 1_555
N2_2 N1_2 1_555 1_555
C2_2 N2_2 1_555 1_555
C3_2 C2_2 1_555 1_555
C4_2 N1_2 1_555 1_555
C5_2 C2_2 1_555 1_555
H3_2 C5_2 1_555 1_555
H4_2 C5_2 1_555 1_555
H5_2 C5_2 1_555 1_555
C6_2 C4_2 1_555 1_555
H6_2 C6_2 1_555 1_555
H7_2 C6_2 1_555 1_555
H8_2 C6_2 1_555 1_555
C7_2 C3_2 1_555 1_555
C8_2 C7_2 1_555 1_555
H9_2 C8_2 1_555 1_555
C9_2 C8_2 1_555 1_555
H10_2 C9_2 1_555 1_555
C10_2 C9_2 1_555 1_555
C11_2 C10_2 1_555 1_555
H11_2 C11_2 1_555 1_555
C12_2 C7_2 1_555 1_555
H12_2 C12_2 1_555 1_555
C13_2 C10_2 1_555 1_555
O1_2 Mn1 1_555 1_555
O2_2 C13_2 1_555 1_555
N3_2 C1_2 1_555 1_555
N4_2 Mn1_2 1_555 1_555
C14_2 N4_2 1_555 1_555
C15_2 C14_2 1_555 1_555
C16_2 N3_2 1_555 1_555
C17_2 C14_2 1_555 1_555
H13_2 C17_2 1_555 1_555
H14_2 C17_2 1_555 1_555
H15_2 C17_2 1_555 1_555
C18_2 C16_2 1_555 1_555
H16_2 C18_2 1_555 1_555
H17_2 C18_2 1_555 1_555
H18_2 C18_2 1_555 1_555
C19_2 C15_2 1_555 1_555
C20_2 C19_2 1_555 1_555
H19_2 C20_2 1_555 1_555
C21_2 C20_2 1_555 1_555
H20_2 C21_2 1_555 1_555
C22_2 C21_2 1_555 1_555
C23_2 C22_2 1_555 1_555
H21_2 C23_2 1_555 1_555
C24_2 C19_2 1_555 1_555
H22_2 C24_2 1_555 1_555
C25_2 C22_2 1_555 1_555
O3_2 C25_2 1_555 1_555
O4_2 C25_2 1_555 1_555
N7C Rh1 1_555 1_555
C39C N7C 1_555 1_555
C40C C39C 1_555 1_555
H35C C40C 1_555 1_555
H36C C40C 1_555 1_555
H37C C40C 1_555 1_555
Mn1_3 O4_2 1_555 1_555
Mn1_4 O4 1_555 1_555
Mn1_5 O1 1_555 1_555
Mn1C O5C 1_555 1_555
Mn2_2 O3_2 1_555 1_555
Mn2_3 O3 1_555 1_555
Mn2_4 O1 1_555 1_555
Mn2A O6C 1_555 1_555
O1_3 Mn1_2 1_555 1_555
O1B Mn2 1_555 1_555
O3_3 Mn2 1_555 1_555
O3B Mn2 1_555 1_555
O4_3 Mn1_2 1_555 1_555
O4_4 Mn1 1_555 1_555
O5_2 Mn1_2 1_555 1_555
O6B Mn2 1_555 1_555
Mn2 O1_2 1_555 1_555
C3 C4 1_555 1_555
C11 C12 1_555 1_555
N3 N4 1_555 1_555
C15 C16 1_555 1_555
C23 C24 1_555 1_555
N5 N6 1_555 1_555
C28 C29 1_555 1_555
C36 C37 1_555 1_555
C38 O5 1_555 1_555
N5C N6C 1_555 1_555
C28C C29C 1_555 1_555
C36C C37C 1_555 1_555
C3_2 C4_2 1_555 1_555
C11_2 C12_2 1_555 1_555
C13_2 O1_2 1_555 1_555
N3_2 N4_2 1_555 1_555
C15_2 C16_2 1_555 1_555
C23_2 C24_2 1_555 1_555

#END
