
#######################################################################
#
#                 Cambridge Crystallographic Data Centre
#                                CCDC 
#
#######################################################################
#
# If this CIF has been generated from an entry in the Cambridge 
# Structural Database, then it will include bibliographic, chemical, 
# crystal, experimental, refinement or atomic coordinate data resulting 
# from the CCDC's data processing and validation procedures.
#
#######################################################################

data_COWMAD
_symmetry_cell_setting           monoclinic
_symmetry_space_group_name_H-M   'P 21/n'
_symmetry_Int_Tables_number      14
_space_group_name_Hall           '-P 2yn'
loop_
_symmetry_equiv_pos_site_id
_symmetry_equiv_pos_as_xyz
1 x,y,z
2 1/2-x,1/2+y,1/2-z
3 -x,-y,-z
4 1/2+x,1/2-y,1/2+z
_cell_length_a                   9.5983(10)
_cell_length_b                   13.8789(15)
_cell_length_c                   15.3443(17)
_cell_angle_alpha                90
_cell_angle_beta                 93.451(2)
_cell_angle_gamma                90
_cell_volume                     2040.37
loop_
_atom_site_label
_atom_site_type_symbol
_atom_site_fract_x
_atom_site_fract_y
_atom_site_fract_z
Dy1 Dy 0.95753(4) 0.11128(4) 0.08579(3)
C1 C 0.6030(10) -0.1265(8) 0.2024(7)
H1 H 0.6045 -0.0911 0.2569
H2 H 0.6897 -0.1622 0.2010
C2 C 0.4804(10) -0.1971(8) 0.1982(7)
H3 H 0.4846 -0.2352 0.1447
C3 C 0.3406(9) -0.1425(8) 0.1940(7)
H4 H 0.2642 -0.1882 0.1878
H5 H 0.3317 -0.1071 0.2480
C4 C 0.3319(9) -0.0727(8) 0.1174(7)
H6 H 0.3373 -0.1104 0.0637
C5 C 0.4533(9) -0.0035(8) 0.1228(7)
H7 H 0.4479 0.0366 0.1742
H8 H 0.4478 0.0382 0.0719
C6 C 0.5921(10) -0.0568(8) 0.1273(7)
H9 H 0.5906 -0.0966 0.0745
C7 C 0.7191(10) 0.0089(8) 0.1223(6)
C8 C 0.4963(10) -0.2654(8) 0.2756(7)
C9 C 0.1941(9) -0.0187(7) 0.1118(6)
C10 C 0.8999(16) 0.3159(11) -0.0196(11)
H10 H 0.9969 0.3171 -0.0182
C11 C 0.905(3) 0.4659(18) -0.1030(19)
H11 H 1.0040 0.4578 -0.0953
H12 H 0.8787 0.5263 -0.0782
H13 H 0.8770 0.4652 -0.1642
C12 C 0.687(2) 0.3921(15) -0.0666(19)
H14 H 0.6498 0.3381 -0.0365
H15 H 0.6545 0.3900 -0.1270
H16 H 0.6561 0.4508 -0.0408
O1 O 0.7050(7) 0.0945(6) 0.1025(5)
O2 O 1.1288(7) 0.1663(6) -0.0108(5)
O3 O 0.8391(7) -0.0298(5) 0.1353(5)
O5 O 0.1062(7) -0.0375(6) 0.0493(5)
O6 O 0.1674(8) 0.0444(6) 0.1652(5)
O7 O 0.5771(8) -0.3362(6) 0.2676(5)
O8 O 0.4339(8) -0.2521(6) 0.3422(5)
O9 O 0.8496(9) 0.2485(6) 0.0155(6)
N1 N 0.8360(17) 0.3882(10) -0.0598(8)
Dy1_2 Dy -0.04247(4) 0.11128(4) 0.08579(3)
Dy1B Dy 0.04247(4) -0.11128(4) -0.08579(3)
Dy1A Dy 0.54247(4) -0.38872(4) 0.41421(3)
O5_2 O 1.1062(7) -0.0375(6) 0.0493(5)
O5B O 0.8938(7) 0.0375(6) -0.0493(5)
O6_2 O 1.1674(8) 0.0444(6) 0.1652(5)
O7A O 0.9229(8) 0.1638(6) 0.2324(5)
O8A O 1.0661(8) 0.2479(6) 0.1578(5)
C13 C 0.3784(14) 0.2584(12) 0.1125(10)
H17 H 0.3386 0.2016 0.1313
C14 C 0.538(3) 0.3858(17) 0.1462(17)
H18 H 0.5001 0.4097 0.0911
H19 H 0.6364 0.3743 0.1428
H20 H 0.5240 0.4326 0.1909
C15 C 0.5149(16) 0.2530(13) 0.2473(10)
H21 H 0.4613 0.1953 0.2537
H22 H 0.5001 0.2958 0.2951
H23 H 0.6121 0.2369 0.2472
O10 O 0.3385(10) 0.2879(9) 0.0392(7)
N2 N 0.4714(11) 0.2996(9) 0.1662(8)
O4 O 0.2692(16) 0.3978(11) 0.8813(10)
loop_
_geom_bond_atom_site_label_1
_geom_bond_atom_site_label_2
_geom_bond_site_symmetry_1
_geom_bond_site_symmetry_2
Dy1 O1 1_555 1_555
C1 H1 1_555 1_555
H2 C1 1_555 1_555
C2 C1 1_555 1_555
H3 C2 1_555 1_555
C3 C2 1_555 1_555
H4 C3 1_555 1_555
H5 C3 1_555 1_555
C4 C3 1_555 1_555
H6 C4 1_555 1_555
C5 C4 1_555 1_555
H7 C5 1_555 1_555
H8 C5 1_555 1_555
C6 C1 1_555 1_555
H9 C6 1_555 1_555
C7 C6 1_555 1_555
C8 C2 1_555 1_555
C9 C4 1_555 1_555
C10 H10 1_555 1_555
C11 H11 1_555 1_555
H12 C11 1_555 1_555
H13 C11 1_555 1_555
C12 H14 1_555 1_555
H15 C12 1_555 1_555
H16 C12 1_555 1_555
C13 H17 1_555 1_555
C14 H18 1_555 1_555
H19 C14 1_555 1_555
H20 C14 1_555 1_555
C15 H21 1_555 1_555
H22 C15 1_555 1_555
H23 C15 1_555 1_555
O1 C7 1_555 1_555
O2 Dy1 1_555 1_555
O3 Dy1 1_555 1_555
O5 C9 1_555 1_555
O6 C9 1_555 1_555
O7 C8 1_555 1_555
O8 C8 1_555 1_555
O9 Dy1 1_555 1_555
O10 C13 1_555 1_555
N1 C10 1_555 1_555
N2 C13 1_555 1_555
Dy1_2 O5 1_555 1_555
Dy1B O5 1_555 1_555
Dy1A O7 1_555 1_555
O5_2 Dy1 1_555 1_555
O5B Dy1 1_555 1_555
O6_2 Dy1 1_555 1_555
O7A Dy1 1_555 1_555
O8A Dy1 1_555 1_555
C5 C6 1_555 1_555
C7 O3 1_555 1_555
C10 O9 1_555 1_555
C11 N1 1_555 1_555
C12 N1 1_555 1_555
C14 N2 1_555 1_555
C15 N2 1_555 1_555
O6 Dy1_2 1_555 1_555
O8 Dy1A 1_555 1_555

#END
