
#######################################################################
#
#                 Cambridge Crystallographic Data Centre
#                                CCDC 
#
#######################################################################
#
# If this CIF has been generated from an entry in the Cambridge 
# Structural Database, then it will include bibliographic, chemical, 
# crystal, experimental, refinement or atomic coordinate data resulting 
# from the CCDC's data processing and validation procedures.
#
#######################################################################

data_COWMUX
_symmetry_cell_setting           monoclinic
_symmetry_space_group_name_H-M   'P 21/n'
_symmetry_Int_Tables_number      14
_space_group_name_Hall           '-P 2yn'
loop_
_symmetry_equiv_pos_site_id
_symmetry_equiv_pos_as_xyz
1 x,y,z
2 1/2-x,1/2+y,1/2-z
3 -x,-y,-z
4 1/2+x,1/2-y,1/2+z
_cell_length_a                   9.5430(12)
_cell_length_b                   13.8215(17)
_cell_length_c                   15.2993(19)
_cell_angle_alpha                90
_cell_angle_beta                 93.388(2)
_cell_angle_gamma                90
_cell_volume                     2014.43
loop_
_atom_site_label
_atom_site_type_symbol
_atom_site_fract_x
_atom_site_fract_y
_atom_site_fract_z
Tm1 Tm 0.45677(6) 0.88863(4) 0.08556(4)
C1 C 0.1062(13) 1.1272(11) 0.2052(10)
H1 H 0.1076 1.0916 0.2599
H2 H 0.1931 1.1635 0.2037
C2 C 0.0936(13) 1.0565(10) 0.1277(9)
H3 H 0.0931 1.0970 0.0751
C3 C -0.0468(12) 1.0041(10) 0.1223(9)
H4 H -0.0521 0.9625 0.0711
H5 H -0.0532 0.9635 0.1736
C4 C -0.1686(13) 1.0735(11) 0.1168(10)
H6 H -0.1626 1.1119 0.0633
C5 C -0.1601(13) 1.1424(10) 0.1941(10)
H7 H -0.1692 1.1062 0.2478
H8 H -0.2370 1.1882 0.1883
C6 C -0.0202(14) 1.1972(12) 0.1993(10)
H9 H -0.0151 1.2351 0.1454
C7 C 0.2189(12) 0.9915(11) 0.1228(8)
C8 C -0.3076(12) 1.0203(9) 0.1111(8)
C9 C -0.0033(14) 1.2666(10) 0.2763(9)
C10 C 0.401(2) 0.6844(16) -0.0180(15)
H10 H 0.4982 0.6830 -0.0176
C11 C 0.184(3) 0.609(2) -0.064(3)
H11 H 0.1466 0.6629 -0.0338
H12 H 0.1547 0.5497 -0.0369
H13 H 0.1509 0.6095 -0.1240
C12 C 0.400(4) 0.535(2) -0.101(3)
H14 H 0.5005 0.5427 -0.0949
H15 H 0.3699 0.5346 -0.1616
H16 H 0.3747 0.4750 -0.0744
O1 O 0.6261(10) 0.8359(8) -0.0092(7)
O2 O 0.3406(9) 1.0284(7) 0.1347(6)
O3 O 0.2064(9) 0.9047(7) 0.1014(7)
O5 O 0.0794(11) 1.3369(8) 0.2699(7)
O6 O -0.0669(12) 1.2528(8) 0.3437(7)
O7 O -0.3377(10) 0.9564(8) 0.1638(7)
O8 O -0.3942(9) 1.0385(7) 0.0472(6)
O9 O 0.3497(12) 0.7513(9) 0.0182(8)
N1 N 0.335(2) 0.6137(14) -0.0577(11)
Tm1A Tm 0.04323(6) 1.38863(4) 0.41444(4)
Tm1_2 Tm -0.54323(6) 0.88863(4) 0.08556(4)
Tm1B Tm -0.45677(6) 1.11137(4) -0.08556(4)
O5A O 0.4206(11) 0.8369(8) 0.2301(7)
O6A O 0.5669(12) 0.7528(8) 0.1563(7)
O7_2 O 0.6623(10) 0.9564(8) 0.1638(7)
O8_2 O 0.6058(9) 1.0385(7) 0.0472(6)
O8B O 0.3942(9) 0.9615(7) -0.0472(6)
C13 C 0.8763(17) 0.7417(14) 0.1126(13)
H17 H 0.8345 0.7978 0.1324
C14 C 1.035(4) 0.612(2) 0.148(2)
H18 H 0.9981 0.5878 0.0924
H19 H 1.0167 0.5668 0.1931
H20 H 1.1344 0.6218 0.1459
C15 C 1.015(2) 0.7474(17) 0.2468(14)
H21 H 0.9667 0.8079 0.2517
H22 H 1.1143 0.7588 0.2481
H23 H 0.9938 0.7062 0.2948
O10 O 0.8367(15) 0.7131(12) 0.0381(9)
N2 N 0.9700(14) 0.7012(12) 0.1653(10)
O4 O 0.270(2) 0.8965(15) 0.3834(16)
loop_
_geom_bond_atom_site_label_1
_geom_bond_atom_site_label_2
_geom_bond_site_symmetry_1
_geom_bond_site_symmetry_2
Tm1 O1 1_555 1_555
C1 H1 1_555 1_555
H2 C1 1_555 1_555
C2 C1 1_555 1_555
H3 C2 1_555 1_555
C3 C2 1_555 1_555
H4 C3 1_555 1_555
H5 C3 1_555 1_555
C4 C3 1_555 1_555
H6 C4 1_555 1_555
C5 C4 1_555 1_555
H7 C5 1_555 1_555
H8 C5 1_555 1_555
C6 C1 1_555 1_555
H9 C6 1_555 1_555
C7 C2 1_555 1_555
C8 C4 1_555 1_555
C9 C6 1_555 1_555
C10 H10 1_555 1_555
C11 H11 1_555 1_555
H12 C11 1_555 1_555
H13 C11 1_555 1_555
C12 H14 1_555 1_555
H15 C12 1_555 1_555
H16 C12 1_555 1_555
C13 H17 1_555 1_555
C14 H18 1_555 1_555
H19 C14 1_555 1_555
H20 C14 1_555 1_555
C15 H21 1_555 1_555
H22 C15 1_555 1_555
H23 C15 1_555 1_555
O2 Tm1 1_555 1_555
O3 Tm1 1_555 1_555
O5 C9 1_555 1_555
O6 C9 1_555 1_555
O7 C8 1_555 1_555
O8 C8 1_555 1_555
O9 Tm1 1_555 1_555
O10 C13 1_555 1_555
N1 C10 1_555 1_555
N2 C13 1_555 1_555
Tm1A O5 1_555 1_555
Tm1_2 O7 1_555 1_555
Tm1B O8 1_555 1_555
O5A Tm1 1_555 1_555
O6A Tm1 1_555 1_555
O7_2 Tm1 1_555 1_555
O8_2 Tm1 1_555 1_555
O8B Tm1 1_555 1_555
C5 C6 1_555 1_555
C7 O2 1_555 1_555
C7 O3 1_555 1_555
C10 O9 1_555 1_555
C11 N1 1_555 1_555
C12 N1 1_555 1_555
C14 N2 1_555 1_555
C15 N2 1_555 1_555
O6 Tm1A 1_555 1_555
O8 Tm1_2 1_555 1_555

#END
