
#######################################################################
#
#                 Cambridge Crystallographic Data Centre
#                                CCDC 
#
#######################################################################
#
# If this CIF has been generated from an entry in the Cambridge 
# Structural Database, then it will include bibliographic, chemical, 
# crystal, experimental, refinement or atomic coordinate data resulting 
# from the CCDC's data processing and validation procedures.
#
#######################################################################

data_COXQUB
_symmetry_cell_setting           monoclinic
_symmetry_space_group_name_H-M   'C 2'
_symmetry_Int_Tables_number      5
_space_group_name_Hall           'C 2y'
loop_
_symmetry_equiv_pos_site_id
_symmetry_equiv_pos_as_xyz
1 x,y,z
2 -x,y,-z
3 1/2+x,1/2+y,z
4 1/2-x,1/2+y,-z
_cell_length_a                   24.624(1)
_cell_length_b                   9.7554(5)
_cell_length_c                   13.5956(7)
_cell_angle_alpha                90
_cell_angle_beta                 120.663(1)
_cell_angle_gamma                90
_cell_volume                     2809.26
loop_
_atom_site_label
_atom_site_type_symbol
_atom_site_fract_x
_atom_site_fract_y
_atom_site_fract_z
Cd1 Cd -0.25648(2) -0.9333 0.14355(3)
Cd2 Cd -0.24591(2) -1.42694(8) 0.39728(3)
S1 S -0.30848(7) -1.0858(2) 0.3116(1)
S2 S -0.18544(7) -1.6083(2) 0.2768(1)
O1 O -0.2724(2) -0.9741(4) 0.2949(4)
O2 O -0.3758(2) -1.0694(6) 0.2338(5)
O3 O -0.2866(2) -1.2192(4) 0.2900(4)
O4 O -0.2928(2) -1.0815(5) 0.4311(4)
O5 O -0.2005(3) -1.6267(6) 0.3685(5)
O6 O -0.1173(3) -1.6084(8) 0.3292(6)
O7 O -0.2146(4) -1.4789(6) 0.2238(6)
O8 O -0.2140(3) -1.7187(6) 0.1946(5)
O9 O -0.2354(3) -0.9054(6) -0.0035(5)
O10 O -0.3010(3) -1.1554(6) 0.0765(5)
O11 O -0.2956(2) -1.3478(5) 0.4941(4)
N1 N -0.3534(2) -0.8284(6) 0.0312(5)
N2 N -0.6577(2) -0.5242(5) -0.2802(5)
N3 N -0.1595(2) -1.0374(6) 0.2381(5)
N4 N 0.1493(2) -1.3266(5) 0.5045(4)
C1 C -0.4062(3) -0.9030(8) -0.0146(8)
C2 C -0.4655(3) -0.8461(7) -0.0793(7)
C3 C -0.4726(3) -0.7077(7) -0.0983(5)
C4 C -0.4184(3) -0.6277(7) -0.0496(6)
C5 C -0.3592(3) -0.6930(7) 0.0125(6)
C6 C -0.5374(3) -0.6448(6) -0.1611(5)
C7 C -0.5916(3) -0.7223(6) -0.2101(5)
C8 C -0.6502(3) -0.6598(7) -0.2670(6)
C9 C -0.6054(3) -0.4473(9) -0.2315(7)
C10 C -0.5452(3) -0.5012(7) -0.1711(7)
C11 C -0.1509(3) -1.1760(7) 0.2467(6)
C12 C -0.0922(3) -1.2361(6) 0.2979(6)
C13 C -0.0381(3) -1.1548(6) 0.3401(5)
C14 C -0.0465(3) -1.0119(7) 0.3335(7)
C15 C -0.1071(3) -0.9610(6) 0.2823(7)
C16 C 0.1399(3) -1.1919(7) 0.5032(6)
C17 C 0.0800(3) -1.1321(7) 0.4501(6)
C18 C 0.0265(3) -1.2157(6) 0.3956(5)
C19 C 0.0364(3) -1.3548(6) 0.3960(6)
C20 C 0.0979(3) -1.4075(7) 0.4507(6)
H1 H -0.4030 -0.9990 -0.0029
H2 H -0.5011 -0.9045 -0.1117
H3 H -0.4206 -0.5299 -0.0592
H4 H -0.3220 -0.6394 0.0428
H5 H -0.5886 -0.8186 -0.2053
H6 H -0.6868 -0.7160 -0.2975
H7 H -0.6100 -0.3504 -0.2392
H8 H -0.5091 -0.4429 -0.1368
H9 H -0.1870 -1.2336 0.2150
H10 H -0.0888 -1.3331 0.3049
H11 H -0.0111 -0.9522 0.3642
H12 H -0.1120 -0.8642 0.2785
H13 H 0.1758 -1.1341 0.5401
H14 H 0.0757 -1.0346 0.4518
H15 H 0.0016 -1.4153 0.3597
H16 H 0.1036 -1.5037 0.4501
H17 H -0.2459 -0.9763 -0.0581
H18 H -0.2168 -0.8230 -0.0091
H19 H -0.3092 -1.1864 0.0038
H20 H -0.3103 -1.2126 0.1223
H21 H -0.2730 -1.2927 0.5603
H22 H -0.3385 -1.3708 0.4666
O4C O -0.2072(2) -1.5815(5) 0.5689(4)
O8_2 O -0.2140(3) -0.7187(6) 0.1946(5)
Cd2C Cd -0.25409(2) -0.92694(8) 0.60272(3)
Cd1_2 Cd -0.25648(2) -1.9333 0.14355(3)
N2A N -0.3423(2) -1.5242(5) 0.2802(5)
N4A N -0.1493(2) -1.3266(5) 0.4955(4)
Cd2A Cd -0.75409(2) -0.42694(8) -0.39728(3)
Cd2A_2 Cd 0.24591(2) -1.42694(8) 0.60272(3)
O12 O 0.0205(5) -0.671(1) 0.237(1)
O13 O -0.0976(6) -0.706(2) 0.112(2)
O14 O -0.5751(5) -0.278(1) -0.4561(9)
loop_
_geom_bond_atom_site_label_1
_geom_bond_atom_site_label_2
_geom_bond_site_symmetry_1
_geom_bond_site_symmetry_2
Cd1 O1 1_555 1_555
Cd2 O3 1_555 1_555
S1 O1 1_555 1_555
S2 O5 1_555 1_555
O2 S1 1_555 1_555
O3 S1 1_555 1_555
O4 S1 1_555 1_555
O5 Cd2 1_555 1_555
O6 S2 1_555 1_555
O7 S2 1_555 1_555
O8 S2 1_555 1_555
O9 Cd1 1_555 1_555
O10 Cd1 1_555 1_555
O11 Cd2 1_555 1_555
N1 Cd1 1_555 1_555
N2 C8 1_555 1_555
N3 Cd1 1_555 1_555
N4 C16 1_555 1_555
C1 N1 1_555 1_555
C2 C1 1_555 1_555
C3 C2 1_555 1_555
C4 C3 1_555 1_555
C5 N1 1_555 1_555
C6 C3 1_555 1_555
C7 C6 1_555 1_555
C8 C7 1_555 1_555
C9 N2 1_555 1_555
C10 C6 1_555 1_555
C11 N3 1_555 1_555
C12 C11 1_555 1_555
C13 C12 1_555 1_555
C14 C13 1_555 1_555
C15 N3 1_555 1_555
C16 C17 1_555 1_555
C17 C18 1_555 1_555
C18 C13 1_555 1_555
C19 C18 1_555 1_555
C20 N4 1_555 1_555
H1 C1 1_555 1_555
H2 C2 1_555 1_555
H3 C4 1_555 1_555
H4 C5 1_555 1_555
H5 C7 1_555 1_555
H6 C8 1_555 1_555
H7 C9 1_555 1_555
H8 C10 1_555 1_555
H9 C11 1_555 1_555
H10 C12 1_555 1_555
H11 C14 1_555 1_555
H12 C15 1_555 1_555
H13 C16 1_555 1_555
H14 C17 1_555 1_555
H15 C19 1_555 1_555
H16 C20 1_555 1_555
H17 O9 1_555 1_555
H18 O9 1_555 1_555
H19 O10 1_555 1_555
H20 O10 1_555 1_555
H21 O11 1_555 1_555
H22 O11 1_555 1_555
O4C Cd2 1_555 1_555
O8_2 Cd1 1_555 1_555
Cd2C O4 1_555 1_555
Cd1_2 O8 1_555 1_555
N2A Cd2 1_555 1_555
N4A Cd2 1_555 1_555
Cd2A N2 1_555 1_555
Cd2A_2 N4 1_555 1_555
C4 C5 1_555 1_555
C9 C10 1_555 1_555
C14 C15 1_555 1_555
C19 C20 1_555 1_555

#END
