
#######################################################################
#
#                 Cambridge Crystallographic Data Centre
#                                CCDC 
#
#######################################################################
#
# If this CIF has been generated from an entry in the Cambridge 
# Structural Database, then it will include bibliographic, chemical, 
# crystal, experimental, refinement or atomic coordinate data resulting 
# from the CCDC's data processing and validation procedures.
#
#######################################################################

data_COYCID
_symmetry_cell_setting           triclinic
_symmetry_space_group_name_H-M   'P -1'
_symmetry_Int_Tables_number      2
_space_group_name_Hall           '-P 1'
loop_
_symmetry_equiv_pos_site_id
_symmetry_equiv_pos_as_xyz
1 x,y,z
2 -x,-y,-z
_cell_length_a                   17.1042(16)
_cell_length_b                   18.3052(10)
_cell_length_c                   20.236(2)
_cell_angle_alpha                75.305(11)
_cell_angle_beta                 86.882(12)
_cell_angle_gamma                67.409(8)
_cell_volume                     5651.74
loop_
_atom_site_label
_atom_site_type_symbol
_atom_site_fract_x
_atom_site_fract_y
_atom_site_fract_z
Mo1 Mo 0.96428(10) 0.68625(10) -0.64154(9)
Mo2 Mo 0.45771(13) 0.34444(12) -0.21161(8)
Cu1 Cu 0.92140(17) 0.84796(17) -0.67788(17)
Cu2 Cu 0.98722(14) 0.69872(14) -0.77457(12)
Cu3 Cu 0.80292(14) 0.70844(15) -0.66860(12)
Cu4 Cu 0.62626(18) 0.30457(17) -0.21973(13)
Cu5 Cu 0.47400(16) 1.34405(18) -1.08125(12)
Cu6 Cu 0.50140(15) 0.81742(16) -0.83481(12)
S1 S 1.0372(3) 0.7556(3) -0.7080(3)
S2 S 0.8470(3) 0.7805(4) -0.6112(3)
S3 S 0.9222(3) 0.6226(3) -0.7072(3)
S4 S 0.5352(4) 0.4005(4) -0.1690(3)
S5 S 0.5476(5) 0.2478(4) -0.2591(3)
S6 S 0.4012(3) 1.2823(4) -1.1222(2)
S7 S 0.5588(3) 0.9021(3) -0.8028(3)
S8 S 0.8819(5) 0.1124(5) -0.0991(5)
O1 O 1.0258(10) 0.6165(11) -0.5694(9)
O2 O 0.3773(13) 0.4191(11) -0.2714(8)
N1 N 0.9577(19) 0.9049(14) -0.6167(17)
N2 N 0.6557(12) 0.3775(10) -0.3065(10)
N3 N 0.7630(10) 0.6288(11) -0.5920(8)
N4 N 0.5588(12) 1.2582(13) -1.0037(8)
N5 N 0.8454(11) 0.9400(10) -0.7609(12)
N6 N 1.3936(11) 0.4224(13) -1.0285(8)
N7 N 1.0813(9) 0.6380(9) -0.8281(8)
N8 N 0.5874(9) 1.0959(10) -1.0953(8)
N9 N 0.8993(11) 0.7854(11) -0.8494(9)
N10 N 0.6992(11) 0.7766(11) -0.7264(9)
N11 N 0.7367(15) 0.2294(14) -0.1742(11)
C1 C 0.935(2) 0.9927(17) -0.646(2)
H13 H 0.9105 1.0234 -0.6899
C2 C 0.9565(18) 1.0227(17) -0.5942(19)
H14 H 0.9417 1.0801 -0.6049
C3 C 0.996(2) 0.9802(17) -0.5314(19)
C4 C 1.023(2) 0.8966(17) -0.513(2)
H15 H 1.0508 0.8632 -0.4701
C5 C 1.004(2) 0.8668(18) -0.564(2)
H16 H 1.0293 0.8091 -0.5570
C6 C 0.7331(14) 0.3626(15) -0.3277(12)
H17 H 0.7763 0.3143 -0.3022
C7 C 0.7579(14) 0.4068(15) -0.3805(11)
H18 H 0.8164 0.3940 -0.3884
C8 C 0.6970(17) 0.4714(15) -0.4231(13)
C9 C 0.6127(19) 0.492(2) -0.407(2)
H19 H 0.5683 0.5390 -0.4322
C10 C 0.598(2) 0.4368(19) -0.350(2)
H20 H 0.5406 0.4430 -0.3432
C11 C 0.7181(16) 0.5293(14) -0.4823(12)
C12 C 0.7958(18) 0.535(2) -0.4833(14)
H21 H 0.8370 0.5026 -0.4469
C13 C 0.812(2) 0.586(2) -0.5366(16)
H22 H 0.8648 0.5919 -0.5343
C14 C 0.6925(15) 0.6207(17) -0.5904(12)
H23 H 0.6552 0.6522 -0.6294
C15 C 0.6638(16) 0.5756(15) -0.5432(13)
H24 H 0.6100 0.5732 -0.5485
C16 C 0.6425(14) 1.2241(14) -1.0181(12)
H25 H 0.6603 1.2424 -1.0623
C17 C 0.6981(12) 1.1667(13) -0.9717(12)
H26 H 0.7559 1.1470 -0.9829
C18 C 0.6764(12) 1.1323(12) -0.9053(12)
C19 C 0.5882(15) 1.1689(16) -0.8939(12)
H27 H 0.5671 1.1516 -0.8509
C20 C 0.5351(12) 1.2278(17) -0.9437(12)
H28 H 0.4765 1.2488 -0.9350
C21 C 0.7335(14) 1.0702(14) -0.8532(12)
C22 C 0.8163(12) 1.0583(12) -0.8466(13)
H29 H 0.8376 1.0943 -0.8771
C23 C 0.8713(15) 0.9940(15) -0.7957(17)
H30 H 0.9268 0.9909 -0.7874
C24 C 0.7655(17) 0.9455(12) -0.7664(13)
H31 H 0.7492 0.9044 -0.7377
C25 C 0.7078(16) 1.0077(15) -0.8113(13)
H32 H 0.6517 1.0103 -0.8154
C26 C 1.3096(14) 0.4586(15) -1.0479(12)
H33 H 1.2923 0.4533 -1.0897
C27 C 1.2497(12) 0.5015(11) -1.0111(11)
H34 H 1.1917 0.5228 -1.0260
C28 C 1.2727(14) 0.5150(14) -0.9500(11)
C29 C 1.3610(13) 0.4823(15) -0.9334(12)
H35 H 1.3814 0.4900 -0.8940
C30 C 1.4142(13) 0.4413(16) -0.9726(12)
H36 H 1.4729 0.4231 -0.9609
C31 C 1.2072(11) 0.5583(12) -0.9087(10)
C32 C 1.1345(14) 0.5427(14) -0.8971(13)
H37 H 1.1260 0.5043 -0.9169
C33 C 1.0738(14) 0.5823(12) -0.8568(10)
H38 H 1.0246 0.5698 -0.8490
C34 C 1.1514(13) 0.6533(13) -0.8399(10)
H39 H 1.1574 0.6937 -0.8214
C35 C 1.2156(13) 0.6137(12) -0.8774(12)
H40 H 1.2659 0.6245 -0.8818
C36 C 0.6721(11) 1.0629(11) -1.1093(9)
H41 H 0.6893 1.0825 -1.1534
C37 C 0.7309(12) 1.0043(11) -1.0633(9)
H42 H 0.7887 0.9869 -1.0745
C38 C 0.7099(12) 0.9692(11) -1.0008(10)
C39 C 0.6273(12) 0.9990(12) -0.9849(9)
H43 H 0.6100 0.9758 -0.9421
C40 C 0.5673(12) 1.0648(16) -1.0325(10)
H44 H 0.5106 1.0878 -1.0193
C41 C 0.7755(11) 0.9050(11) -0.9484(9)
C42 C 0.8565(13) 0.9094(12) -0.9418(10)
H45 H 0.8700 0.9527 -0.9697
C43 C 0.9135(12) 0.8480(10) -0.8933(11)
H46 H 0.9680 0.8495 -0.8901
C44 C 0.8226(11) 0.7832(12) -0.8569(10)
H47 H 0.8102 0.7398 -0.8277
C45 C 0.7604(13) 0.8415(11) -0.9055(10)
H48 H 0.7073 0.8371 -0.9087
C46 C 0.6399(12) 0.8317(11) -0.7586(9)
C47 C 0.794(2) 0.183(2) -0.1438(15)
Mo1A Mo 1.03572(10) 1.31375(10) -0.35846(9)
Mo2_2 Mo 0.45771(13) 1.34444(12) -1.21161(8)
Mo2A Mo 0.54229(13) 0.65556(12) -0.78839(8)
Cu1A Cu 1.07860(17) 1.15204(17) -0.32212(17)
Cu2A Cu 1.01278(14) 1.30128(14) -0.22543(12)
Cu2_2 Cu -0.01278(14) 1.69872(14) -0.77457(12)
Cu2A_2 Cu 0.01278(14) 1.30128(14) -1.22543(12)
Cu3A Cu 1.19708(14) 1.29156(15) -0.33140(12)
Cu3A_2 Cu 0.19708(14) 1.29156(15) -1.33140(12)
Cu4_2 Cu 0.62626(18) 1.30457(17) -1.21973(13)
Cu4A Cu 0.37374(18) 0.69543(17) -0.78027(13)
Cu4A_2 Cu 1.37374(18) 1.69543(17) -0.78027(13)
Cu5_2 Cu 1.47400(16) 0.34405(18) -1.08125(12)
Cu5_3 Cu 0.47400(16) 0.34405(18) -0.08125(12)
Cu5A Cu 0.52600(16) 0.65595(18) -0.91875(12)
Cu5A_2 Cu 1.52600(16) 0.65595(18) 0.08125(12)
Cu6A Cu 0.49860(15) 1.18258(16) -1.16519(12)
Cu6A_2 Cu 0.49860(15) 0.18258(16) -0.16519(12)
S1A S 0.9628(3) 1.2444(3) -0.2920(3)
S2A S 1.1530(3) 1.2195(4) -0.3888(3)
S3A S 1.0778(3) 1.3774(3) -0.2928(3)
S4_2 S 0.5352(4) 1.4005(4) -1.1690(3)
S4_3 S 1.5352(4) 0.4005(4) -1.1690(3)
S5A S 0.4524(5) 0.7522(4) -0.7409(3)
S5_2 S 0.5476(5) 1.2478(4) -1.2591(3)
S6A S 0.5988(3) 0.7177(4) -0.8778(2)
S6_2 S 0.4012(3) 0.2823(4) -0.1222(2)
S6_3 S 1.4012(3) 0.2823(4) -1.1222(2)
S7A S 0.4412(3) 1.0979(3) -1.1972(3)
S8_2 S 0.8819(5) 1.1124(5) -1.0991(5)
O1A O 0.9742(10) 1.3835(11) -0.4306(9)
O2_2 O 0.3773(13) 1.4191(11) -1.2714(8)
N1A N 1.0423(19) 1.0951(14) -0.3833(17)
N2A N 1.3443(12) 1.6225(10) -0.6935(10)
N2_2 N 0.6557(12) 1.3775(10) -1.3065(10)
N3A N 1.2370(10) 1.3712(11) -0.4080(8)
N4A N 1.4412(12) 0.7418(13) 0.0037(8)
N4_2 N 1.5588(12) 0.2582(13) -1.0037(8)
N5A N 1.1546(11) 1.0600(10) -0.2391(12)
N6_2 N 0.3936(11) 1.4224(13) -1.0285(8)
N7_2 N 0.0813(9) 1.6380(9) -0.8281(8)
N7A N 0.9187(9) 1.3620(9) -0.1719(8)
N8A N 0.4126(9) 0.9041(10) -0.9047(8)
N9A N 0.1007(11) 1.2146(11) -1.1506(9)
N9A_2 N 1.1007(11) 1.2146(11) -0.1506(9)
N10A N 0.3008(11) 1.2234(11) -1.2736(9)
N10A_2 N 1.3008(11) 1.2234(11) -0.2736(9)
N11_2 N 0.7367(15) 1.2294(14) -1.1742(11)
C1A C 1.065(2) 1.0073(17) -0.354(2)
H13A H 1.0895 0.9766 -0.3101
C2A C 1.0435(18) 0.9773(17) -0.4058(19)
H14A H 1.0583 0.9199 -0.3951
C3A C 1.004(2) 1.0198(17) -0.4686(19)
C4A C 0.977(2) 1.1034(17) -0.487(2)
H15A H 0.9492 1.1368 -0.5299
C5A C 0.996(2) 1.1332(18) -0.436(2)
H16A H 0.9707 1.1909 -0.4430
C6A C 1.2669(14) 1.6374(15) -0.6723(12)
H17A H 1.2237 1.6857 -0.6978
C7A C 1.2421(14) 1.5932(15) -0.6195(11)
H18A H 1.1836 1.6060 -0.6116
C8A C 1.3030(17) 1.5286(15) -0.5769(13)
C9A C 1.3873(19) 1.508(2) -0.593(2)
H19A H 1.4317 1.4610 -0.5678
C10A C 1.402(2) 1.5632(19) -0.650(2)
H20A H 1.4594 1.5570 -0.6568
C11A C 1.2819(16) 1.4707(14) -0.5177(12)
C12A C 1.2042(18) 1.465(2) -0.5167(14)
H21A H 1.1630 1.4974 -0.5531
C13A C 1.188(2) 1.414(2) -0.4634(16)
H22A H 1.1352 1.4081 -0.4657
C14A C 1.3075(15) 1.3793(17) -0.4096(12)
H23A H 1.3448 1.3478 -0.3706
C15A C 1.3362(16) 1.4244(15) -0.4568(13)
H24A H 1.3900 1.4268 -0.4515
C16A C 1.3575(14) 0.7759(14) 0.0181(12)
H25A H 1.3397 0.7576 0.0623
C17A C 1.3019(12) 0.8333(13) -0.0283(12)
H26A H 1.2441 0.8530 -0.0171
C18A C 1.3236(12) 0.8677(12) -0.0947(12)
C19A C 1.4118(15) 0.8311(16) -0.1061(12)
H27A H 1.4329 0.8484 -0.1491
C20A C 1.4649(12) 0.7722(17) -0.0563(12)
H28A H 1.5235 0.7512 -0.0650
C21A C 1.2665(14) 0.9298(14) -0.1468(12)
C22A C 1.1837(12) 0.9417(12) -0.1534(13)
H29A H 1.1624 0.9057 -0.1229
C23A C 1.1287(15) 1.0060(15) -0.2043(17)
H30A H 1.0732 1.0091 -0.2126
C24A C 1.2345(17) 1.0545(12) -0.2336(13)
H31A H 1.2508 1.0956 -0.2623
C25A C 1.2922(16) 0.9923(15) -0.1887(13)
H32A H 1.3483 0.9897 -0.1846
C26_2 C 0.3096(14) 1.4586(15) -1.0479(12)
H33_2 H 0.2923 1.4533 -1.0897
C27_2 C 0.2497(12) 1.5015(11) -1.0111(11)
H34_2 H 0.1917 1.5228 -1.0260
C28_2 C 0.2727(14) 1.5150(14) -0.9500(11)
C29_2 C 0.3610(13) 1.4823(15) -0.9334(12)
H35_2 H 0.3814 1.4900 -0.8940
C30_2 C 0.4142(13) 1.4413(16) -0.9726(12)
H36_2 H 0.4729 1.4231 -0.9609
C31_2 C 0.2072(11) 1.5583(12) -0.9087(10)
C32_2 C 0.1345(14) 1.5427(14) -0.8971(13)
H37_2 H 0.1260 1.5043 -0.9169
C33_2 C 0.0738(14) 1.5823(12) -0.8568(10)
H38_2 H 0.0246 1.5698 -0.8490
C34_2 C 0.1514(13) 1.6533(13) -0.8399(10)
H39_2 H 0.1574 1.6937 -0.8214
C35_2 C 0.2156(13) 1.6137(12) -0.8774(12)
H40_2 H 0.2659 1.6245 -0.8818
C36A C 0.3279(11) 0.9371(11) -0.8907(9)
H41A H 0.3107 0.9175 -0.8466
C37A C 0.2691(12) 0.9957(11) -0.9367(9)
H42A H 0.2113 1.0131 -0.9255
C38A C 0.2901(12) 1.0308(11) -0.9992(10)
C39A C 0.3727(12) 1.0010(12) -1.0151(9)
H43A H 0.3900 1.0242 -1.0579
C40A C 0.4327(12) 0.9352(16) -0.9675(10)
H44A H 0.4894 0.9122 -0.9807
C41A C 0.2245(11) 1.0950(11) -1.0516(9)
C42A C 0.1435(13) 1.0906(12) -1.0582(10)
H45A H 0.1300 1.0473 -1.0303
C43A C 0.0865(12) 1.1520(10) -1.1067(11)
H46A H 0.0320 1.1505 -1.1099
C44A C 0.1774(11) 1.2168(12) -1.1431(10)
H47A H 0.1898 1.2602 -1.1723
C45A C 0.2396(13) 1.1585(11) -1.0945(10)
H48A H 0.2927 1.1629 -1.0913
C46A C 0.3601(12) 1.1683(11) -1.2414(9)
C47_2 C 0.794(2) 1.183(2) -1.1438(15)
N12 N -0.137(3) 0.842(3) -0.178(3)
H1 H -0.1536 0.8875 -0.2107
H2 H -0.1558 0.8034 -0.1788
C48 C -0.089(2) 0.832(3) -0.1336(19)
C49 C -0.058(3) 0.889(2) -0.130(2)
H49 H -0.0743 0.9393 -0.1648
C50 C -0.004(3) 0.875(3) -0.077(3)
H50 H 0.0168 0.9157 -0.0736
C51 C 0.021(3) 0.803(3) -0.028(2)
H51 H 0.0581 0.7932 0.0090
C52 C -0.007(3) 0.743(3) -0.033(2)
H52 H 0.0146 0.6904 -0.0018
C53 C -0.068(3) 0.760(3) -0.083(3)
H53 H -0.0938 0.7225 -0.0834
N13 N 0.151(4) 0.092(3) -0.633(3)
H3 H 0.1010 0.1160 -0.6183
H4 H 0.1913 0.1110 -0.6314
C54 C 0.168(4) 0.027(2) -0.658(3)
C55 C 0.122(3) -0.015(3) -0.668(3)
H54 H 0.0635 0.0025 -0.6587
C56 C 0.160(3) -0.083(3) -0.690(3)
H55 H 0.1272 -0.1100 -0.7023
C57 C 0.245(3) -0.113(2) -0.696(3)
H56 H 0.2727 -0.1659 -0.7041
C58 C 0.289(3) -0.069(3) -0.689(3)
H57 H 0.3469 -0.0847 -0.7008
C59 C 0.252(3) -0.001(3) -0.666(3)
H58 H 0.2848 0.0259 -0.6548
N14 N 0.408(4) 0.064(3) -0.568(3)
H5 H 0.3550 0.0769 -0.5577
H6 H 0.4303 0.1020 -0.5758
C60 C 0.461(3) -0.020(2) -0.572(2)
C61 C 0.441(3) -0.088(3) -0.562(3)
H59 H 0.3846 -0.0838 -0.5509
C62 C 0.502(3) -0.162(2) -0.569(3)
H60 H 0.4877 -0.2092 -0.5614
C63 C 0.583(3) -0.168(2) -0.586(3)
H61 H 0.6241 -0.2182 -0.5926
C64 C 0.605(3) -0.101(3) -0.594(4)
H62 H 0.6620 -0.1061 -0.6019
C65 C 0.543(3) -0.025(2) -0.592(4)
H63 H 0.5558 0.0228 -0.6027
N15 N 0.335(2) 0.572(2) -0.239(2)
H7 H 0.3901 0.5434 -0.2382
H8 H 0.3014 0.5729 -0.2705
C66 C 0.3007(14) 0.6198(13) -0.1882(14)
C67 C 0.3532(14) 0.619(2) -0.1397(17)
H64 H 0.4124 0.5883 -0.1391
C68 C 0.3209(14) 0.662(2) -0.0923(19)
H65 H 0.3573 0.6607 -0.0577
C69 C 0.2364(14) 0.708(2) -0.0942(19)
H66 H 0.2140 0.7390 -0.0617
C70 C 0.1840(14) 0.708(2) -0.1427(19)
H67 H 0.1245 0.7369 -0.1421
C71 C 0.2165(14) 0.668(2) -0.1920(18)
H68 H 0.1808 0.6734 -0.2288
N16 N 0.621(4) 0.756(3) -0.427(3)
H9 H 0.5750 0.7986 -0.4441
H10 H 0.6701 0.7512 -0.4450
C72 C 0.616(3) 0.697(2) -0.3741(19)
C73 C 0.531(3) 0.724(3) -0.360(3)
H69 H 0.4918 0.7748 -0.3872
C74 C 0.502(3) 0.678(3) -0.307(3)
H70 H 0.4444 0.6973 -0.2952
C75 C 0.559(4) 0.602(3) -0.270(3)
H71 H 0.5385 0.5671 -0.2365
C76 C 0.645(4) 0.577(3) -0.281(3)
H72 H 0.6838 0.5285 -0.2523
C77 C 0.673(3) 0.623(3) -0.334(3)
H73 H 0.7316 0.6051 -0.3433
N17 N 0.756(5) 0.965(3) -0.644(3)
H11 H 0.7880 0.9219 -0.6123
H12 H 0.7426 0.9592 -0.6828
C78 C 0.729(7) 1.034(4) -0.632(5)
C79 C 0.707(6) 1.117(4) -0.687(4)
H74 H 0.6844 1.1301 -0.7326
C80 C 0.730(7) 1.172(4) -0.653(5)
H75 H 0.7409 1.2159 -0.6827
C81 C 0.736(6) 1.166(3) -0.580(4)
H76 H 0.7361 1.2100 -0.5634
C82 C 0.742(6) 1.088(3) -0.532(4)
H77 H 0.7320 1.0830 -0.4844
C83 C 0.764(7) 1.018(4) -0.562(5)
H78 H 0.8004 0.9647 -0.5378
C84 C 0.1593(12) 0.4054(11) -0.1176(9)
H79 H 0.1829 0.3520 -0.0881
C85 C 0.1607(11) 0.5016(11) -0.2214(9)
C86 C 0.0613(16) 0.5431(12) -0.1381(11)
H80 H 0.0235 0.5866 -0.1206
C87 C 0.1930(14) 0.4235(11) -0.1803(10)
H81 H 0.2384 0.3820 -0.1950
C88 C 0.0912(14) 0.4654(12) -0.0980(10)
H82 H 0.0653 0.4523 -0.0564
N18 N 0.1965(16) 0.5196(16) -0.2857(14)
H83 H 0.2388 0.4809 -0.2986
H84 H 0.1763 0.5695 -0.3125
C89 C 0.0863(14) 0.5584(12) -0.2046(11)
H85 H 0.0536 0.6065 -0.2379
loop_
_geom_bond_atom_site_label_1
_geom_bond_atom_site_label_2
_geom_bond_site_symmetry_1
_geom_bond_site_symmetry_2
Mo1 S1 1_555 1_555
Mo2 S4 1_555 1_555
Cu1 S1 1_555 1_555
Cu2 S1 1_555 1_555
Cu3 S2 1_555 1_555
Cu4 S4 1_555 1_555
Cu5 S6 1_555 1_555
Cu6 S7 1_555 1_555
S2 Mo1 1_555 1_555
S3 Mo1 1_555 1_555
S4 Cu5_3 1_555 1_555
S5 Mo2 1_555 1_555
S6 Mo2_2 1_555 1_555
S7 C46 1_555 1_555
S8 C47 1_555 1_555
O1 Mo1 1_555 1_555
O2 Mo2 1_555 1_555
N1 Cu1 1_555 1_555
N2 Cu4 1_555 1_555
N3 Cu3 1_555 1_555
N4 Cu5 1_555 1_555
N5 Cu1 1_555 1_555
N6 C26 1_555 1_555
N7 Cu2 1_555 1_555
N8 C36 1_555 1_555
N9 Cu2 1_555 1_555
N10 Cu3 1_555 1_555
N11 Cu4 1_555 1_555
N12 H1 1_555 1_555
H2 N12 1_555 1_555
N13 H3 1_555 1_555
H4 N13 1_555 1_555
N14 H5 1_555 1_555
H6 N14 1_555 1_555
N15 H7 1_555 1_555
H8 N15 1_555 1_555
N16 H9 1_555 1_555
H10 N16 1_555 1_555
N17 H11 1_555 1_555
H12 N17 1_555 1_555
C1 N1 1_555 1_555
H13 C1 1_555 1_555
C2 C1 1_555 1_555
H14 C2 1_555 1_555
C3 C2 1_555 1_555
C4 C3 1_555 1_555
H15 C4 1_555 1_555
C5 N1 1_555 1_555
H16 C5 1_555 1_555
C6 N2 1_555 1_555
H17 C6 1_555 1_555
C7 C6 1_555 1_555
H18 C7 1_555 1_555
C8 C7 1_555 1_555
C9 C8 1_555 1_555
H19 C9 1_555 1_555
C10 N2 1_555 1_555
H20 C10 1_555 1_555
C11 C8 1_555 1_555
C12 C11 1_555 1_555
H21 C12 1_555 1_555
C13 N3 1_555 1_555
H22 C13 1_555 1_555
C14 N3 1_555 1_555
H23 C14 1_555 1_555
C15 C11 1_555 1_555
H24 C15 1_555 1_555
C16 N4 1_555 1_555
H25 C16 1_555 1_555
C17 C16 1_555 1_555
H26 C17 1_555 1_555
C18 C17 1_555 1_555
C19 C18 1_555 1_555
H27 C19 1_555 1_555
C20 N4 1_555 1_555
H28 C20 1_555 1_555
C21 C18 1_555 1_555
C22 C21 1_555 1_555
H29 C22 1_555 1_555
C23 N5 1_555 1_555
H30 C23 1_555 1_555
C24 N5 1_555 1_555
H31 C24 1_555 1_555
C25 C21 1_555 1_555
H32 C25 1_555 1_555
C26 H33 1_555 1_555
C27 C26 1_555 1_555
H34 C27 1_555 1_555
C28 C27 1_555 1_555
C29 C28 1_555 1_555
H35 C29 1_555 1_555
C30 N6 1_555 1_555
H36 C30 1_555 1_555
C31 C28 1_555 1_555
C32 C31 1_555 1_555
H37 C32 1_555 1_555
C33 N7 1_555 1_555
H38 C33 1_555 1_555
C34 N7 1_555 1_555
H39 C34 1_555 1_555
C35 C31 1_555 1_555
H40 C35 1_555 1_555
C36 H41 1_555 1_555
C37 C36 1_555 1_555
H42 C37 1_555 1_555
C38 C37 1_555 1_555
C39 C38 1_555 1_555
H43 C39 1_555 1_555
C40 N8 1_555 1_555
H44 C40 1_555 1_555
C41 C38 1_555 1_555
C42 C41 1_555 1_555
H45 C42 1_555 1_555
C43 N9 1_555 1_555
H46 C43 1_555 1_555
C44 N9 1_555 1_555
H47 C44 1_555 1_555
C45 C41 1_555 1_555
H48 C45 1_555 1_555
C46 N10 1_555 1_555
C47 N11 1_555 1_555
C48 N12 1_555 1_555
C49 C48 1_555 1_555
H49 C49 1_555 1_555
C50 C49 1_555 1_555
H50 C50 1_555 1_555
C51 C50 1_555 1_555
H51 C51 1_555 1_555
C52 C51 1_555 1_555
H52 C52 1_555 1_555
C53 C48 1_555 1_555
H53 C53 1_555 1_555
C54 N13 1_555 1_555
C55 C54 1_555 1_555
H54 C55 1_555 1_555
C56 C55 1_555 1_555
H55 C56 1_555 1_555
C57 C56 1_555 1_555
H56 C57 1_555 1_555
C58 C57 1_555 1_555
H57 C58 1_555 1_555
C59 C54 1_555 1_555
H58 C59 1_555 1_555
C60 N14 1_555 1_555
C61 C60 1_555 1_555
H59 C61 1_555 1_555
C62 C61 1_555 1_555
H60 C62 1_555 1_555
C63 C62 1_555 1_555
H61 C63 1_555 1_555
C64 C63 1_555 1_555
H62 C64 1_555 1_555
C65 C60 1_555 1_555
H63 C65 1_555 1_555
C66 N15 1_555 1_555
C67 C66 1_555 1_555
H64 C67 1_555 1_555
C68 C67 1_555 1_555
H65 C68 1_555 1_555
C69 C68 1_555 1_555
H66 C69 1_555 1_555
C70 C69 1_555 1_555
H67 C70 1_555 1_555
C71 C66 1_555 1_555
H68 C71 1_555 1_555
C72 N16 1_555 1_555
C73 C72 1_555 1_555
H69 C73 1_555 1_555
C74 C73 1_555 1_555
H70 C74 1_555 1_555
C75 C74 1_555 1_555
H71 C75 1_555 1_555
C76 C75 1_555 1_555
H72 C76 1_555 1_555
C77 C72 1_555 1_555
H73 C77 1_555 1_555
C78 N17 1_555 1_555
C79 C78 1_555 1_555
H74 C79 1_555 1_555
C80 C79 1_555 1_555
H75 C80 1_555 1_555
C81 C80 1_555 1_555
H76 C81 1_555 1_555
C82 C81 1_555 1_555
H77 C82 1_555 1_555
C83 C78 1_555 1_555
H78 C83 1_555 1_555
C84 H79 1_555 1_555
C85 C87 1_555 1_555
C86 H80 1_555 1_555
C87 C84 1_555 1_555
H81 C87 1_555 1_555
C88 C84 1_555 1_555
H82 C88 1_555 1_555
N18 C85 1_555 1_555
H83 N18 1_555 1_555
H84 N18 1_555 1_555
C89 C85 1_555 1_555
H85 C89 1_555 1_555
Mo1A S1A 1_555 1_555
Mo2_2 S4_2 1_555 1_555
Mo2A S5A 1_555 1_555
Cu1A S1A 1_555 1_555
Cu2A S1A 1_555 1_555
Cu2_2 N7_2 1_555 1_555
Cu2A_2 N9A 1_555 1_555
Cu3A S2A 1_555 1_555
Cu3A_2 N10A 1_555 1_555
Cu4_2 S4_2 1_555 1_555
Cu4A S5A 1_555 1_555
Cu4A_2 N2A 1_555 1_555
Cu5_2 N6 1_555 1_555
Cu5_3 S6_2 1_555 1_555
Cu5A S6A 1_555 1_555
Cu5A_2 N4A 1_555 1_555
Cu6A S6 1_555 1_555
Cu6A_2 S5 1_555 1_555
S2A Mo1A 1_555 1_555
S3A Mo1A 1_555 1_555
S4_2 Cu5 1_555 1_555
S4_3 Cu5_2 1_555 1_555
S5A Cu6 1_555 1_555
S5_2 Mo2_2 1_555 1_555
S6A Cu6 1_555 1_555
S6_2 Mo2 1_555 1_555
S6_3 Cu5_2 1_555 1_555
S7A Cu6A 1_555 1_555
S8_2 C47_2 1_555 1_555
O1A Mo1A 1_555 1_555
O2_2 Mo2_2 1_555 1_555
N1A Cu1A 1_555 1_555
N2A C6A 1_555 1_555
N2_2 Cu4_2 1_555 1_555
N3A Cu3A 1_555 1_555
N4A C16A 1_555 1_555
N4_2 Cu5_2 1_555 1_555
N5A Cu1A 1_555 1_555
N6_2 Cu5 1_555 1_555
N7_2 C33_2 1_555 1_555
N7A Cu2A 1_555 1_555
N8A Cu6 1_555 1_555
N9A C43A 1_555 1_555
N9A_2 Cu2A 1_555 1_555
N10A C46A 1_555 1_555
N10A_2 Cu3A 1_555 1_555
N11_2 Cu4_2 1_555 1_555
C1A N1A 1_555 1_555
H13A C1A 1_555 1_555
C2A C1A 1_555 1_555
H14A C2A 1_555 1_555
C3A C3 1_555 1_555
C4A C3A 1_555 1_555
H15A C4A 1_555 1_555
C5A N1A 1_555 1_555
H16A C5A 1_555 1_555
C6A H17A 1_555 1_555
C7A C6A 1_555 1_555
H18A C7A 1_555 1_555
C8A C7A 1_555 1_555
C9A C8A 1_555 1_555
H19A C9A 1_555 1_555
C10A N2A 1_555 1_555
H20A C10A 1_555 1_555
C11A C8A 1_555 1_555
C12A C11A 1_555 1_555
H21A C12A 1_555 1_555
C13A N3A 1_555 1_555
H22A C13A 1_555 1_555
C14A N3A 1_555 1_555
H23A C14A 1_555 1_555
C15A C11A 1_555 1_555
H24A C15A 1_555 1_555
C16A H25A 1_555 1_555
C17A C16A 1_555 1_555
H26A C17A 1_555 1_555
C18A C17A 1_555 1_555
C19A C18A 1_555 1_555
H27A C19A 1_555 1_555
C20A N4A 1_555 1_555
H28A C20A 1_555 1_555
C21A C18A 1_555 1_555
C22A C21A 1_555 1_555
H29A C22A 1_555 1_555
C23A N5A 1_555 1_555
H30A C23A 1_555 1_555
C24A N5A 1_555 1_555
H31A C24A 1_555 1_555
C25A C21A 1_555 1_555
H32A C25A 1_555 1_555
C26_2 N6_2 1_555 1_555
H33_2 C26_2 1_555 1_555
C27_2 C26_2 1_555 1_555
H34_2 C27_2 1_555 1_555
C28_2 C27_2 1_555 1_555
C29_2 C28_2 1_555 1_555
H35_2 C29_2 1_555 1_555
C30_2 N6_2 1_555 1_555
H36_2 C30_2 1_555 1_555
C31_2 C28_2 1_555 1_555
C32_2 C31_2 1_555 1_555
H37_2 C32_2 1_555 1_555
C33_2 C32_2 1_555 1_555
H38_2 C33_2 1_555 1_555
C34_2 N7_2 1_555 1_555
H39_2 C34_2 1_555 1_555
C35_2 C31_2 1_555 1_555
H40_2 C35_2 1_555 1_555
C36A N8A 1_555 1_555
H41A C36A 1_555 1_555
C37A C36A 1_555 1_555
H42A C37A 1_555 1_555
C38A C37A 1_555 1_555
C39A C38A 1_555 1_555
H43A C39A 1_555 1_555
C40A N8A 1_555 1_555
H44A C40A 1_555 1_555
C41A C38A 1_555 1_555
C42A C41A 1_555 1_555
H45A C42A 1_555 1_555
C43A C42A 1_555 1_555
H46A C43A 1_555 1_555
C44A N9A 1_555 1_555
H47A C44A 1_555 1_555
C45A C41A 1_555 1_555
H48A C45A 1_555 1_555
C46A S7A 1_555 1_555
C47_2 N11_2 1_555 1_555
Cu1 S2 1_555 1_555
Cu2 S3 1_555 1_555
Cu3 S3 1_555 1_555
Cu4 S5 1_555 1_555
N8 Cu6A 1_555 1_555
C4 C5 1_555 1_555
C9 C10 1_555 1_555
C12 C13 1_555 1_555
C14 C15 1_555 1_555
C19 C20 1_555 1_555
C22 C23 1_555 1_555
C24 C25 1_555 1_555
C29 C30 1_555 1_555
C32 C33 1_555 1_555
C34 C35 1_555 1_555
C39 C40 1_555 1_555
C42 C43 1_555 1_555
C44 C45 1_555 1_555
C52 C53 1_555 1_555
C58 C59 1_555 1_555
C64 C65 1_555 1_555
C70 C71 1_555 1_555
C76 C77 1_555 1_555
C82 C83 1_555 1_555
C86 C88 1_555 1_555
C86 C89 1_555 1_555
Mo2A S6A 1_555 1_555
Cu1A S2A 1_555 1_555
Cu2A S3A 1_555 1_555
Cu3A S3A 1_555 1_555
Cu4_2 S5_2 1_555 1_555
Cu6A S5_2 1_555 1_555
Cu6A_2 S6_2 1_555 1_555
C2A C3A 1_555 1_555
C4A C5A 1_555 1_555
C9A C10A 1_555 1_555
C12A C13A 1_555 1_555
C14A C15A 1_555 1_555
C19A C20A 1_555 1_555
C22A C23A 1_555 1_555
C24A C25A 1_555 1_555
C29_2 C30_2 1_555 1_555
C34_2 C35_2 1_555 1_555
C39A C40A 1_555 1_555
C44A C45A 1_555 1_555

#END
