
#######################################################################
#
#                 Cambridge Crystallographic Data Centre
#                                CCDC 
#
#######################################################################
#
# If this CIF has been generated from an entry in the Cambridge 
# Structural Database, then it will include bibliographic, chemical, 
# crystal, experimental, refinement or atomic coordinate data resulting 
# from the CCDC's data processing and validation procedures.
#
#######################################################################

data_COZMUA
_symmetry_cell_setting           orthorhombic
_symmetry_space_group_name_H-M   'P n n m'
_symmetry_Int_Tables_number      58
_space_group_name_Hall           '-P 2 2n'
loop_
_symmetry_equiv_pos_site_id
_symmetry_equiv_pos_as_xyz
1 x,y,z
2 -x,-y,z
3 1/2+x,1/2-y,1/2-z
4 1/2-x,1/2+y,1/2-z
5 -x,-y,-z
6 x,y,-z
7 1/2-x,1/2+y,1/2+z
8 1/2+x,1/2-y,1/2+z
_cell_length_a                   15.5094(4)
_cell_length_b                   17.8251(5)
_cell_length_c                   24.2210(7)
_cell_angle_alpha                90
_cell_angle_beta                 90
_cell_angle_gamma                90
_cell_volume                     6696.06
loop_
_atom_site_label
_atom_site_type_symbol
_atom_site_fract_x
_atom_site_fract_y
_atom_site_fract_z
Co1 Co 0.80445(4) 0.29137(3) 0.00000
Co2 Co 1.39332(4) 0.02507(4) 0.50000
O1 O 0.85571(17) 0.22158(13) 0.06042(11)
O2 O 0.9723(2) 0.28569(15) 0.08497(12)
O3 O 1.24825(16) 0.14609(15) 0.43900(11)
O4 O 1.31150(17) 0.03362(15) 0.43405(11)
O5 O 0.9228(2) 0.36131(16) 0.00000
O6 O 0.6909(2) 0.2235(2) 0.00000
O7 O 1.3699(3) -0.09104(19) 0.50000
O8 O 1.50000 0.00000 0.44198(14)
C1 C 0.9217(3) 0.2318(2) 0.08937(15)
C2 C 0.9403(2) 0.17293(19) 0.13232(14)
C3 C 0.8858(2) 0.1139(2) 0.14200(15)
H1 H 0.8354 0.1097 0.1214
C4 C 0.9038(2) 0.0613(2) 0.18114(15)
H2 H 0.8657 0.0216 0.1862
C5 C 0.9778(2) 0.06499(18) 0.21384(13)
C6 C 1.0326(2) 0.1237(2) 0.20393(15)
H3 H 1.0834 0.1273 0.2241
C7 C 1.0142(3) 0.1779(2) 0.16454(16)
H4 H 1.0518 0.218 0.1596
C8 C 1.00000 0.00000 0.25368(17)
C9 C 1.2564(2) 0.0818(2) 0.41998(15)
C10 C 1.1937(2) 0.06020(19) 0.37503(14)
C11 C 1.1249(2) 0.1040(2) 0.36467(15)
H5 H 1.118 0.1481 0.3847
C12 C 1.0651(2) 0.08551(19) 0.32574(14)
H6 H 1.0174 0.1165 0.3207
C13 C 1.0735(2) 0.02182(17) 0.29350(13)
C14 C 1.1449(2) -0.0240(2) 0.30452(15)
H7 H 1.1535 -0.0671 0.2836
C15 C 1.2032(2) -0.0062(2) 0.34627(15)
H8 H 1.2482 -0.0388 0.3547
Co1B Co 1.30445(4) 0.20863(3) 0.50000
Co1A Co 1.19555(4) -0.29137(3) 0.00000
Co1C Co 0.69555(4) -0.20863(3) 0.50000
Co2B Co 0.89332(4) 0.47493(4) 0.00000
Co2A Co 1.60668(4) -0.02507(4) 0.50000
Co2A_2 Co 0.60668(4) -0.02507(4) 0.50000
O1A O 1.14429(17) -0.22158(13) 0.06042(11)
O1E O 0.85571(17) 0.22158(13) -0.06042(11)
O2A O 1.0277(2) -0.28569(15) 0.08497(12)
O3A O 0.75175(16) -0.14609(15) 0.43900(11)
O3B O 0.74825(16) 0.35391(15) 0.06100(11)
O3G O 0.74825(16) 0.35391(15) -0.06100(11)
O4A O 0.68850(17) -0.03362(15) 0.43405(11)
O4E O 1.31150(17) 0.03362(15) 0.56595(11)
O5B O 1.4228(2) 0.13869(16) 0.50000
O8D O 1.50000 0.00000 0.55802(14)
C1A C 1.0783(3) -0.2318(2) 0.08937(15)
C2A C 1.0597(2) -0.17293(19) 0.13232(14)
C3A C 1.1142(2) -0.1139(2) 0.14200(15)
H1A H 1.1646 -0.1097 0.1214
C4A C 1.0962(2) -0.0613(2) 0.18114(15)
H2A H 1.1343 -0.0216 0.1862
C5A C 1.0222(2) -0.06499(18) 0.21384(13)
C6A C 0.9674(2) -0.1237(2) 0.20393(15)
H3A H 0.9166 -0.1273 0.2241
C7A C 0.9858(3) -0.1779(2) 0.16454(16)
H4A H 0.9482 -0.218 0.1596
C9A C 0.7436(2) -0.0818(2) 0.41998(15)
C10A C 0.8063(2) -0.06020(19) 0.37503(14)
C11A C 0.8751(2) -0.1040(2) 0.36467(15)
H5A H 0.882 -0.1481 0.3847
C12A C 0.9349(2) -0.08551(19) 0.32574(14)
H6A H 0.9826 -0.1165 0.3207
C13A C 0.9265(2) -0.02182(17) 0.29350(13)
C14A C 0.8551(2) 0.0240(2) 0.30452(15)
H7A H 0.8465 0.0671 0.2836
C15A C 0.7968(2) 0.0062(2) 0.34627(15)
H8A H 0.7518 0.0388 0.3547
loop_
_geom_bond_atom_site_label_1
_geom_bond_atom_site_label_2
_geom_bond_site_symmetry_1
_geom_bond_site_symmetry_2
Co1 O1 1_555 1_555
Co2 O4 1_555 1_555
O1 C1 1_555 1_555
O2 C1 1_555 1_555
O3 C9 1_555 1_555
O4 C9 1_555 1_555
O5 Co1 1_555 1_555
O6 Co1 1_555 1_555
O7 Co2 1_555 1_555
O8 Co2 1_555 1_555
C1 C2 1_555 1_555
C2 C3 1_555 1_555
C3 H1 1_555 1_555
C4 C3 1_555 1_555
H2 C4 1_555 1_555
C5 C4 1_555 1_555
C6 C5 1_555 1_555
H3 C6 1_555 1_555
C7 C2 1_555 1_555
H4 C7 1_555 1_555
C8 C5 1_555 1_555
C9 C10 1_555 1_555
C10 C11 1_555 1_555
C11 H5 1_555 1_555
C12 C11 1_555 1_555
H6 C12 1_555 1_555
C13 C8 1_555 1_555
C14 C13 1_555 1_555
H7 C14 1_555 1_555
C15 C10 1_555 1_555
H8 C15 1_555 1_555
Co1B O3 1_555 1_555
Co1A O1A 1_555 1_555
Co1C O3A 1_555 1_555
Co2B O5 1_555 1_555
Co2A O8 1_555 1_555
Co2A_2 O4A 1_555 1_555
O1A C1A 1_555 1_555
O1E Co1 1_555 1_555
O2A C1A 1_555 1_555
O3A C9A 1_555 1_555
O3B Co1 1_555 1_555
O3G Co1 1_555 1_555
O4A C9A 1_555 1_555
O4E Co2 1_555 1_555
O5B Co2 1_555 1_555
O8D Co2 1_555 1_555
C1A C2A 1_555 1_555
C2A C3A 1_555 1_555
C3A H1A 1_555 1_555
C4A C3A 1_555 1_555
H2A C4A 1_555 1_555
C5A C8 1_555 1_555
C6A C5A 1_555 1_555
H3A C6A 1_555 1_555
C7A C2A 1_555 1_555
H4A C7A 1_555 1_555
C9A C10A 1_555 1_555
C10A C11A 1_555 1_555
C11A H5A 1_555 1_555
C12A C11A 1_555 1_555
H6A C12A 1_555 1_555
C13A C8 1_555 1_555
C14A C13A 1_555 1_555
H7A C14A 1_555 1_555
C15A C10A 1_555 1_555
H8A C15A 1_555 1_555
C6 C7 1_555 1_555
C12 C13 1_555 1_555
C14 C15 1_555 1_555
Co1B O5B 1_555 1_555
Co2A O8D 1_555 1_555
C4A C5A 1_555 1_555
C6A C7A 1_555 1_555
C12A C13A 1_555 1_555
C14A C15A 1_555 1_555

#END
