
#######################################################################
#
#                 Cambridge Crystallographic Data Centre
#                                CCDC 
#
#######################################################################
#
# If this CIF has been generated from an entry in the Cambridge 
# Structural Database, then it will include bibliographic, chemical, 
# crystal, experimental, refinement or atomic coordinate data resulting 
# from the CCDC's data processing and validation procedures.
#
#######################################################################

data_CUFFOZ
_symmetry_cell_setting           cubic
_symmetry_space_group_name_H-M   'I -4 3 d'
_symmetry_Int_Tables_number      220
_space_group_name_Hall           'I -4bd 2c 3'
loop_
_symmetry_equiv_pos_site_id
_symmetry_equiv_pos_as_xyz
1 x,y,z
2 1/2-x,-y,1/2+z
3 -x,1/2+y,1/2-z
4 1/2+x,1/2-y,-z
5 z,x,y
6 1/2+z,1/2-x,-y
7 1/2-z,-x,1/2+y
8 -z,1/2+x,1/2-y
9 y,z,x
10 -y,1/2+z,1/2-x
11 1/2+y,1/2-z,-x
12 1/2-y,-z,1/2+x
13 1/4+y,1/4+x,1/4+z
14 1/4-y,3/4-x,3/4+z
15 3/4+y,1/4-x,3/4-z
16 3/4-y,3/4+x,1/4-z
17 1/4+x,1/4+z,1/4+y
18 3/4-x,3/4+z,1/4-y
19 1/4-x,3/4-z,3/4+y
20 3/4+x,1/4-z,3/4-y
21 1/4+z,1/4+y,1/4+x
22 3/4+z,1/4-y,3/4-x
23 3/4-z,3/4+y,1/4-x
24 1/4-z,3/4-y,3/4+x
25 1/2+x,1/2+y,1/2+z
26 -x,1/2-y,z
27 1/2-x,y,-z
28 x,-y,1/2-z
29 1/2+z,1/2+x,1/2+y
30 z,-x,1/2-y
31 -z,1/2-x,y
32 1/2-z,x,-y
33 1/2+y,1/2+z,1/2+x
34 1/2-y,z,-x
35 y,-z,1/2-x
36 -y,1/2-z,x
37 3/4+y,3/4+x,3/4+z
38 3/4-y,1/4-x,1/4+z
39 1/4+y,3/4-x,1/4-z
40 1/4-y,1/4+x,3/4-z
41 3/4+x,3/4+z,3/4+y
42 1/4-x,1/4+z,3/4-y
43 3/4-x,1/4-z,1/4+y
44 1/4+x,3/4-z,1/4-y
45 3/4+z,3/4+y,3/4+x
46 1/4+z,3/4-y,1/4-x
47 1/4-z,1/4+y,3/4-x
48 3/4-z,1/4-y,1/4+x
_cell_length_a                   20.4029(8)
_cell_length_b                   20.4029(8)
_cell_length_c                   20.4029(8)
_cell_angle_alpha                90
_cell_angle_beta                 90
_cell_angle_gamma                90
_cell_volume                     8493.29
loop_
_atom_site_label
_atom_site_type_symbol
_atom_site_fract_x
_atom_site_fract_y
_atom_site_fract_z
In1 In 1.0000 0.2500 0.8750
O1 O 0.9361(3) 0.2857(3) 0.7815(3)
O2 O 0.9192(3) 0.1950(3) 0.8337(3)
C1 C 0.9040(4) 0.2354(4) 0.7893(4)
C2 C 0.8348(4) 0.2597(4) 0.6919(4)
H1 H 0.8615 0.2954 0.6826
C3 C 0.8476(4) 0.2195(4) 0.7451(5)
In1F In 0.6250 0.0000 0.7500
In1I In 0.7500 0.3750 0.5000
In1J In 0.7500 0.6250 1.0000
In1G In 1.1250 0.5000 1.2500
In1E In 1.3750 0.5000 0.7500
In1K In 1.2500 0.1250 0.5000
In1H In 1.2500 -0.1250 1.0000
In1D In 0.8750 0.0000 1.2500
O1F O 0.7185(3) 0.0639(3) 0.7857(3)
O1I O 0.7143(3) 0.2815(3) 0.5639(3)
O1N O 1.0357(3) 0.3139(3) 0.9685(3)
O1Q O 0.8139(3) 0.5315(3) 0.9643(3)
O1T O 1.0315(3) 0.5357(3) 1.1861(3)
O1Y O 1.0639(3) 0.2143(3) 0.7815(3)
O1BA O 1.2815(3) 0.4361(3) 0.7857(3)
O1HA O 1.2857(3) 0.2185(3) 0.5639(3)
O1MA O 0.9643(3) 0.1861(3) 0.9685(3)
O1QA O 1.1861(3) -0.0315(3) 0.9643(3)
O1UA O 0.9685(3) -0.0357(3) 1.1861(3)
O1U O 0.5315(3) -0.0357(3) 0.8139(3)
O1EA O 0.7185(3) -0.0639(3) 0.7143(3)
O1RA O 0.5315(3) 0.0357(3) 0.6861(3)
O1S O 0.6861(3) 0.4685(3) 0.4643(3)
O1FA O 0.7857(3) 0.2815(3) 0.4361(3)
O1PA O 0.8139(3) 0.4685(3) 0.5357(3)
O2F O 0.6663(3) 0.0808(3) 0.6950(3)
O2I O 0.8050(3) 0.3337(3) 0.5808(3)
O2N O 0.9450(3) 0.3308(3) 0.9163(3)
O2Q O 0.8308(3) 0.5837(3) 1.0550(3)
O2T O 1.0837(3) 0.4450(3) 1.1692(3)
O2Y O 1.0808(3) 0.3050(3) 0.8337(3)
O2BA O 1.3337(3) 0.4192(3) 0.6950(3)
O2HA O 1.1950(3) 0.1663(3) 0.5808(3)
O2MA O 1.0550(3) 0.1692(3) 0.9163(3)
O2QA O 1.1692(3) -0.0837(3) 1.0550(3)
O2UA O 0.9163(3) 0.0550(3) 1.1692(3)
O2U O 0.5837(3) 0.0550(3) 0.8308(3)
O2EA O 0.6663(3) -0.0808(3) 0.8050(3)
O2RA O 0.5837(3) -0.0550(3) 0.6692(3)
O2S O 0.6692(3) 0.4163(3) 0.5550(3)
O2FA O 0.6950(3) 0.3337(3) 0.4192(3)
O2PA O 0.8308(3) 0.4163(3) 0.4450(3)
C1F C 0.7107(4) 0.0960(4) 0.7354(4)
C1I C 0.7646(4) 0.2893(4) 0.5960(4)
C1N C 0.9854(4) 0.3460(4) 0.9607(4)
C1Q C 0.8460(4) 0.5393(4) 1.0146(4)
C1T C 1.0393(4) 0.4854(4) 1.1540(4)
C1Y C 1.0960(4) 0.2646(4) 0.7893(4)
C1BA C 1.2893(4) 0.4040(4) 0.7354(4)
C1HA C 1.2354(4) 0.2107(4) 0.5960(4)
C1MA C 1.0146(4) 0.1540(4) 0.9607(4)
C1QA C 1.1540(4) -0.0393(4) 1.0146(4)
C1UA C 0.9607(4) 0.0146(4) 1.1540(4)
C2F C 0.8081(4) 0.1652(4) 0.7597(4)
C2I C 0.7403(4) 0.1919(4) 0.6652(4)
C2N C 1.0097(4) 0.4152(4) 1.0581(4)
C2Q C 0.9152(4) 0.4419(4) 0.9903(4)
C2T C 0.9419(4) 0.5097(4) 1.0848(4)
C2Y C 1.1652(4) 0.2403(4) 0.6919(4)
C2BA C 1.1919(4) 0.3348(4) 0.7597(4)
C2HA C 1.2597(4) 0.3081(4) 0.6652(4)
C2MA C 0.9903(4) 0.0848(4) 1.0581(4)
C2QA C 1.0848(4) 0.0581(4) 0.9903(4)
C2UA C 1.0581(4) -0.0097(4) 1.0848(4)
H1F H 0.8174 0.1385 0.7954
H1I H 0.7046 0.1826 0.6385
H1N H 1.0454 0.3885 1.0674
H1Q H 0.8885 0.4326 0.9546
H1T H 0.9326 0.5454 1.1115
H1Y H 1.1385 0.2046 0.6826
H1BA H 1.1826 0.3615 0.7954
H1HA H 1.2954 0.3174 0.6385
H1MA H 0.9546 0.1115 1.0674
H1QA H 1.1115 0.0674 0.9546
H1UA H 1.0674 -0.0454 1.1115
C3F C 0.7549(5) 0.1524(4) 0.7195(4)
C3I C 0.7805(4) 0.2451(5) 0.6524(4)
C3N C 0.9695(4) 0.4024(4) 1.0049(5)
C3Q C 0.9024(4) 0.4951(5) 1.0305(4)
C3T C 0.9951(5) 0.4695(4) 1.0976(4)
C3Y C 1.1524(4) 0.2805(4) 0.7451(5)
C3BA C 1.2451(5) 0.3476(4) 0.7195(4)
C3HA C 1.2195(4) 0.2549(5) 0.6524(4)
C3MA C 1.0305(4) 0.0976(4) 1.0049(5)
C3QA C 1.0976(4) 0.0049(5) 1.0305(4)
C3UA C 1.0049(5) 0.0305(4) 1.0976(4)
loop_
_geom_bond_atom_site_label_1
_geom_bond_atom_site_label_2
_geom_bond_site_symmetry_1
_geom_bond_site_symmetry_2
In1 O1 1_555 1_555
O1 C1 1_555 1_555
O2 In1 1_555 1_555
C1 O2 1_555 1_555
C2 H1 1_555 1_555
C3 C1 1_555 1_555
In1F O1F 1_555 1_555
In1I O1I 1_555 1_555
In1J O1Q 1_555 1_555
In1G O1T 1_555 1_555
In1E O1BA 1_555 1_555
In1K O1HA 1_555 1_555
In1H O1QA 1_555 1_555
In1D O1UA 1_555 1_555
O1F C1F 1_555 1_555
O1I C1I 1_555 1_555
O1N In1 1_555 1_555
O1Q C1Q 1_555 1_555
O1T C1T 1_555 1_555
O1Y In1 1_555 1_555
O1BA C1BA 1_555 1_555
O1HA C1HA 1_555 1_555
O1MA In1 1_555 1_555
O1QA C1QA 1_555 1_555
O1UA C1UA 1_555 1_555
O1U In1F 1_555 1_555
O1EA In1F 1_555 1_555
O1RA In1F 1_555 1_555
O1S In1I 1_555 1_555
O1FA In1I 1_555 1_555
O1PA In1I 1_555 1_555
O2F In1F 1_555 1_555
O2I In1I 1_555 1_555
O2N In1 1_555 1_555
O2Q In1J 1_555 1_555
O2T In1G 1_555 1_555
O2Y In1 1_555 1_555
O2BA In1E 1_555 1_555
O2HA In1K 1_555 1_555
O2MA In1 1_555 1_555
O2QA In1H 1_555 1_555
O2UA In1D 1_555 1_555
O2U In1F 1_555 1_555
O2EA In1F 1_555 1_555
O2RA In1F 1_555 1_555
O2S In1I 1_555 1_555
O2FA In1I 1_555 1_555
O2PA In1I 1_555 1_555
C1F O2F 1_555 1_555
C1I O2I 1_555 1_555
C1N O1N 1_555 1_555
C1Q O2Q 1_555 1_555
C1T O2T 1_555 1_555
C1Y O1Y 1_555 1_555
C1BA O2BA 1_555 1_555
C1HA O2HA 1_555 1_555
C1MA O1MA 1_555 1_555
C1QA O2QA 1_555 1_555
C1UA O2UA 1_555 1_555
C2F C3 1_555 1_555
C2I H1I 1_555 1_555
C2N H1N 1_555 1_555
C2Q H1Q 1_555 1_555
C2T H1T 1_555 1_555
C2Y H1Y 1_555 1_555
C2BA H1BA 1_555 1_555
C2HA H1HA 1_555 1_555
C2MA H1MA 1_555 1_555
C2QA H1QA 1_555 1_555
C2UA H1UA 1_555 1_555
H1F C2F 1_555 1_555
C3F C1F 1_555 1_555
C3I C2 1_555 1_555
C3N C1N 1_555 1_555
C3Q C1Q 1_555 1_555
C3T C1T 1_555 1_555
C3Y C1Y 1_555 1_555
C3BA C1BA 1_555 1_555
C3HA C1HA 1_555 1_555
C3MA C1MA 1_555 1_555
C3QA C1QA 1_555 1_555
C3UA C1UA 1_555 1_555
C2 C3 1_555 1_555
O2N C1N 1_555 1_555
O2Y C1Y 1_555 1_555
O2MA C1MA 1_555 1_555
C1I C3I 1_555 1_555
C2F C3F 1_555 1_555
C2I C3F 1_555 1_555
C2I C3I 1_555 1_555
C2N C3N 1_555 1_555
C2N C3T 1_555 1_555
C2Q C3N 1_555 1_555
C2Q C3Q 1_555 1_555
C2T C3Q 1_555 1_555
C2T C3T 1_555 1_555
C2Y C3Y 1_555 1_555
C2Y C3HA 1_555 1_555
C2BA C3Y 1_555 1_555
C2BA C3BA 1_555 1_555
C2HA C3BA 1_555 1_555
C2HA C3HA 1_555 1_555
C2MA C3MA 1_555 1_555
C2MA C3UA 1_555 1_555
C2QA C3MA 1_555 1_555
C2QA C3QA 1_555 1_555
C2UA C3QA 1_555 1_555
C2UA C3UA 1_555 1_555

#END
