
#######################################################################
#
#                 Cambridge Crystallographic Data Centre
#                                CCDC 
#
#######################################################################
#
# If this CIF has been generated from an entry in the Cambridge 
# Structural Database, then it will include bibliographic, chemical, 
# crystal, experimental, refinement or atomic coordinate data resulting 
# from the CCDC's data processing and validation procedures.
#
#######################################################################

data_CUGFUH
_symmetry_cell_setting           triclinic
_symmetry_space_group_name_H-M   'P -1'
_symmetry_Int_Tables_number      2
_space_group_name_Hall           '-P 1'
loop_
_symmetry_equiv_pos_site_id
_symmetry_equiv_pos_as_xyz
1 x,y,z
2 -x,-y,-z
_cell_length_a                   8.9970(5)
_cell_length_b                   10.5163(5)
_cell_length_c                   10.6860(7)
_cell_angle_alpha                98.008(5)
_cell_angle_beta                 97.436(5)
_cell_angle_gamma                111.110(5)
_cell_volume                     916.188
loop_
_atom_site_label
_atom_site_type_symbol
_atom_site_fract_x
_atom_site_fract_y
_atom_site_fract_z
Mn1 Mn -0.79829(4) 0.74605(3) 0.18588(3)
O1 O -1.05043(19) 0.63610(17) 0.06921(16)
O2 O -1.18134(19) 0.46677(17) -0.10528(15)
N1 N -0.5387(2) 0.8212(2) 0.27313(18)
N2 N -0.1888(2) 1.17345(19) 0.20293(18)
N3 N -0.2825(2) 0.9740(2) 0.31517(18)
N4 N -0.0892(2) 1.2055(2) 0.44180(18)
N5 N 0.0071(2) 1.0680(2) 0.27652(18)
C1 C -0.4309(3) 0.9264(2) 0.2383(2)
H1 H -0.4545 0.9639 0.1681
C2 C -1.0675(3) 0.5297(2) -0.0105(2)
C3 C -0.2985(3) 0.8902(3) 0.4059(2)
H2 H -0.2171 0.8963 0.4725
C4 C -0.1833(3) 1.1436(2) 0.0767(2)
H3 H -0.1298 1.0892 0.0444
C5 C 0.0154(3) 0.9407(2) 0.2620(2)
H4 H -0.0653 0.8618 0.2757
C6 C -0.4551(3) 0.7974(3) 0.3794(2)
H5 H -0.4991 0.7286 0.4255
C7 C 0.2355(3) 1.0765(3) 0.2167(2)
H6 H 0.3366 1.1094 0.1934
C8 C -0.2802(3) 1.2545(2) 0.2104(2)
H7 H -0.3066 1.2912 0.2846
C9 C -0.3242(3) 1.2703(3) 0.0890(2)
H8 H -0.3863 1.3207 0.0663
C10 C 0.1484(3) 1.1549(3) 0.2465(2)
H9 H 0.1785 1.2493 0.2466
C11 C -0.1885(3) 1.2036(2) 0.5264(2)
H10 H -0.2955 1.1402 0.5116
C12 C 0.0569(3) 1.3143(3) 0.4994(2)
H11 H 0.1509 1.3430 0.4652
C13 C 0.0368(3) 1.3712(3) 0.6150(2)
H12 H 0.1160 1.4462 0.6736
B1 B -0.1360(3) 1.1054(3) 0.3099(2)
N6 N 0.1508(2) 0.9410(2) 0.22621(18)
N7 N -0.1191(2) 1.3005(2) 0.63237(18)
N8 N -0.2625(2) 1.2003(2) 0.00425(19)
O1A O -0.94957(19) 0.36390(17) -0.06921(16)
O2A O -0.81866(19) 0.53323(17) 0.10528(15)
C2A C -0.9325(3) 0.4703(2) 0.0105(2)
Mn1A Mn -1.20171(4) 0.25395(3) -0.18588(3)
N1A N -1.4613(2) 0.1788(2) -0.27313(18)
N2A N -1.8112(2) -0.17345(19) -0.20293(18)
N3A N -1.7175(2) 0.0260(2) -0.31517(18)
N4A N -1.9108(2) -0.2055(2) -0.44180(18)
N5A N -2.0071(2) -0.0680(2) -0.27652(18)
C1A C -1.5691(3) 0.0736(2) -0.2383(2)
H1A H -1.5455 0.0361 -0.1681
C3A C -1.7015(3) 0.1098(3) -0.4059(2)
H2A H -1.7829 0.1037 -0.4725
C4A C -1.8167(3) -0.1436(2) -0.0767(2)
H3A H -1.8702 -0.0892 -0.0444
C5A C -2.0154(3) 0.0593(2) -0.2620(2)
H4A H -1.9347 0.1382 -0.2757
C6A C -1.5449(3) 0.2026(3) -0.3794(2)
H5A H -1.5009 0.2714 -0.4255
C7A C -2.2355(3) -0.0765(3) -0.2167(2)
H6A H -2.3366 -0.1094 -0.1934
C8A C -1.7198(3) -0.2545(2) -0.2104(2)
H7A H -1.6934 -0.2912 -0.2846
C9A C -1.6758(3) -0.2703(3) -0.0890(2)
H8A H -1.6137 -0.3207 -0.0663
C10A C -2.1484(3) -0.1549(3) -0.2465(2)
H9A H -2.1785 -0.2493 -0.2466
C11A C -1.8115(3) -0.2036(2) -0.5264(2)
H10A H -1.7045 -0.1402 -0.5116
C12A C -2.0569(3) -0.3143(3) -0.4994(2)
H11A H -2.1509 -0.3430 -0.4652
C13A C -2.0368(3) -0.3712(3) -0.6150(2)
H12A H -2.1160 -0.4462 -0.6736
B1A B -1.8640(3) -0.1054(3) -0.3099(2)
N6A N -2.1508(2) 0.0590(2) -0.22621(18)
N7A N -1.8809(2) -0.3005(2) -0.63237(18)
N8A N -1.7375(2) -0.2003(2) -0.00425(19)
Mn1_2 Mn -1.79829(4) -0.25395(3) -0.81412(3)
Mn1_3 Mn -1.79829(4) -0.25395(3) 0.18588(3)
Mn1_4 Mn 0.20171(4) 0.74605(3) 0.18588(3)
Mn1A_2 Mn -2.20171(4) 0.25395(3) -0.18588(3)
Mn1A_3 Mn -0.20171(4) 1.25395(3) -0.18588(3)
Mn1A_4 Mn -0.20171(4) 1.25395(3) 0.81412(3)
N6_2 N -0.8492(2) 0.9410(2) 0.22621(18)
N6A_2 N -1.1508(2) 0.0590(2) -0.22621(18)
N7_2 N -1.1191(2) 0.3005(2) -0.36763(18)
N7A_2 N -0.8809(2) 0.6995(2) 0.36763(18)
N8_2 N -1.2625(2) 0.2003(2) 0.00425(19)
N8A_2 N -0.7375(2) 0.7997(2) -0.00425(19)
O3 O -1.3283(3) 0.6927(3) 0.0753(3)
O4 O -1.5427(3) 0.4774(3) 0.1734(3)
O5 O -0.4627(6) 1.4178(4) 0.4002(4)
loop_
_geom_bond_atom_site_label_1
_geom_bond_atom_site_label_2
_geom_bond_site_symmetry_1
_geom_bond_site_symmetry_2
Mn1 O1 1_555 1_555
O1 C2 1_555 1_555
O2 C2 1_555 1_555
N1 Mn1 1_555 1_555
N2 C4 1_555 1_555
N3 C1 1_555 1_555
N4 C11 1_555 1_555
N5 C5 1_555 1_555
C1 N1 1_555 1_555
H1 C1 1_555 1_555
C2 C2A 1_555 1_555
C3 N3 1_555 1_555
H2 C3 1_555 1_555
C4 H3 1_555 1_555
C5 H4 1_555 1_555
C6 N1 1_555 1_555
H5 C6 1_555 1_555
C7 H6 1_555 1_555
C8 N2 1_555 1_555
H7 C8 1_555 1_555
C9 C8 1_555 1_555
H8 C9 1_555 1_555
C10 N5 1_555 1_555
H9 C10 1_555 1_555
C11 H10 1_555 1_555
C12 N4 1_555 1_555
H11 C12 1_555 1_555
C13 C12 1_555 1_555
H12 C13 1_555 1_555
B1 N2 1_555 1_555
N6 C5 1_555 1_555
N7 C11 1_555 1_555
N8 C4 1_555 1_555
O1A C2A 1_555 1_555
O2A Mn1 1_555 1_555
C2A O2A 1_555 1_555
Mn1A O2 1_555 1_555
N1A Mn1A 1_555 1_555
N2A C4A 1_555 1_555
N3A C1A 1_555 1_555
N4A C11A 1_555 1_555
N5A C5A 1_555 1_555
C1A N1A 1_555 1_555
H1A C1A 1_555 1_555
C3A N3A 1_555 1_555
H2A C3A 1_555 1_555
C4A H3A 1_555 1_555
C5A H4A 1_555 1_555
C6A N1A 1_555 1_555
H5A C6A 1_555 1_555
C7A H6A 1_555 1_555
C8A N2A 1_555 1_555
H7A C8A 1_555 1_555
C9A C8A 1_555 1_555
H8A C9A 1_555 1_555
C10A N5A 1_555 1_555
H9A C10A 1_555 1_555
C11A H10A 1_555 1_555
C12A N4A 1_555 1_555
H11A C12A 1_555 1_555
C13A C12A 1_555 1_555
H12A C13A 1_555 1_555
B1A N2A 1_555 1_555
N6A C5A 1_555 1_555
N7A C11A 1_555 1_555
N8A C4A 1_555 1_555
Mn1_2 N7A 1_555 1_555
Mn1_3 N8A 1_555 1_555
Mn1_4 N6 1_555 1_555
Mn1A_2 N6A 1_555 1_555
Mn1A_3 N8 1_555 1_555
Mn1A_4 N7 1_555 1_555
N6_2 Mn1 1_555 1_555
N6A_2 Mn1A 1_555 1_555
N7_2 Mn1A 1_555 1_555
N7A_2 Mn1 1_555 1_555
N8_2 Mn1A 1_555 1_555
N8A_2 Mn1 1_555 1_555
N3 B1 1_555 1_555
N4 B1 1_555 1_555
N5 B1 1_555 1_555
C3 C6 1_555 1_555
C7 C10 1_555 1_555
C7 N6 1_555 1_555
C9 N8 1_555 1_555
C13 N7 1_555 1_555
O1A Mn1A 1_555 1_555
N3A B1A 1_555 1_555
N4A B1A 1_555 1_555
N5A B1A 1_555 1_555
C3A C6A 1_555 1_555
C7A C10A 1_555 1_555
C7A N6A 1_555 1_555
C9A N8A 1_555 1_555
C13A N7A 1_555 1_555

#END
