
#######################################################################
#
#                 Cambridge Crystallographic Data Centre
#                                CCDC 
#
#######################################################################
#
# If this CIF has been generated from an entry in the Cambridge 
# Structural Database, then it will include bibliographic, chemical, 
# crystal, experimental, refinement or atomic coordinate data resulting 
# from the CCDC's data processing and validation procedures.
#
#######################################################################

data_CUGFAN
_symmetry_cell_setting           triclinic
_symmetry_space_group_name_H-M   'P -1'
_symmetry_Int_Tables_number      2
_space_group_name_Hall           '-P 1'
loop_
_symmetry_equiv_pos_site_id
_symmetry_equiv_pos_as_xyz
1 x,y,z
2 -x,-y,-z
_cell_length_a                   8.8017(4)
_cell_length_b                   10.6674(8)
_cell_length_c                   10.9422(8)
_cell_angle_alpha                103.157(6)
_cell_angle_beta                 108.193(6)
_cell_angle_gamma                97.410(5)
_cell_volume                     927.912
loop_
_atom_site_label
_atom_site_type_symbol
_atom_site_fract_x
_atom_site_fract_y
_atom_site_fract_z
Zn1 Zn -0.20118(5) 0.83672(4) 0.24555(4)
O1 O 0.0531(3) 0.9431(3) 0.3596(3)
O2 O 0.1986(3) 1.0945(3) 0.5545(3)
N1 N -0.4524(4) 0.7504(3) 0.1686(3)
N2 N -0.8954(4) 0.5451(3) -0.1966(3)
N3 N -0.7089(4) 0.6967(3) 0.0258(3)
N4 N -0.8085(4) 0.7854(3) -0.1723(3)
C1 C 0.0726(5) 1.0105(4) 0.4742(4)
N5 N -1.0021(4) 0.7184(3) -0.0615(3)
C2 C -0.5592(5) 0.7735(4) 0.0652(4)
H1 H -0.5333 0.8363 0.0241
C3 C -0.7186(6) 0.7716(4) -0.2545(4)
H2 H -0.6850 0.6957 -0.2870
C4 C -0.8254(5) 0.9113(4) -0.1507(4)
H3 H -0.8809 0.9479 -0.0966
C5 C -0.6874(6) 0.8889(4) -0.2799(5)
H4 H -0.6289 0.9068 -0.3338
C6 C -0.8072(5) 0.4529(4) -0.1821(5)
H5 H -0.7114 0.4658 -0.1093
C7 C -1.0051(5) 0.7596(4) 0.0631(4)
H6 H -0.9170 0.7674 0.1404
C8 C -0.5391(5) 0.6527(4) 0.1994(5)
H7 H -0.4969 0.6155 0.2684
C9 C -1.2396(6) 0.7652(6) -0.0672(5)
H8 H -1.3466 0.7764 -0.0986
C10 C -0.6954(5) 0.6199(4) 0.1130(4)
H9 H -0.7792 0.5567 0.1123
C11 C -1.0247(8) 0.4861(5) -0.3149(5)
H10 H -1.1099 0.5239 -0.3541
C12 C -1.1525(6) 0.7241(6) -0.1444(5)
H11 H -1.1882 0.7033 -0.2375
C13 C -1.0056(7) 0.3638(5) -0.3639(5)
H12 H -1.0762 0.3030 -0.4434
B1 B -0.8557(5) 0.6857(4) -0.1018(4)
N6 N -0.8679(4) 0.3427(3) -0.2797(4)
N7 N -1.1462(4) 0.7876(3) 0.0640(3)
N8 N -0.7556(4) 0.9770(3) -0.2139(3)
O1A O -0.0531(3) 1.0569(3) 0.6404(3)
O2A O -0.1986(3) 0.9055(3) 0.4455(3)
C1A C -0.0726(5) 0.9895(4) 0.5258(4)
Zn1A Zn -0.79882(5) 0.16328(4) -0.24555(4)
N1A N -0.5476(4) 0.2496(3) -0.1686(3)
N2A N -0.1046(4) 0.4549(3) 0.1966(3)
N3A N -0.2911(4) 0.3033(3) -0.0258(3)
N4A N -0.1915(4) 0.2146(3) 0.1723(3)
N5A N 0.0021(4) 0.2816(3) 0.0615(3)
C2A C -0.4408(5) 0.2265(4) -0.0652(4)
H1A H -0.4667 0.1637 -0.0241
C3A C -0.2814(6) 0.2284(4) 0.2545(4)
H2A H -0.3150 0.3043 0.2870
C4A C -0.1746(5) 0.0887(4) 0.1507(4)
H3A H -0.1191 0.0521 0.0966
C5A C -0.3126(6) 0.1111(4) 0.2799(5)
H4A H -0.3711 0.0932 0.3338
C6A C -0.1928(5) 0.5471(4) 0.1821(5)
H5A H -0.2886 0.5342 0.1093
C7A C 0.0051(5) 0.2404(4) -0.0631(4)
H6A H -0.0830 0.2326 -0.1404
C8A C -0.4609(5) 0.3473(4) -0.1994(5)
H7A H -0.5031 0.3845 -0.2684
C9A C 0.2396(6) 0.2348(6) 0.0672(5)
H8A H 0.3466 0.2236 0.0986
C10A C -0.3046(5) 0.3801(4) -0.1130(4)
H9A H -0.2208 0.4433 -0.1123
C11A C 0.0247(8) 0.5139(5) 0.3149(5)
H10A H 0.1099 0.4761 0.3541
C12A C 0.1525(6) 0.2759(6) 0.1444(5)
H11A H 0.1882 0.2967 0.2375
C13A C 0.0056(7) 0.6362(5) 0.3639(5)
H12A H 0.0762 0.6970 0.4434
B1A B -0.1443(5) 0.3143(4) 0.1018(4)
N6A N -0.1321(4) 0.6573(3) 0.2797(4)
N7A N 0.1462(4) 0.2124(3) -0.0640(3)
N8A N -0.2444(4) 0.0230(3) 0.2139(3)
Zn1_2 Zn -1.20118(5) 0.83672(4) 0.24555(4)
Zn1_3 Zn -0.20118(5) -0.16328(4) 0.24555(4)
Zn1A_2 Zn -0.79882(5) 1.16328(4) -0.24555(4)
Zn1A_3 Zn 0.20118(5) 0.16328(4) -0.24555(4)
Zn1A_4 Zn 0.20118(5) 1.16328(4) 0.75445(4)
O1A_2 O -1.0531(3) 0.0569(3) -0.3596(3)
O2_2 O -0.8014(3) 0.0945(3) -0.4455(3)
N7_2 N -0.1462(4) 0.7876(3) 0.0640(3)
N7A_2 N -0.8538(4) 0.2124(3) -0.0640(3)
N8_2 N -0.7556(4) -0.0230(3) -0.2139(3)
N8A_2 N -0.2444(4) 1.0230(3) 0.2139(3)
O3 O 0.377(2) 1.2524(15) 0.4554(10)
O4 O 0.3537(16) 0.9509(16) 0.330(2)
loop_
_geom_bond_atom_site_label_1
_geom_bond_atom_site_label_2
_geom_bond_site_symmetry_1
_geom_bond_site_symmetry_2
Zn1 O1 1_555 1_555
O1 C1 1_555 1_555
O2 C1 1_555 1_555
N1 Zn1 1_555 1_555
N2 C6 1_555 1_555
N3 C2 1_555 1_555
N4 C3 1_555 1_555
C1 C1A 1_555 1_555
N5 C7 1_555 1_555
C2 N1 1_555 1_555
H1 C2 1_555 1_555
C3 H2 1_555 1_555
C4 N4 1_555 1_555
H3 C4 1_555 1_555
C5 C3 1_555 1_555
H4 C5 1_555 1_555
C6 H5 1_555 1_555
C7 H6 1_555 1_555
C8 N1 1_555 1_555
H7 C8 1_555 1_555
C9 H8 1_555 1_555
C10 N3 1_555 1_555
H9 C10 1_555 1_555
C11 N2 1_555 1_555
H10 C11 1_555 1_555
C12 N5 1_555 1_555
H11 C12 1_555 1_555
C13 C11 1_555 1_555
H12 C13 1_555 1_555
B1 N2 1_555 1_555
N6 C6 1_555 1_555
N7 C7 1_555 1_555
N8 C4 1_555 1_555
O1A C1A 1_555 1_555
O2A Zn1 1_555 1_555
C1A O2A 1_555 1_555
Zn1A N6 1_555 1_555
N1A Zn1A 1_555 1_555
N2A C6A 1_555 1_555
N3A C2A 1_555 1_555
N4A C3A 1_555 1_555
N5A C7A 1_555 1_555
C2A N1A 1_555 1_555
H1A C2A 1_555 1_555
C3A H2A 1_555 1_555
C4A N4A 1_555 1_555
H3A C4A 1_555 1_555
C5A C3A 1_555 1_555
H4A C5A 1_555 1_555
C6A H5A 1_555 1_555
C7A H6A 1_555 1_555
C8A N1A 1_555 1_555
H7A C8A 1_555 1_555
C9A H8A 1_555 1_555
C10A N3A 1_555 1_555
H9A C10A 1_555 1_555
C11A N2A 1_555 1_555
H10A C11A 1_555 1_555
C12A N5A 1_555 1_555
H11A C12A 1_555 1_555
C13A C11A 1_555 1_555
H12A C13A 1_555 1_555
B1A N2A 1_555 1_555
N6A Zn1 1_555 1_555
N7A C7A 1_555 1_555
N8A C4A 1_555 1_555
Zn1_2 N7 1_555 1_555
Zn1_3 N8A 1_555 1_555
Zn1A_2 N8 1_555 1_555
Zn1A_3 N7A 1_555 1_555
Zn1A_4 O2 1_555 1_555
O1A_2 Zn1A 1_555 1_555
O2_2 Zn1A 1_555 1_555
N7_2 Zn1 1_555 1_555
N7A_2 Zn1A 1_555 1_555
N8_2 Zn1A 1_555 1_555
N8A_2 Zn1 1_555 1_555
N3 B1 1_555 1_555
N4 B1 1_555 1_555
N5 B1 1_555 1_555
C5 N8 1_555 1_555
C8 C10 1_555 1_555
C9 C12 1_555 1_555
C9 N7 1_555 1_555
C13 N6 1_555 1_555
O1A Zn1A_4 1_555 1_555
N3A B1A 1_555 1_555
N4A B1A 1_555 1_555
N5A B1A 1_555 1_555
C5A N8A 1_555 1_555
C6A N6A 1_555 1_555
C8A C10A 1_555 1_555
C9A C12A 1_555 1_555
C9A N7A 1_555 1_555
C13A N6A 1_555 1_555

#END
