
#######################################################################
#
#                 Cambridge Crystallographic Data Centre
#                                CCDC 
#
#######################################################################
#
# If this CIF has been generated from an entry in the Cambridge 
# Structural Database, then it will include bibliographic, chemical, 
# crystal, experimental, refinement or atomic coordinate data resulting 
# from the CCDC's data processing and validation procedures.
#
#######################################################################

data_CUGFOB
_symmetry_cell_setting           triclinic
_symmetry_space_group_name_H-M   'P -1'
_symmetry_Int_Tables_number      2
_space_group_name_Hall           '-P 1'
loop_
_symmetry_equiv_pos_site_id
_symmetry_equiv_pos_as_xyz
1 x,y,z
2 -x,-y,-z
_cell_length_a                   9.0162(7)
_cell_length_b                   10.7479(7)
_cell_length_c                   10.8068(4)
_cell_angle_alpha                97.570(4)
_cell_angle_beta                 97.708(5)
_cell_angle_gamma                110.100(6)
_cell_volume                     956.608
loop_
_atom_site_label
_atom_site_type_symbol
_atom_site_fract_x
_atom_site_fract_y
_atom_site_fract_z
Cd1 Cd 0.70569(3) 0.24814(3) -0.31225(3)
O1 O 0.6802(4) 0.0293(3) -0.3955(3)
O2 O 0.5551(4) -0.1313(3) -0.5665(3)
N1 N 0.9732(4) 0.3271(4) -0.2223(4)
N2 N 1.2199(4) 0.4792(3) -0.1833(3)
N3 N 1.3074(4) 0.6723(3) -0.2964(3)
N4 N 1.4087(4) 0.7035(4) -0.0614(3)
C1 C 1.0581(6) 0.3072(5) -0.1167(4)
H1 H 1.0178 0.2416 -0.0691
C2 C 1.2094(5) 0.3984(5) -0.0934(4)
H2 H 1.2922 0.4057 -0.0281
C3 C 1.0738(5) 0.4302(4) -0.2585(4)
H3 H 1.0467 0.4655 -0.3285
C4 C 1.2189(6) 0.7537(5) -0.2876(5)
H4 H 1.1944 0.7906 -0.2139
C5 C 1.3121(5) 0.6445(5) -0.4204(4)
H5 H 1.3649 0.5906 -0.4527
C6 C 1.5141(5) 0.4455(5) -0.2418(4)
H6 H 1.4335 0.3684 -0.2307
C7 C 1.5497(7) 0.8091(6) -0.0062(5)
H7 H 1.6422 0.8375 -0.0407
C8 C 0.5679(5) -0.0290(4) -0.4884(4)
B1 B 1.3630(6) 0.6071(5) -0.1914(4)
C9 C 1.1740(6) 0.7697(5) -0.4083(5)
H8 H 1.1116 0.8194 -0.4307
C10 C 1.6464(6) 0.6517(5) -0.2504(5)
H9 H 1.6771 0.7440 -0.2479
N5 N 1.5050(4) 0.5690(3) -0.2237(3)
C11 C 1.3129(6) 0.7016(5) 0.0235(4)
H10 H 1.2084 0.6391 0.0112
C12 C 1.7330(6) 0.5761(5) -0.2808(5)
H11 H 1.8345 0.6081 -0.3014
C13 C 1.5299(7) 0.8638(6) 0.1066(5)
N6 N 1.2343(5) 0.7016(4) -0.4917(3)
N7 N 1.6474(5) 0.4445(4) -0.2765(4)
N8 N 1.3804(5) 0.7964(4) 0.1259(4)
H12 H 1.599(9) 0.932(7) 0.160(7)
O1A O 0.3198(4) -0.0293(3) -0.6045(3)
O2A O 0.4449(4) 0.1313(3) -0.4335(3)
C8A C 0.4321(5) 0.0290(4) -0.5116(4)
Cd1A Cd 0.29431(3) -0.24814(3) -0.68775(3)
N1A N 0.0268(4) -0.3271(4) -0.7777(4)
N2A N -0.2199(4) -0.4792(3) -0.8167(3)
N3A N -0.3074(4) -0.6723(3) -0.7036(3)
N4A N -0.4087(4) -0.7035(4) -0.9386(3)
C1A C -0.0581(6) -0.3072(5) -0.8833(4)
H1A H -0.0178 -0.2416 -0.9309
C2A C -0.2094(5) -0.3984(5) -0.9066(4)
H2A H -0.2922 -0.4057 -0.9719
C3A C -0.0738(5) -0.4302(4) -0.7415(4)
H3A H -0.0467 -0.4655 -0.6715
C4A C -0.2189(6) -0.7537(5) -0.7124(5)
H4A H -0.1944 -0.7906 -0.7861
C5A C -0.3121(5) -0.6445(5) -0.5796(4)
H5A H -0.3649 -0.5906 -0.5473
C6A C -0.5141(5) -0.4455(5) -0.7582(4)
H6A H -0.4335 -0.3684 -0.7693
C7A C -0.5497(7) -0.8091(6) -0.9938(5)
H7A H -0.6422 -0.8375 -0.9593
B1A B -0.3630(6) -0.6071(5) -0.8086(4)
C9A C -0.1740(6) -0.7697(5) -0.5917(5)
H8A H -0.1116 -0.8194 -0.5693
C10A C -0.6464(6) -0.6517(5) -0.7496(5)
H9A H -0.6771 -0.7440 -0.7521
N5A N -0.5050(4) -0.5690(3) -0.7763(3)
C11A C -0.3129(6) -0.7016(5) -1.0235(4)
H10A H -0.2084 -0.6391 -1.0112
C12A C -0.7330(6) -0.5761(5) -0.7192(5)
H11A H -0.8345 -0.6081 -0.6986
C13A C -0.5299(7) -0.8638(6) -1.1066(5)
N6A N -0.2343(5) -0.7016(4) -0.5083(3)
N7A N -0.6474(5) -0.4445(4) -0.7235(4)
N8A N -0.3804(5) -0.7964(4) -1.1259(4)
H12A H -0.599(9) -0.932(7) -1.160(7)
Cd1_2 Cd -0.29431(3) -0.75186(3) -1.31225(3)
Cd1_3 Cd -0.29431(3) -0.75186(3) -0.31225(3)
Cd1_4 Cd 1.70569(3) 0.24814(3) -0.31225(3)
Cd1A_2 Cd -0.70569(3) -0.24814(3) -0.68775(3)
Cd1A_3 Cd 1.29431(3) 0.75186(3) -0.68775(3)
Cd1A_4 Cd 1.29431(3) 0.75186(3) 0.31225(3)
N6_2 N 0.2343(5) -0.2984(4) -0.4917(3)
N6A_2 N 0.7657(5) 0.2984(4) -0.5083(3)
N7_2 N 0.6474(5) 0.4445(4) -0.2765(4)
N7A_2 N 0.3526(5) -0.4445(4) -0.7235(4)
N8_2 N 0.3804(5) -0.2036(4) -0.8741(4)
N8A_2 N 0.6196(5) 0.2036(4) -0.1259(4)
O3 O 0.0457(9) 0.0251(8) 0.3203(8)
O4 O 1.1708(8) 0.1864(9) -0.4233(8)
O5 O 0.0397(17) 0.9273(13) 0.9079(13)
loop_
_geom_bond_atom_site_label_1
_geom_bond_atom_site_label_2
_geom_bond_site_symmetry_1
_geom_bond_site_symmetry_2
Cd1 O1 1_555 1_555
O1 C8 1_555 1_555
O2 C8 1_555 1_555
N1 Cd1 1_555 1_555
N2 C2 1_555 1_555
N3 C4 1_555 1_555
N4 C7 1_555 1_555
C1 N1 1_555 1_555
H1 C1 1_555 1_555
C2 C1 1_555 1_555
H2 C2 1_555 1_555
C3 N1 1_555 1_555
H3 C3 1_555 1_555
C4 H4 1_555 1_555
C5 N3 1_555 1_555
H5 C5 1_555 1_555
C6 H6 1_555 1_555
C7 H7 1_555 1_555
C8 C8A 1_555 1_555
B1 N2 1_555 1_555
C9 C4 1_555 1_555
H8 C9 1_555 1_555
C10 H9 1_555 1_555
N5 C6 1_555 1_555
C11 N4 1_555 1_555
H10 C11 1_555 1_555
C12 C10 1_555 1_555
H11 C12 1_555 1_555
C13 C7 1_555 1_555
N6 C5 1_555 1_555
N7 C6 1_555 1_555
N8 C11 1_555 1_555
H12 C13 1_555 1_555
O1A C8A 1_555 1_555
O2A Cd1 1_555 1_555
C8A O2A 1_555 1_555
Cd1A O2 1_555 1_555
N1A Cd1A 1_555 1_555
N2A C2A 1_555 1_555
N3A C4A 1_555 1_555
N4A C7A 1_555 1_555
C1A N1A 1_555 1_555
H1A C1A 1_555 1_555
C2A C1A 1_555 1_555
H2A C2A 1_555 1_555
C3A N1A 1_555 1_555
H3A C3A 1_555 1_555
C4A H4A 1_555 1_555
C5A N3A 1_555 1_555
H5A C5A 1_555 1_555
C6A H6A 1_555 1_555
C7A H7A 1_555 1_555
B1A N2A 1_555 1_555
C9A C4A 1_555 1_555
H8A C9A 1_555 1_555
C10A H9A 1_555 1_555
N5A C6A 1_555 1_555
C11A N4A 1_555 1_555
H10A C11A 1_555 1_555
C12A C10A 1_555 1_555
H11A C12A 1_555 1_555
C13A C7A 1_555 1_555
N6A C5A 1_555 1_555
N7A C6A 1_555 1_555
N8A C11A 1_555 1_555
H12A C13A 1_555 1_555
Cd1_2 N8A 1_555 1_555
Cd1_3 N6A 1_555 1_555
Cd1_4 N7 1_555 1_555
Cd1A_2 N7A 1_555 1_555
Cd1A_3 N6 1_555 1_555
Cd1A_4 N8 1_555 1_555
N6_2 Cd1A 1_555 1_555
N6A_2 Cd1 1_555 1_555
N7_2 Cd1 1_555 1_555
N7A_2 Cd1A 1_555 1_555
N8_2 Cd1A 1_555 1_555
N8A_2 Cd1 1_555 1_555
N2 C3 1_555 1_555
N3 B1 1_555 1_555
N4 B1 1_555 1_555
B1 N5 1_555 1_555
C9 N6 1_555 1_555
C10 N5 1_555 1_555
C12 N7 1_555 1_555
C13 N8 1_555 1_555
O1A Cd1A 1_555 1_555
N2A C3A 1_555 1_555
N3A B1A 1_555 1_555
N4A B1A 1_555 1_555
B1A N5A 1_555 1_555
C9A N6A 1_555 1_555
C10A N5A 1_555 1_555
C12A N7A 1_555 1_555
C13A N8A 1_555 1_555

#END
