
#######################################################################
#
#                 Cambridge Crystallographic Data Centre
#                                CCDC 
#
#######################################################################
#
# If this CIF has been generated from an entry in the Cambridge 
# Structural Database, then it will include bibliographic, chemical, 
# crystal, experimental, refinement or atomic coordinate data resulting 
# from the CCDC's data processing and validation procedures.
#
#######################################################################

data_CUGYOU
_symmetry_cell_setting           tetragonal
_symmetry_space_group_name_H-M   'I 41/a m d'
_symmetry_Int_Tables_number      141
_space_group_name_Hall           '-I 4bd 2'
loop_
_symmetry_equiv_pos_site_id
_symmetry_equiv_pos_as_xyz
1 x,y,z
2 1/2-x,-y,1/2+z
3 1/4-y,3/4+x,1/4+z
4 1/4+y,1/4-x,3/4+z
5 1/2-x,y,1/2-z
6 x,-y,-z
7 1/4+y,3/4+x,1/4-z
8 1/4-y,1/4-x,3/4-z
9 1/2+x,1/2+y,1/2+z
10 -x,1/2-y,z
11 3/4-y,1/4+x,3/4+z
12 3/4+y,3/4-x,1/4+z
13 -x,1/2+y,-z
14 1/2+x,1/2-y,1/2-z
15 3/4+y,1/4+x,3/4-z
16 3/4-y,3/4-x,1/4-z
17 -x,-y,-z
18 1/2+x,y,1/2-z
19 3/4+y,1/4-x,3/4-z
20 3/4-y,3/4+x,1/4-z
21 1/2+x,-y,1/2+z
22 -x,y,z
23 3/4-y,1/4-x,3/4+z
24 3/4+y,3/4+x,1/4+z
25 1/2-x,1/2-y,1/2-z
26 x,1/2+y,-z
27 1/4+y,3/4-x,1/4-z
28 1/4-y,1/4+x,3/4-z
29 x,1/2-y,z
30 1/2-x,1/2+y,1/2+z
31 1/4-y,3/4-x,1/4+z
32 1/4+y,1/4+x,3/4+z
_cell_length_a                   29.6337(16)
_cell_length_b                   29.6337(16)
_cell_length_c                   3.4913(2)
_cell_angle_alpha                90
_cell_angle_beta                 90
_cell_angle_gamma                90
_cell_volume                     3065.91
loop_
_atom_site_label
_atom_site_type_symbol
_atom_site_fract_x
_atom_site_fract_y
_atom_site_fract_z
O1 O 0.2564(15) 0.3505(11) 1.103(10)
H3 H 0.2505 0.3590 1.3295
H4 H 0.2813 0.3512 0.9817
O2 O 0.2500 0.3515(17) 0.7500
O1D O 0.2436(15) 0.3505(11) 0.397(10)
H3D H 0.2495 0.3590 0.1705
H4D H 0.2187 0.3512 0.5183
O1D_2 O 0.2436(15) 0.3505(11) -0.603(10)
H3D_2 H 0.2495 0.3590 -0.8295
H4D_2 H 0.2187 0.3512 -0.4817
O2_2 O 0.2500 0.3515(17) -0.2500
O1_2 O 0.2564(15) 0.3505(11) 0.103(10)
H3_2 H 0.2505 0.3590 0.3295
H4_2 H 0.2813 0.3512 -0.0183
O1_3 O 0.2564(15) 0.3505(11) -0.897(10)
O1D_3 O 0.2436(15) 0.3505(11) 1.397(10)
Ag1 Ag 0.43868(2) 0.31132(2) 0.1250
Ag2 Ag 0.2500 0.2500 0.7500
Br1 Br 0.5000 0.2500 0.6250
N1 N 0.38199(13) 0.27318(14) 0.3119(12)
N2 N 0.31578(19) 0.2500 0.5262(18)
N3 N 0.3294(4) 0.3306(4) 0.469(4)
H1 H 0.3481 0.3513 0.4020
H2 H 0.3031 0.3378 0.5530
C1 C 0.34173(16) 0.2852(2) 0.4405(15)
N1BA N 0.38199(13) 0.22682(14) 0.3119(12)
N3BA N 0.3294(4) 0.1694(4) 0.469(4)
H1BA H 0.3481 0.1487 0.4020
H2BA H 0.3031 0.1622 0.5530
C1BA C 0.34173(16) 0.2148(2) 0.4405(15)
N1D N 0.11801(13) 0.27318(14) 1.1881(12)
N2D N 0.18422(19) 0.2500 0.9738(18)
N3D N 0.1706(4) 0.3306(4) 1.031(4)
H1D H 0.1519 0.3513 1.0980
H2D H 0.1969 0.3378 0.9470
C1D C 0.15827(16) 0.2852(2) 1.0595(15)
N1X N 0.11801(13) 0.22682(14) 1.1881(12)
N3X N 0.1706(4) 0.1694(4) 1.031(4)
H1X H 0.1519 0.1487 1.0980
H2X H 0.1969 0.1622 0.9470
C1X C 0.15827(16) 0.2148(2) 1.0595(15)
Ag1F Ag 0.56132(2) 0.18868(2) 0.1250
Ag2C Ag 0.5000 0.0000 -0.5000
N1F N 0.52318(14) 0.13199(13) -0.0619(12)
N2F N 0.5000 0.06578(19) -0.2762(18)
N3F N 0.5806(4) 0.0794(4) -0.219(4)
H1F H 0.6013 0.0981 -0.1520
H2F H 0.5878 0.0531 -0.3030
C1F C 0.5352(2) 0.09173(16) -0.1905(15)
N1S N 0.47682(14) 0.13199(13) -0.0619(12)
N3S N 0.4194(4) 0.0794(4) -0.219(4)
H1S H 0.3987 0.0981 -0.1520
H2S H 0.4122 0.0531 -0.3030
C1S C 0.4648(2) 0.09173(16) -0.1905(15)
Ag1S Ag 0.43868(2) 0.18868(2) 0.1250
Ag1U Ag 0.56132(2) 0.31132(2) 0.1250
N1O N 0.47682(14) 0.36801(13) -0.0619(12)
N2O N 0.5000 0.43422(19) -0.2762(18)
N3O N 0.4194(4) 0.4206(4) -0.219(4)
H1O H 0.3987 0.4019 -0.1520
H2O H 0.4122 0.4469 -0.3030
C1O C 0.4648(2) 0.40827(16) -0.1905(15)
N1Z N 0.52318(14) 0.36801(13) -0.0619(12)
N3Z N 0.5806(4) 0.4206(4) -0.219(4)
H1Z H 0.6013 0.4019 -0.1520
H2Z H 0.5878 0.4469 -0.3030
C1Z C 0.5352(2) 0.40827(16) -0.1905(15)
Ag1_2 Ag 0.43868(2) 0.31132(2) 1.1250
Ag1D Ag 0.06132(2) 0.31132(2) 1.3750
Ag1F_2 Ag 0.56132(2) 0.18868(2) 1.1250
Ag1S_2 Ag 0.43868(2) 0.18868(2) 1.1250
Ag1U_2 Ag 0.56132(2) 0.31132(2) 1.1250
Ag1W Ag 0.06132(2) 0.18868(2) 1.3750
Ag2J Ag 0.5000 0.5000 -0.5000
Br1_2 Br 0.5000 0.2500 -0.3750
N1I N 0.61801(13) 0.22682(14) 0.3119(12)
N1U N 0.61801(13) 0.27318(14) 0.3119(12)
N2C N 0.5000 -0.06578(19) -0.7238(18)
H5? H 0.3326 0.3150 0.4679
H6? H 0.2600 0.3268 0.6604
H7? H 0.2674 0.3549 0.9416
O3? O 0.343(3) 0.407(3) 0.1250
H8? H 0.3189 0.4308 0.1250
O4? O 0.334(4) 0.400(4) -0.21(3)
H9? H 0.3589 0.4150 -0.1989
H10? H 0.3108 0.4163 -0.1690
O5? O 0.2500 0.449(3) 0.7500
H11? H 0.2588 0.4699 0.8985
H12? H 0.2422 0.4300 0.9209
O6? O 0.2764 0.452(3) 0.9488
H13? H 0.3034 0.4620 0.9456
H14? H 0.2594 0.4491 1.1429
loop_
_geom_bond_atom_site_label_1
_geom_bond_atom_site_label_2
_geom_bond_site_symmetry_1
_geom_bond_site_symmetry_2
Ag1 Br1 1_555 1_555
Ag2 N2 1_555 1_555
Br1 Ag1F 1_555 1_555
N1 Ag1 1_555 1_555
N2 C1 1_555 1_555
N3 H1 1_555 1_555
H2 N3 1_555 1_555
C1 N1 1_555 1_555
O1 H3 1_555 1_555
H4 O1 1_555 1_555
N1BA N1 1_555 1_555
N3BA H1BA 1_555 1_555
H2BA N3BA 1_555 1_555
C1BA N2 1_555 1_555
N1D C1D 1_555 1_555
N2D Ag2 1_555 1_555
N3D H1D 1_555 1_555
H2D N3D 1_555 1_555
C1D N2D 1_555 1_555
N1X N1D 1_555 1_555
N3X H1X 1_555 1_555
H2X N3X 1_555 1_555
C1X N2D 1_555 1_555
Ag1F N1F 1_555 1_555
Ag2C N2F 1_555 1_555
N1F C1F 1_555 1_555
N2F C1F 1_555 1_555
N3F H1F 1_555 1_555
H2F N3F 1_555 1_555
C1F N3F 1_555 1_555
N1S N1F 1_555 1_555
N3S H1S 1_555 1_555
H2S N3S 1_555 1_555
C1S N2F 1_555 1_555
Ag1S Br1 1_555 1_555
Ag1U Br1 1_555 1_555
N1O Ag1 1_555 1_555
N2O C1O 1_555 1_555
N3O H1O 1_555 1_555
H2O N3O 1_555 1_555
C1O N1O 1_555 1_555
N1Z Ag1U 1_555 1_555
N3Z H1Z 1_555 1_555
H2Z N3Z 1_555 1_555
C1Z N2O 1_555 1_555
Ag1_2 Br1 1_555 1_555
Ag1D N1D 1_555 1_555
Ag1F_2 Br1 1_555 1_555
Ag1S_2 Br1 1_555 1_555
Ag1U_2 Br1 1_555 1_555
Ag1W N1X 1_555 1_555
Ag2J N2O 1_555 1_555
Br1_2 Ag1 1_555 1_555
N1I Ag1F 1_555 1_555
N1U Ag1U 1_555 1_555
N2C Ag2C 1_555 1_555
O1D H3D 1_555 1_555
H4D O1D 1_555 1_555
O1D_2 H3D_2 1_555 1_555
H4D_2 O1D_2 1_555 1_555
O1_2 H3_2 1_555 1_555
H4_2 O1_2 1_555 1_555
N3 C1 1_555 1_555
N1BA C1BA 1_555 1_555
N1BA Ag1S 1_555 1_555
N3BA C1BA 1_555 1_555
N3D C1D 1_555 1_555
N1X C1X 1_555 1_555
N3X C1X 1_555 1_555
Ag1F Br1_2 1_555 1_555
N1S C1S 1_555 1_555
N1S Ag1S 1_555 1_555
N3S C1S 1_555 1_555
Ag1S Br1_2 1_555 1_555
Ag1U Br1_2 1_555 1_555
N1O N1Z 1_555 1_555
N3O C1O 1_555 1_555
N1Z C1Z 1_555 1_555
N3Z C1Z 1_555 1_555
N1I N1U 1_555 1_555

#END
