
#######################################################################
#
#                 Cambridge Crystallographic Data Centre
#                                CCDC 
#
#######################################################################
#
# If this CIF has been generated from an entry in the Cambridge 
# Structural Database, then it will include bibliographic, chemical, 
# crystal, experimental, refinement or atomic coordinate data resulting 
# from the CCDC's data processing and validation procedures.
#
#######################################################################

data_CUGYIO
_symmetry_cell_setting           tetragonal
_symmetry_space_group_name_H-M   'I -4 2 d'
_symmetry_Int_Tables_number      122
_space_group_name_Hall           'I -4 2bw'
loop_
_symmetry_equiv_pos_site_id
_symmetry_equiv_pos_as_xyz
1 x,y,z
2 -x,-y,z
3 y,-x,-z
4 -y,x,-z
5 1/2-x,y,3/4-z
6 1/2+x,-y,3/4-z
7 1/2-y,-x,3/4+z
8 1/2+y,x,3/4+z
9 1/2+x,1/2+y,1/2+z
10 1/2-x,1/2-y,1/2+z
11 1/2+y,1/2-x,1/2-z
12 1/2-y,1/2+x,1/2-z
13 -x,1/2+y,1/4-z
14 x,1/2-y,1/4-z
15 -y,1/2-x,1/4+z
16 y,1/2+x,1/4+z
_cell_length_a                   28.708(3)
_cell_length_b                   28.708(3)
_cell_length_c                   3.5249(3)
_cell_angle_alpha                90
_cell_angle_beta                 90
_cell_angle_gamma                90
_cell_volume                     2905.04
loop_
_atom_site_label
_atom_site_type_symbol
_atom_site_fract_x
_atom_site_fract_y
_atom_site_fract_z
Ag1 Ag 0.04316(4) 0.57418(5) 0.2450(4)
Ag2 Ag 0.2500 0.56653(12) 0.8750
N1 N 0.1105(4) 0.5542(4) 0.438(3)
N2 N 0.1229(4) 0.5089(4) 0.434(4)
N3 N 0.1825(4) 0.5488(5) 0.641(4)
C1 C 0.1478(4) 0.5768(4) 0.556(5)
C2 C 0.1449(15) 0.6285(6) 0.56(2)
H1 H 0.1167 0.6378 0.6895
H2 H 0.1450 0.6403 0.3095
H3 H 0.1712 0.6409 0.6996
C3 C 0.1660(5) 0.5080(4) 0.566(5)
H4 H 0.1828 0.4806 0.6007
Cl1 Cl 0.0000 0.5000 -0.2500
Ag1A Ag -0.04316(4) 0.42582(5) 0.2450(4)
Ag2A Ag -0.2500 0.43347(12) 0.8750
N1A N -0.1105(4) 0.4458(4) 0.438(3)
N2A N -0.1229(4) 0.4911(4) 0.434(4)
N3A N -0.1825(4) 0.4512(5) 0.641(4)
C1A C -0.1478(4) 0.4232(4) 0.556(5)
C2A C -0.1449(15) 0.3715(6) 0.56(2)
H1A H -0.1167 0.3622 0.6895
H2A H -0.1450 0.3597 0.3095
H3A H -0.1712 0.3591 0.6996
C3A C -0.1660(5) 0.4920(4) 0.566(5)
H4A H -0.1828 0.5194 0.6007
Ag1J Ag 0.07418(5) 0.45684(4) -0.7450(4)
N1J N 0.0542(4) 0.3895(4) -0.938(3)
N2J N 0.0089(4) 0.3771(4) -0.934(4)
N3J N 0.0488(5) 0.3175(4) -1.141(4)
C1J C 0.0768(4) 0.3522(4) -1.056(5)
C2J C 0.1285(6) 0.3551(15) -1.06(2)
H1J H 0.1378 0.3833 -1.1895
H2J H 0.1403 0.3550 -0.8095
H3J H 0.1409 0.3288 -1.1996
C3J C 0.0080(4) 0.3340(5) -1.066(5)
H4J H -0.0194 0.3172 -1.1007
Ag1K Ag -0.07418(5) 0.54316(4) -0.7450(4)
N1K N -0.0542(4) 0.6105(4) -0.938(3)
N2K N -0.0089(4) 0.6229(4) -0.934(4)
N3K N -0.0488(5) 0.6825(4) -1.141(4)
C1K C -0.0768(4) 0.6478(4) -1.056(5)
C2K C -0.1285(6) 0.6449(15) -1.06(2)
H1K H -0.1378 0.6167 -1.1895
H2K H -0.1403 0.6450 -0.8095
H3K H -0.1409 0.6712 -1.1996
C3K C -0.0080(4) 0.6660(5) -1.066(5)
H4K H 0.0194 0.6828 -1.1007
Ag1_2 Ag 0.04316(4) 0.57418(5) -0.7550(4)
Ag1A_2 Ag -0.04316(4) 0.42582(5) -0.7550(4)
Ag1J_2 Ag 0.07418(5) 0.45684(4) 0.2550(4)
Ag1K_2 Ag -0.07418(5) 0.54316(4) 0.2550(4)
Ag2F Ag -0.06653(12) 0.7500 -1.3750
Ag2G Ag 0.06653(12) 0.2500 -1.3750
N2_2 N 0.1229(4) 0.5089(4) -0.566(4)
N2A_2 N -0.1229(4) 0.4911(4) -0.566(4)
N2J_2 N 0.0089(4) 0.3771(4) 0.066(4)
N2K_2 N -0.0089(4) 0.6229(4) 0.066(4)
N3D N 0.3175(4) 0.5488(5) 1.109(4)
N3E N -0.3175(4) 0.4512(5) 1.109(4)
Cl1_2 Cl 0.0000 0.5000 -1.2500
Cl1_3 Cl 0.0000 0.5000 0.7500
O1 O 0.2500 0.6498(16) 0.3750
O2 O 0.151(3) 0.7500 0.1250
C4? C 0.1897(13) 0.4632(10) 0.627(15)
H5? H 0.1727 0.4453 0.8105
H6? H 0.2207 0.4687 0.7175
H7? H 0.1910 0.4463 0.3916
H8? H 0.1494 0.6091 0.5772
H9? H 0.1778 0.7560 0.0345
H10? H 0.2500 0.6573 0.6084
loop_
_geom_bond_atom_site_label_1
_geom_bond_atom_site_label_2
_geom_bond_site_symmetry_1
_geom_bond_site_symmetry_2
Ag1 N1 1_555 1_555
Ag2 N3 1_555 1_555
N1 N2 1_555 1_555
N2 C3 1_555 1_555
N3 C1 1_555 1_555
C1 N1 1_555 1_555
C2 C1 1_555 1_555
H1 C2 1_555 1_555
H2 C2 1_555 1_555
H3 C2 1_555 1_555
C3 N3 1_555 1_555
H4 C3 1_555 1_555
Cl1 Ag1 1_555 1_555
Ag1A Cl1 1_555 1_555
Ag2A N3A 1_555 1_555
N1A Ag1A 1_555 1_555
N2A N1A 1_555 1_555
N3A C1A 1_555 1_555
C1A N1A 1_555 1_555
C2A C1A 1_555 1_555
H1A C2A 1_555 1_555
H2A C2A 1_555 1_555
H3A C2A 1_555 1_555
C3A N2A 1_555 1_555
H4A C3A 1_555 1_555
Ag1J Cl1 1_555 1_555
N1J Ag1J 1_555 1_555
N2J N1J 1_555 1_555
N3J C1J 1_555 1_555
C1J N1J 1_555 1_555
C2J C1J 1_555 1_555
H1J C2J 1_555 1_555
H2J C2J 1_555 1_555
H3J C2J 1_555 1_555
C3J N2J 1_555 1_555
H4J C3J 1_555 1_555
Ag1K Cl1 1_555 1_555
N1K Ag1K 1_555 1_555
N2K N1K 1_555 1_555
N3K C1K 1_555 1_555
C1K N1K 1_555 1_555
C2K C1K 1_555 1_555
H1K C2K 1_555 1_555
H2K C2K 1_555 1_555
H3K C2K 1_555 1_555
C3K N2K 1_555 1_555
H4K C3K 1_555 1_555
Ag1_2 Cl1 1_555 1_555
Ag1A_2 Cl1 1_555 1_555
Ag1J_2 N2 1_555 1_555
Ag1K_2 Cl1 1_555 1_555
Ag2F N3K 1_555 1_555
Ag2G N3J 1_555 1_555
N2_2 Ag1J 1_555 1_555
N2A_2 Ag1K 1_555 1_555
N2J_2 Ag1A 1_555 1_555
N2K_2 Ag1 1_555 1_555
N3D Ag2 1_555 1_555
N3E Ag2A 1_555 1_555
Cl1_2 Ag1J 1_555 1_555
Cl1_3 Ag1 1_555 1_555
Cl1 Ag1J_2 1_555 1_555
Ag1A Cl1_3 1_555 1_555
N2A Ag1K_2 1_555 1_555
N3A C3A 1_555 1_555
N2J Ag1A_2 1_555 1_555
N3J C3J 1_555 1_555
Ag1K Cl1_2 1_555 1_555
N2K Ag1_2 1_555 1_555
N3K C3K 1_555 1_555
Ag1_2 Cl1_2 1_555 1_555
Ag1A_2 Cl1_2 1_555 1_555
Ag1J_2 Cl1_3 1_555 1_555
Ag1K_2 Cl1_3 1_555 1_555

#END
