
#######################################################################
#
#                 Cambridge Crystallographic Data Centre
#                                CCDC 
#
#######################################################################
#
# If this CIF has been generated from an entry in the Cambridge 
# Structural Database, then it will include bibliographic, chemical, 
# crystal, experimental, refinement or atomic coordinate data resulting 
# from the CCDC's data processing and validation procedures.
#
#######################################################################

data_CUMDUK
_symmetry_cell_setting           orthorhombic
_symmetry_space_group_name_H-M   'P n a 21'
_symmetry_Int_Tables_number      33
_space_group_name_Hall           'P 2c -2n'
loop_
_symmetry_equiv_pos_site_id
_symmetry_equiv_pos_as_xyz
1 x,y,z
2 -x,-y,1/2+z
3 1/2-x,1/2+y,1/2+z
4 1/2+x,1/2-y,z
_cell_length_a                   18.450(15)
_cell_length_b                   20.710(12)
_cell_length_c                   14.174(2)
_cell_angle_alpha                90
_cell_angle_beta                 90
_cell_angle_gamma                90
_cell_volume                     5415.88
loop_
_atom_site_label
_atom_site_type_symbol
_atom_site_fract_x
_atom_site_fract_y
_atom_site_fract_z
Eu1 Eu 0.539520(16) -0.55019(2) -0.80926(3)
O31 O 0.4058(3) -0.5494(3) -0.8087(5)
O32 O 0.5074(4) -0.5743(4) -0.6456(5)
O33 O 0.4916(4) -0.4558(4) -0.7164(6)
O34 O 0.5098(4) -0.6653(3) -0.8094(7)
O35 O 0.4951(3) -0.5808(3) -0.9676(4)
O36 O 0.6360(4) -0.6154(5) -0.7293(6)
O37 O 0.6389(3) -0.4828(4) -0.7509(4)
O38 O 0.6422(3) -0.5722(3) -0.9146(5)
O39 O 0.5367(3) -0.4538(3) -0.9062(5)
Mo1 Mo 0.16142(2) -0.26973(2) 0.09552(4)
Mo2 Mo 0.24589(3) -0.16640(2) 0.09257(4)
Mo3 Mo -0.26377(2) -0.820830(19) 0.09983(3)
Mo4 Mo -0.17506(2) -0.719970(19) 0.09992(3)
S1 S 0.16657(11) -0.19220(9) 0.21406(12)
S2 S -0.19062(8) -0.79056(7) 0.22625(10)
Na1 Na -0.00331(14) -0.49885(12) 0.2585(2)
O1 O 0.2105(2) -0.4325(3) -0.2001(4)
H1 H 0.1969 -0.4614 -0.2378
O2 O 0.0930(2) -0.4279(2) -0.1664(3)
O3 O -0.0096(2) -0.3943(2) 0.1508(3)
O4 O 0.0743(3) -0.3185(2) 0.1643(3)
O5 O -0.0125(5) -0.2125(4) -0.0777(7)
O6 O 0.0637(2) -0.2236(2) 0.0419(4)
O7 O 0.2192(3) -0.3291(2) 0.1262(3)
O8 O 0.2121(2) -0.22503(18) -0.0029(3)
O9 O 0.3257(3) -0.1983(2) 0.1220(3)
O10 O 0.1677(2) -0.1001(2) 0.0264(4)
O11 O 0.1342(3) -0.0502(4) -0.1055(5)
O12 O 0.2677(3) -0.0755(2) 0.1580(3)
O13 O 0.3329(3) 0.0133(2) 0.1475(4)
O14 O 0.4258(3) -0.1661(2) -0.2122(3)
H2 H 0.4518 -0.1473 -0.2523
O15 O 0.4157(3) -0.0668(2) -0.1535(4)
O16 O -0.4312(2) -0.8282(2) -0.2133(3)
H3 H -0.4596 -0.8474 -0.2503
O17 O -0.4027(3) -0.9278(2) -0.1681(4)
O18 O -0.3534(3) -1.0002(2) 0.1538(3)
O19 O -0.2950(2) -0.90709(19) 0.1703(3)
O20 O -0.1341(3) -0.9468(3) -0.0641(4)
O21 O -0.1820(2) -0.89222(19) 0.0554(3)
O22 O -0.3452(2) -0.7854(2) 0.1159(3)
O23 O -0.22123(18) -0.76909(16) 0.0020(3)
O24 O -0.2332(2) -0.65847(18) 0.1167(3)
O25 O -0.0766(2) -0.77291(19) 0.0578(3)
O26 O -0.0045(3) -0.7999(3) -0.0600(4)
O27 O -0.0893(2) -0.6722(2) 0.1708(3)
O28 O 0.0023(2) -0.6034(2) 0.1567(3)
O29 O -0.1989(2) -0.5593(2) -0.2039(3)
H4 H -0.1806 -0.5362 -0.2464
O30 O -0.0829(2) -0.5789(2) -0.1707(3)
N1 N -0.3119(2) -0.8791(2) -0.0225(3)
N2 N -0.1218(2) -0.6641(2) -0.0224(3)
N3 N 0.1183(2) -0.3347(2) -0.0222(3)
N4 N 0.3068(2) -0.1128(2) -0.0255(3)
C1 C 0.1548(3) -0.4120(3) -0.1513(5)
C2 C 0.1792(3) -0.3658(3) -0.0748(4)
H5 H 0.2100 -0.3896 -0.0294
H6 H 0.2094 -0.3316 -0.1038
C3 C 0.0732(3) -0.3833(3) 0.0256(4)
H7 H 0.1025 -0.4229 0.0349
H8 H 0.0322 -0.3947 -0.0165
C4 C 0.0432(3) -0.3630(3) 0.1188(4)
C5 C 0.0771(4) -0.2935(3) -0.0884(5)
H9 H 0.0412 -0.3204 -0.1224
H10 H 0.1107 -0.2751 -0.1357
C6 C 0.0384(4) -0.2396(4) -0.0385(7)
C7 C 0.4019(3) -0.1244(4) -0.1516(5)
C8 C 0.3566(4) -0.1562(3) -0.0763(5)
H11 H 0.3277 -0.1910 -0.1059
H12 H 0.3895 -0.1766 -0.0299
C9 C 0.3129(4) -0.0399(3) 0.1174(4)
C10 C 0.3467(3) -0.0612(3) 0.0255(4)
H13 H 0.3506 -0.0231 -0.0165
H14 H 0.3965 -0.0766 0.0384
C11 C 0.1791(4) -0.0782(4) -0.0551(5)
C12 C 0.2540(4) -0.0857(4) -0.0938(5)
H15 H 0.2520 -0.1142 -0.1498
H16 H 0.2716 -0.0429 -0.1150
C13 C -0.3995(3) -0.8704(3) -0.1583(4)
C14 C -0.3594(3) -0.8362(3) -0.0779(4)
H17 H -0.3298 -0.8009 -0.1049
H18 H -0.3955 -0.8164 -0.0351
C15 C -0.3314(3) -0.9480(3) 0.1230(4)
C16 C -0.3542(3) -0.9314(3) 0.0232(4)
H19 H -0.3503 -0.9707 -0.0161
H20 H -0.4059 -0.9185 0.0242
C17 C -0.1845(3) -0.9170(3) -0.0277(4)
C18 C -0.2529(3) -0.9028(3) -0.0825(4)
H21 H -0.2421 -0.8701 -0.1315
H22 H -0.2689 -0.9427 -0.1149
C19 C -0.1467(3) -0.5874(3) -0.1549(5)
C20 C -0.1775(3) -0.6296(3) -0.0774(4)
H23 H -0.2063 -0.6023 -0.0340
H24 H -0.2107 -0.6617 -0.1060
C21 C -0.0507(3) -0.6327(3) 0.1237(4)
C22 C -0.0695(3) -0.6188(3) 0.0231(4)
H25 H -0.0900 -0.5746 0.0196
H26 H -0.0242 -0.6189 -0.0143
C23 C -0.0509(3) -0.7655(3) -0.0256(5)
C24 C -0.0852(4) -0.7123(3) -0.0828(4)
H27 H -0.0474 -0.6905 -0.1208
H28 H -0.1210 -0.7313 -0.1269
Na1A Na 0.00331(14) -0.50115(12) -0.2415(2)
Na1B Na 0.50331(14) 0.00115(12) -0.2415(2)
Na1B_2 Na -0.49669(14) -0.99885(12) -0.2415(2)
O2A O -0.0930(2) -0.5721(2) 0.3336(3)
O15B O 0.0843(3) -0.5668(2) 0.3465(4)
O17B O -0.0973(3) -0.4278(2) 0.3319(4)
O30A O 0.0829(2) -0.4211(2) 0.3293(3)
O40 O 0.3071(9) -0.4442(6) 0.1048(19)
O41 O 0.4818(6) -0.3207(6) -0.7696(9)
O42 O 0.3570(5) -0.4110(5) -0.6069(7)
O43 O 0.3275(6) -0.3061(6) -0.7186(8)
O44 O 0.5792(10) -0.6056(8) -0.4965(13)
loop_
_geom_bond_atom_site_label_1
_geom_bond_atom_site_label_2
_geom_bond_site_symmetry_1
_geom_bond_site_symmetry_2
Eu1 O31 1_555 1_555
Mo1 Mo2 1_555 1_555
Mo2 S1 1_555 1_555
Mo3 Mo4 1_555 1_555
Mo4 S2 1_555 1_555
S1 Mo1 1_555 1_555
S2 Mo3 1_555 1_555
Na1 O3 1_555 1_555
O1 H1 1_555 1_555
O2 C1 1_555 1_555
O3 C4 1_555 1_555
O4 Mo1 1_555 1_555
O5 C6 1_555 1_555
O6 Mo1 1_555 1_555
O7 Mo1 1_555 1_555
O8 Mo1 1_555 1_555
O9 Mo2 1_555 1_555
O10 Mo2 1_555 1_555
O11 C11 1_555 1_555
O12 Mo2 1_555 1_555
O13 C9 1_555 1_555
O14 H2 1_555 1_555
O15 C7 1_555 1_555
O16 H3 1_555 1_555
O17 C13 1_555 1_555
O18 C15 1_555 1_555
O19 Mo3 1_555 1_555
O20 C17 1_555 1_555
O21 Mo3 1_555 1_555
O22 Mo3 1_555 1_555
O23 Mo3 1_555 1_555
O24 Mo4 1_555 1_555
O25 Mo4 1_555 1_555
O26 C23 1_555 1_555
O27 Mo4 1_555 1_555
O28 Na1 1_555 1_555
O29 H4 1_555 1_555
O30 C19 1_555 1_555
O32 Eu1 1_555 1_555
O33 Eu1 1_555 1_555
O34 Eu1 1_555 1_555
O35 Eu1 1_555 1_555
O36 Eu1 1_555 1_555
O37 Eu1 1_555 1_555
O38 Eu1 1_555 1_555
O39 Eu1 1_555 1_555
N1 Mo3 1_555 1_555
N2 Mo4 1_555 1_555
N3 Mo1 1_555 1_555
N4 Mo2 1_555 1_555
C1 O1 1_555 1_555
C2 N3 1_555 1_555
H5 C2 1_555 1_555
H6 C2 1_555 1_555
C3 N3 1_555 1_555
H7 C3 1_555 1_555
H8 C3 1_555 1_555
C4 O4 1_555 1_555
C5 N3 1_555 1_555
H9 C5 1_555 1_555
H10 C5 1_555 1_555
C6 O6 1_555 1_555
C7 O14 1_555 1_555
C8 N4 1_555 1_555
H11 C8 1_555 1_555
H12 C8 1_555 1_555
C9 O12 1_555 1_555
C10 N4 1_555 1_555
H13 C10 1_555 1_555
H14 C10 1_555 1_555
C11 O10 1_555 1_555
C12 N4 1_555 1_555
H15 C12 1_555 1_555
H16 C12 1_555 1_555
C13 O16 1_555 1_555
C14 N1 1_555 1_555
H17 C14 1_555 1_555
H18 C14 1_555 1_555
C15 O19 1_555 1_555
C16 N1 1_555 1_555
H19 C16 1_555 1_555
H20 C16 1_555 1_555
C17 O21 1_555 1_555
C18 N1 1_555 1_555
H21 C18 1_555 1_555
H22 C18 1_555 1_555
C19 O29 1_555 1_555
C20 N2 1_555 1_555
H23 C20 1_555 1_555
H24 C20 1_555 1_555
C21 O27 1_555 1_555
C22 N2 1_555 1_555
H25 C22 1_555 1_555
H26 C22 1_555 1_555
C23 O25 1_555 1_555
C24 N2 1_555 1_555
H27 C24 1_555 1_555
H28 C24 1_555 1_555
Na1A O2 1_555 1_555
Na1B O15 1_555 1_555
Na1B_2 O17 1_555 1_555
O2A Na1 1_555 1_555
O15B Na1 1_555 1_555
O17B Na1 1_555 1_555
O30A Na1 1_555 1_555
Mo2 O8 1_555 1_555
Mo4 O23 1_555 1_555
O28 C21 1_555 1_555
O30 Na1A 1_555 1_555
C1 C2 1_555 1_555
C3 C4 1_555 1_555
C5 C6 1_555 1_555
C7 C8 1_555 1_555
C9 C10 1_555 1_555
C11 C12 1_555 1_555
C13 C14 1_555 1_555
C15 C16 1_555 1_555
C17 C18 1_555 1_555
C19 C20 1_555 1_555
C21 C22 1_555 1_555
C23 C24 1_555 1_555

#END
