
#######################################################################
#
#                 Cambridge Crystallographic Data Centre
#                                CCDC 
#
#######################################################################
#
# If this CIF has been generated from an entry in the Cambridge 
# Structural Database, then it will include bibliographic, chemical, 
# crystal, experimental, refinement or atomic coordinate data resulting 
# from the CCDC's data processing and validation procedures.
#
#######################################################################

data_CUMQOQ
_symmetry_cell_setting           triclinic
_symmetry_space_group_name_H-M   'P -1'
_symmetry_Int_Tables_number      2
_space_group_name_Hall           '-P 1'
loop_
_symmetry_equiv_pos_site_id
_symmetry_equiv_pos_as_xyz
1 x,y,z
2 -x,-y,-z
_cell_length_a                   11.491(2)
_cell_length_b                   12.094(2)
_cell_length_c                   12.620(3)
_cell_angle_alpha                69.61(3)
_cell_angle_beta                 64.15(3)
_cell_angle_gamma                72.46(3)
_cell_volume                     1456.04
loop_
_atom_site_label
_atom_site_type_symbol
_atom_site_fract_x
_atom_site_fract_y
_atom_site_fract_z
Zn1 Zn 0.0000 -1.0000 0.0000
Zn2 Zn -1.0000 -0.5000 0.5000
Zn3 Zn 0.0000 -0.5000 0.0000
O1 O 0.0592(4) -1.0259(4) 0.1475(4)
H1 H 0.0832 -1.1037 0.1869
H2 H 0.1019 -0.9828 0.1504
O2 O -1.0167(5) -0.4081(4) 0.3303(4)
H3 H -1.0890 -0.3838 0.3163
H4 H -0.9988 -0.3294 0.2995
O3 O -0.0494(6) -0.5892(5) 0.1882(5)
H5 H -0.1130 -0.5831 0.1867
H6 H 0.0156 -0.6571 0.1717
S1 S -1.15395(15) -0.74121(14) 0.61218(15)
O4 O -1.0936(4) -0.6404(4) 0.5157(4)
O5 O -1.2919(5) -0.7225(5) 0.6279(6)
O6 O -1.0843(5) -0.8545(4) 0.5732(5)
O7 O -1.1406(5) -0.7516(4) 0.7264(4)
S2 S -0.15421(14) -0.24190(13) 0.10334(15)
O8 O -0.0732(4) -0.1638(4) 0.0996(4)
O9 O -0.0743(5) -0.3287(6) 0.0385(8)
O10 O -0.2017(6) -0.3193(6) 0.2353(6)
O11 O -0.2712(6) -0.1810(5) 0.0818(7)
N1 N -0.1856(5) -0.9009(4) 0.0912(4)
N2 N -0.8125(5) -0.5923(4) 0.4084(5)
C1 C -0.1980(6) -0.8289(5) 0.1585(6)
H7 H -0.1195 -0.8193 0.1611
C2 C -0.3174(6) -0.7684(5) 0.2228(6)
H8 H -0.3207 -0.7192 0.2699
C3 C -0.4344(6) -0.7789(5) 0.2190(5)
C4 C -0.4201(6) -0.8536(6) 0.1481(6)
H9 H -0.4962 -0.8643 0.1418
C5 C -0.2973(6) -0.9105(6) 0.0882(6)
H10 H -0.2907 -0.9610 0.0408
C6 C -0.5649(5) -0.7154(5) 0.2855(5)
C7 C -0.5810(6) -0.6493(6) 0.3643(6)
H11 H -0.5064 -0.6447 0.3772
C8 C -0.7042(6) -0.5911(6) 0.4229(6)
H12 H -1.2867 -0.4526 0.5226
C9 C -1.2016(6) -0.3443(6) 0.6672(6)
H13 H -1.1249 -0.3419 0.6782
C10 C -1.3213(6) -0.2829(6) 0.7286(6)
H14 H -1.3268 -0.2384 0.7811
N3 N 0.1907(5) -0.4944(5) -0.0080(5)
C11 C 0.3027(7) -0.5534(7) -0.0739(8)
H15 H 0.2988 -0.5935 -0.1256
C12 C 0.4240(6) -0.5589(6) -0.0721(7)
H16 H 0.5015 -0.6048 -0.1189
C13 C 0.4349(5) -0.4983(5) -0.0018(6)
C14 C 0.3194(6) -0.4328(6) 0.0630(6)
H17 H 0.3218 -0.3879 0.1113
C15 C 0.2009(6) -0.4324(6) 0.0575(6)
H18 H 0.1223 -0.3861 0.1025
O3A O 0.0494(6) -0.4108(5) -0.1882(5)
H5A H 0.1130 -0.4169 -0.1867
H6A H -0.0156 -0.3429 -0.1717
O9A O 0.0743(5) -0.6713(6) -0.0385(8)
S2A S 0.15421(14) -0.75810(13) -0.10334(15)
O8A O 0.0732(4) -0.8362(4) -0.0996(4)
Zn1_2 Zn 0.0000 0.0000 0.0000
O1A O -0.0592(4) -0.9741(4) -0.1475(4)
O8_2 O -0.0732(4) -1.1638(4) 0.0996(4)
O2A O -0.9833(5) -0.5919(4) 0.6697(4)
H3A H -0.9110 -0.6162 0.6837
H4A H -1.0012 -0.6706 0.7005
O4A O -0.9064(4) -0.3596(4) 0.4843(4)
S1A S -0.84605(15) -0.25879(14) 0.38782(15)
O5A O -0.7081(5) -0.2775(5) 0.3721(6)
O6A O -0.9157(5) -0.1455(4) 0.4268(5)
O7A O -0.8594(5) -0.2484(4) 0.2736(4)
N2A N -1.1875(5) -0.4077(4) 0.5916(5)
C8A C -1.2958(6) -0.4089(6) 0.5771(6)
C7A C -1.4190(6) -0.3507(6) 0.6357(6)
C6A C -1.4351(5) -0.2846(5) 0.7145(5)
C3A C -1.5656(6) -0.2211(5) 0.7810(5)
C2A C -1.6826(6) -0.2316(5) 0.7772(6)
C1A C -1.8020(6) -0.1711(5) 0.8415(6)
N1A N -1.8144(5) -0.0991(4) 0.9088(4)
Zn1_3 Zn -2.0000 0.0000 1.0000
C5A C -1.7027(6) -0.0895(6) 0.9118(6)
C4A C -1.5799(6) -0.1464(6) 0.8519(6)
H9A H -1.5038 -0.1357 0.8582
H10A H -1.7093 -0.0390 0.9592
H7A H -1.8805 -0.1807 0.8389
H8A H -1.6793 -0.2808 0.7301
H11A H -1.4936 -0.3553 0.6228
C9A C -0.7984(6) -0.6557(6) 0.3328(6)
H13A H -0.8751 -0.6581 0.3218
C10A C -0.6787(6) -0.7171(6) 0.2714(6)
H14A H -0.6732 -0.7616 0.2189
H12A H -0.7133 -0.5474 0.4774
N1A_2 N 0.1856(5) -1.0991(4) -0.0912(4)
O10A O 0.2017(6) -0.6807(6) -0.2353(6)
O11A O 0.2712(6) -0.8190(5) -0.0818(7)
C13A C 0.5651(5) -0.5017(5) 0.0018(6)
C12A C 0.5760(6) -0.4411(6) 0.0721(7)
C11A C 0.6973(7) -0.4466(7) 0.0739(8)
N3A N 0.8093(5) -0.5056(5) 0.0080(5)
Zn3A Zn 1.0000 -0.5000 0.0000
C15A C 0.7991(6) -0.5676(6) -0.0575(6)
C14A C 0.6806(6) -0.5672(6) -0.0630(6)
H17A H 0.6782 -0.6121 -0.1113
H18A H 0.8777 -0.6139 -0.1025
H15A H 0.7012 -0.4065 0.1256
H16A H 0.4985 -0.3952 0.1189
N3A_2 N -0.1907(5) -0.5056(5) 0.0080(5)
H1A H -0.0832 -0.8963 -0.1869
H2A H -0.1019 -1.0172 -0.1504
N4 N 0.8400(5) -0.0610(5) -0.5681(5)
H19 H 0.9366 -0.0839 -0.5747
C16 C 0.7619(7) 0.0087(7) -0.4924(7)
H20 H 0.7990 0.0398 -0.4560
C17 C 0.6291(7) 0.0352(6) -0.4659(7)
H21 H 0.5738 0.0874 -0.4135
C18 C 0.5728(6) -0.0128(5) -0.5153(5)
C19 C 0.6579(6) -0.0835(6) -0.5950(6)
H22 H 0.6234 -0.1157 -0.6327
C20 C 0.7920(7) -0.1069(6) -0.6195(6)
H23 H 0.8505 -0.1566 -0.6736
C18A C 0.4272(6) 0.0128(5) -0.4847(5)
C17A C 0.3709(7) -0.0352(6) -0.5341(7)
C16A C 0.2381(7) -0.0087(7) -0.5076(7)
N4A N 0.1600(5) 0.0610(5) -0.4319(5)
H19A H 0.0634 0.0839 -0.4253
C20A C 0.2080(7) 0.1069(6) -0.3805(6)
C19A C 0.3421(6) 0.0835(6) -0.4050(6)
H22A H 0.3766 0.1157 -0.3673
H23A H 0.1495 0.1566 -0.3264
H20A H 0.2010 -0.0398 -0.5440
H21A H 0.4262 -0.0874 -0.5865
O12 O 1.2613(8) 0.0875(7) -0.8385(7)
H24 H 1.3606 0.0245 -0.8786
H25 H 1.2451 0.1200 -0.9197
O13 O 1.2947(7) -0.4096(6) -0.3722(6)
H26 H 1.3387 -0.3752 -0.4395
H27 H 1.2039 -0.3545 -0.3797
O14 O 1.0048(8) 0.1733(7) -0.6907(6)
H28 H 1.1032 0.1382 -0.7444
H29 H 1.0000 0.1320 -0.6010
O15 O 1.5532(7) -0.3652(8) -0.6198(7)
H30 H 1.4611 -0.3318 -0.6360
H31 H 1.6211 -0.3165 -0.7062
O16 O 1.4501(8) -0.1159(8) -0.8151(10)
H32 H 1.4379 -0.1673 -0.8700
H33 H 1.3933 -0.0465 -0.7952
loop_
_geom_bond_atom_site_label_1
_geom_bond_atom_site_label_2
_geom_bond_site_symmetry_1
_geom_bond_site_symmetry_2
Zn1 O1 1_555 1_555
Zn2 O2 1_555 1_555
Zn3 O3 1_555 1_555
O1 H1 1_555 1_555
H2 O1 1_555 1_555
O2 H3 1_555 1_555
H4 O2 1_555 1_555
O3 H5 1_555 1_555
H6 O3 1_555 1_555
S1 O4 1_555 1_555
O4 Zn2 1_555 1_555
O5 S1 1_555 1_555
O6 S1 1_555 1_555
O7 S1 1_555 1_555
S2 O8 1_555 1_555
O8 Zn1_2 1_555 1_555
O9 Zn3 1_555 1_555
O10 S2 1_555 1_555
O11 S2 1_555 1_555
N1 Zn1 1_555 1_555
N2 Zn2 1_555 1_555
C1 N1 1_555 1_555
H7 C1 1_555 1_555
C2 C1 1_555 1_555
H8 C2 1_555 1_555
C3 C2 1_555 1_555
C4 C3 1_555 1_555
H9 C4 1_555 1_555
C5 N1 1_555 1_555
H10 C5 1_555 1_555
C6 C3 1_555 1_555
C7 C6 1_555 1_555
H11 C7 1_555 1_555
C8 N2 1_555 1_555
H12 C8A 1_555 1_555
C9 H13 1_555 1_555
C10 C9 1_555 1_555
H14 C10 1_555 1_555
N3 Zn3 1_555 1_555
C11 N3 1_555 1_555
H15 C11 1_555 1_555
C12 C11 1_555 1_555
H16 C12 1_555 1_555
C13 C12 1_555 1_555
C14 C13 1_555 1_555
H17 C14 1_555 1_555
C15 N3 1_555 1_555
H18 C15 1_555 1_555
N4 H19 1_555 1_555
C16 N4 1_555 1_555
H20 C16 1_555 1_555
C17 C16 1_555 1_555
H21 C17 1_555 1_555
C18 C17 1_555 1_555
C19 C18 1_555 1_555
H22 C19 1_555 1_555
C20 N4 1_555 1_555
H23 C20 1_555 1_555
O12 H24 1_555 1_555
H25 O12 1_555 1_555
O13 H26 1_555 1_555
H27 O13 1_555 1_555
O14 H28 1_555 1_555
H29 O14 1_555 1_555
O15 H30 1_555 1_555
H31 O15 1_555 1_555
O16 H32 1_555 1_555
H33 O16 1_555 1_555
O3A Zn3 1_555 1_555
H5A O3A 1_555 1_555
H6A O3A 1_555 1_555
O9A Zn3 1_555 1_555
S2A O9A 1_555 1_555
O8A Zn1 1_555 1_555
O1A Zn1 1_555 1_555
O8_2 Zn1 1_555 1_555
O2A Zn2 1_555 1_555
H3A O2A 1_555 1_555
H4A O2A 1_555 1_555
O4A Zn2 1_555 1_555
S1A O4A 1_555 1_555
O5A S1A 1_555 1_555
O6A S1A 1_555 1_555
O7A S1A 1_555 1_555
N2A Zn2 1_555 1_555
C8A N2A 1_555 1_555
C7A C8A 1_555 1_555
C6A C10 1_555 1_555
C3A C6A 1_555 1_555
C2A C3A 1_555 1_555
C1A C2A 1_555 1_555
N1A C1A 1_555 1_555
Zn1_3 N1A 1_555 1_555
C5A N1A 1_555 1_555
C4A C3A 1_555 1_555
H9A C4A 1_555 1_555
H10A C5A 1_555 1_555
H7A C1A 1_555 1_555
H8A C2A 1_555 1_555
H11A C7A 1_555 1_555
C9A N2 1_555 1_555
H13A C9A 1_555 1_555
C10A C6 1_555 1_555
H14A C10A 1_555 1_555
H12A C8 1_555 1_555
N1A_2 Zn1 1_555 1_555
O10A S2A 1_555 1_555
O11A S2A 1_555 1_555
C13A C13 1_555 1_555
C12A C13A 1_555 1_555
C11A C12A 1_555 1_555
N3A C11A 1_555 1_555
Zn3A N3A 1_555 1_555
C15A N3A 1_555 1_555
C14A C13A 1_555 1_555
H17A C14A 1_555 1_555
H18A C15A 1_555 1_555
H15A C11A 1_555 1_555
H16A C12A 1_555 1_555
N3A_2 Zn3 1_555 1_555
C18A C18 1_555 1_555
C17A C18A 1_555 1_555
C16A C17A 1_555 1_555
N4A C16A 1_555 1_555
H19A N4A 1_555 1_555
C20A N4A 1_555 1_555
C19A C18A 1_555 1_555
H22A C19A 1_555 1_555
H23A C20A 1_555 1_555
H20A C16A 1_555 1_555
H21A C17A 1_555 1_555
H1A O1A 1_555 1_555
H2A O1A 1_555 1_555
S2 O9 1_555 1_555
C4 C5 1_555 1_555
C7 C8 1_555 1_555
C9 N2A 1_555 1_555
C14 C15 1_555 1_555
C19 C20 1_555 1_555
S2A O8A 1_555 1_555
C7A C6A 1_555 1_555
C5A C4A 1_555 1_555
C9A C10A 1_555 1_555
C15A C14A 1_555 1_555
C20A C19A 1_555 1_555

#END
