
#######################################################################
#
#                 Cambridge Crystallographic Data Centre
#                                CCDC 
#
#######################################################################
#
# If this CIF has been generated from an entry in the Cambridge 
# Structural Database, then it will include bibliographic, chemical, 
# crystal, experimental, refinement or atomic coordinate data resulting 
# from the CCDC's data processing and validation procedures.
#
#######################################################################

data_CUNQUZ
_symmetry_cell_setting           monoclinic
_symmetry_space_group_name_H-M   'P 21/n'
_symmetry_Int_Tables_number      14
_space_group_name_Hall           '-P 2yn'
loop_
_symmetry_equiv_pos_site_id
_symmetry_equiv_pos_as_xyz
1 x,y,z
2 1/2-x,1/2+y,1/2-z
3 -x,-y,-z
4 1/2+x,1/2-y,1/2+z
_cell_length_a                   5.63389(10)
_cell_length_b                   15.9428(2)
_cell_length_c                   9.61828(15)
_cell_angle_alpha                90
_cell_angle_beta                 91.1156(15)
_cell_angle_gamma                90
_cell_volume                     863.75
loop_
_atom_site_label
_atom_site_type_symbol
_atom_site_fract_x
_atom_site_fract_y
_atom_site_fract_z
Cd1 Cd 0.29808(5) 0.33175(2) 0.93741(3)
P1 P 0.3075(2) 0.19603(7) 0.65010(11)
O1 O 0.3638(7) 0.2262(2) 0.7973(3)
O2 O 0.4921(6) 0.2244(2) 0.5484(4)
O3 O 0.0562(6) 0.2196(2) 0.6074(3)
O4 O 0.3131(6) 0.0963(2) 0.6579(3)
H1 H 0.4480 0.0796 0.6434
O5 O 0.5759(6) 0.4288(2) 0.8684(3)
O6 O 0.7457(7) 0.5497(2) 0.9280(3)
O7 O 0.0141(7) 0.3726(2) 0.7616(4)
H2 H -0.1156 0.3864 0.7993
H3 H -0.0104 0.3317 0.7066
C1 C 0.5924(8) 0.4939(3) 0.9411(4)
O5B O 0.4241(6) 0.5712(2) 1.1316(3)
O6B O 0.2543(7) 0.4503(2) 1.0720(3)
C1B C 0.4076(8) 0.5061(3) 1.0589(4)
Cd1B Cd 0.70192(5) 0.66825(2) 1.06259(3)
P1B P 0.6925(2) 0.80397(7) 1.34990(11)
O1B O 0.6362(7) 0.7738(2) 1.2027(3)
O2B O 0.5079(6) 0.7756(2) 1.4516(4)
O3B O 0.9438(6) 0.7804(2) 1.3926(3)
O4B O 0.6869(6) 0.9037(2) 1.3421(3)
H1B H 0.5520 0.9204 1.3566
O7B O 0.9859(7) 0.6274(2) 1.2384(4)
H2B H 1.1156 0.6136 1.2007
H3B H 1.0104 0.6683 1.2934
Cd1A Cd 0.20192(5) 0.83175(2) 1.56259(3)
Cd1A_2 Cd 1.20192(5) 0.83175(2) 1.56259(3)
Cd1C Cd -0.20192(5) 0.16825(2) 0.43741(3)
Cd1C_2 Cd 0.79808(5) 0.16825(2) 0.43741(3)
O2A O 1.0079(6) 0.7244(2) 0.9516(4)
O2C O -0.0079(6) 0.2756(2) 1.0484(4)
O3A O 0.4438(6) 0.7196(2) 0.8926(3)
O3C O 0.5562(6) 0.2804(2) 1.1074(3)
C2 C 0.2731(10) 0.4214(4) 0.4282(5)
H4 H 0.1790 0.4163 0.5111
H5 H 0.1908 0.4592 0.3645
C3 C 0.5116(10) 0.4575(3) 0.4665(6)
H6 H 0.6059 0.4625 0.3836
H7 H 0.5938 0.4198 0.5303
N1 N 0.2968(9) 0.3382(2) 0.3623(5)
H8 H 0.3788 0.3431 0.2846
H9 H 0.1533 0.3177 0.3421
H10 H 0.3726 0.3036 0.4206
C2B C 0.7269(10) 0.5786(4) 0.5718(5)
H4B H 0.8210 0.5837 0.4889
H5B H 0.8092 0.5408 0.6355
C3B C 0.4884(10) 0.5425(3) 0.5335(6)
H6B H 0.3941 0.5375 0.6164
H7B H 0.4062 0.5802 0.4697
N1B N 0.7032(9) 0.6618(2) 0.6377(5)
H8B H 0.6212 0.6569 0.7154
H9B H 0.8467 0.6823 0.6579
H10B H 0.6274 0.6964 0.5794
loop_
_geom_bond_atom_site_label_1
_geom_bond_atom_site_label_2
_geom_bond_site_symmetry_1
_geom_bond_site_symmetry_2
Cd1 O1 1_555 1_555
P1 O1 1_555 1_555
O2 P1 1_555 1_555
O3 P1 1_555 1_555
O4 P1 1_555 1_555
H1 O4 1_555 1_555
O5 Cd1 1_555 1_555
O6 C1 1_555 1_555
O7 Cd1 1_555 1_555
H2 O7 1_555 1_555
H3 O7 1_555 1_555
C1 O5 1_555 1_555
C2 H4 1_555 1_555
H5 C2 1_555 1_555
C3 C2 1_555 1_555
H6 C3 1_555 1_555
H7 C3 1_555 1_555
N1 C2 1_555 1_555
H8 N1 1_555 1_555
H9 N1 1_555 1_555
H10 N1 1_555 1_555
O5B C1B 1_555 1_555
O6B Cd1 1_555 1_555
C1B C1 1_555 1_555
Cd1B O6 1_555 1_555
P1B O1B 1_555 1_555
O1B Cd1B 1_555 1_555
O2B P1B 1_555 1_555
O3B P1B 1_555 1_555
O4B P1B 1_555 1_555
H1B O4B 1_555 1_555
O7B Cd1B 1_555 1_555
H2B O7B 1_555 1_555
H3B O7B 1_555 1_555
Cd1A O2B 1_555 1_555
Cd1A_2 O3B 1_555 1_555
Cd1C O3 1_555 1_555
Cd1C_2 O2 1_555 1_555
O2A Cd1B 1_555 1_555
O2C Cd1 1_555 1_555
O3A Cd1B 1_555 1_555
O3C Cd1 1_555 1_555
C2B H4B 1_555 1_555
H5B C2B 1_555 1_555
C3B C3 1_555 1_555
H6B C3B 1_555 1_555
H7B C3B 1_555 1_555
N1B C2B 1_555 1_555
H8B N1B 1_555 1_555
H9B N1B 1_555 1_555
H10B N1B 1_555 1_555
O5B Cd1B 1_555 1_555
O6B C1B 1_555 1_555
C2B C3B 1_555 1_555

#END
