
#######################################################################
#
#                 Cambridge Crystallographic Data Centre
#                                CCDC 
#
#######################################################################
#
# If this CIF has been generated from an entry in the Cambridge 
# Structural Database, then it will include bibliographic, chemical, 
# crystal, experimental, refinement or atomic coordinate data resulting 
# from the CCDC's data processing and validation procedures.
#
#######################################################################

data_CUNQOT
_symmetry_cell_setting           monoclinic
_symmetry_space_group_name_H-M   'P 21/n'
_symmetry_Int_Tables_number      14
_space_group_name_Hall           '-P 2yn'
loop_
_symmetry_equiv_pos_site_id
_symmetry_equiv_pos_as_xyz
1 x,y,z
2 1/2-x,1/2+y,1/2-z
3 -x,-y,-z
4 1/2+x,1/2-y,1/2+z
_cell_length_a                   5.56671(11)
_cell_length_b                   15.6297(3)
_cell_length_c                   9.54079(18)
_cell_angle_alpha                90
_cell_angle_beta                 91.8039(17)
_cell_angle_gamma                90
_cell_volume                     829.695
loop_
_atom_site_label
_atom_site_type_symbol
_atom_site_fract_x
_atom_site_fract_y
_atom_site_fract_z
Mn1 Mn 0.69614(8) 0.66845(3) 0.56126(4)
P1 P 0.18503(13) 0.69831(5) 0.35375(7)
O1 O 0.4362(4) 0.72178(15) 0.4062(2)
O2 O -0.0102(4) 0.72222(14) 0.4528(2)
O3 O 0.1356(4) 0.73450(15) 0.2078(2)
O4 O 0.1828(4) 0.59687(14) 0.3359(2)
H1 H 0.0545 0.5778 0.3620
O5 O 0.7439(4) 0.55217(14) 0.4287(2)
O6 O 0.5761(4) 0.42681(14) 0.3702(2)
O7 O 0.9774(4) 0.62553(16) 0.7303(2)
H2 H 1.0176 0.6680 0.7879
H3 H 1.1105 0.6075 0.6914
C1 C 0.5926(5) 0.49375(18) 0.4416(3)
O5B O 0.2561(4) 0.44783(14) 0.5713(2)
O6B O 0.4239(4) 0.57319(14) 0.6298(2)
C1B C 0.4074(5) 0.50625(18) 0.5584(3)
Mn1B Mn 0.30386(8) 0.33155(3) 0.43874(4)
P1B P 0.81497(13) 0.30169(5) 0.64625(7)
O1B O 0.5638(4) 0.27822(15) 0.5938(2)
O2B O 1.0102(4) 0.27778(14) 0.5472(2)
O3B O 0.8644(4) 0.26550(15) 0.7922(2)
O4B O 0.8172(4) 0.40313(14) 0.6641(2)
H1B H 0.9455 0.4222 0.6380
O7B O 0.0226(4) 0.37447(16) 0.2697(2)
H2B H -0.0176 0.3320 0.2121
H3B H -0.1105 0.3925 0.3086
Mn1_2 Mn -0.30386(8) 0.66845(3) 0.56126(4)
Mn1A Mn 0.80386(8) 0.16845(3) 0.93874(4)
Mn1B_2 Mn 1.30386(8) 0.33155(3) 0.43874(4)
Mn1C Mn 0.19614(8) 0.83155(3) 0.06126(4)
O2_2 O 0.9898(4) 0.72222(14) 0.4528(2)
O2B_2 O 0.0102(4) 0.27778(14) 0.5472(2)
O3A O 0.3644(4) 0.23450(15) 0.2922(2)
O3C O 0.6356(4) 0.76550(15) 0.7078(2)
N1 N 0.3033(6) 0.33541(18) 0.8565(3)
H4 H 0.3791 0.3428 0.7766
H5 H 0.1595 0.3124 0.8382
H6 H 0.3891 0.3007 0.9125
C2 C 0.2738(7) 0.4189(2) 0.9263(4)
H7 H 0.1821 0.4113 1.0102
H8 H 0.1853 0.4574 0.8640
C3 C 0.5150(7) 0.4574(2) 0.9651(4)
H9 H 0.6030 0.4191 1.0280
H10 H 0.6073 0.4644 0.8813
N1B N 0.6967(6) 0.66459(18) 1.1435(3)
H4B H 0.6209 0.6572 1.2234
H5B H 0.8405 0.6876 1.1618
H6B H 0.6109 0.6993 1.0875
C2B C 0.7262(7) 0.5811(2) 1.0737(4)
H7B H 0.8179 0.5887 0.9898
H8B H 0.8147 0.5426 1.1360
C3B C 0.4850(7) 0.5426(2) 1.0349(4)
H9B H 0.3970 0.5809 0.9720
H10B H 0.3927 0.5356 1.1187
loop_
_geom_bond_atom_site_label_1
_geom_bond_atom_site_label_2
_geom_bond_site_symmetry_1
_geom_bond_site_symmetry_2
Mn1 O1 1_555 1_555
P1 O1 1_555 1_555
O2 P1 1_555 1_555
O3 P1 1_555 1_555
O4 P1 1_555 1_555
H1 O4 1_555 1_555
O5 Mn1 1_555 1_555
O6 C1 1_555 1_555
O7 Mn1 1_555 1_555
H2 O7 1_555 1_555
H3 O7 1_555 1_555
C1 O5 1_555 1_555
N1 H4 1_555 1_555
H5 N1 1_555 1_555
H6 N1 1_555 1_555
C2 N1 1_555 1_555
H7 C2 1_555 1_555
H8 C2 1_555 1_555
C3 C2 1_555 1_555
H9 C3 1_555 1_555
H10 C3 1_555 1_555
O5B C1B 1_555 1_555
O6B Mn1 1_555 1_555
C1B C1 1_555 1_555
Mn1B O6 1_555 1_555
P1B O1B 1_555 1_555
O1B Mn1B 1_555 1_555
O2B P1B 1_555 1_555
O3B P1B 1_555 1_555
O4B P1B 1_555 1_555
H1B O4B 1_555 1_555
O7B Mn1B 1_555 1_555
H2B O7B 1_555 1_555
H3B O7B 1_555 1_555
Mn1_2 O2 1_555 1_555
Mn1A O3B 1_555 1_555
Mn1B_2 O2B 1_555 1_555
Mn1C O3 1_555 1_555
O2_2 Mn1 1_555 1_555
O2B_2 Mn1B 1_555 1_555
O3A Mn1B 1_555 1_555
O3C Mn1 1_555 1_555
N1B H4B 1_555 1_555
H5B N1B 1_555 1_555
H6B N1B 1_555 1_555
C2B N1B 1_555 1_555
H7B C2B 1_555 1_555
H8B C2B 1_555 1_555
C3B C3 1_555 1_555
H9B C3B 1_555 1_555
H10B C3B 1_555 1_555
O5B Mn1B 1_555 1_555
O6B C1B 1_555 1_555
C2B C3B 1_555 1_555

#END
