
#######################################################################
#
#                 Cambridge Crystallographic Data Centre
#                                CCDC 
#
#######################################################################
#
# If this CIF has been generated from an entry in the Cambridge 
# Structural Database, then it will include bibliographic, chemical, 
# crystal, experimental, refinement or atomic coordinate data resulting 
# from the CCDC's data processing and validation procedures.
#
#######################################################################

data_CUQSAK
_symmetry_cell_setting           rhombohedral
_symmetry_space_group_name_H-M   'R -3'
_symmetry_Int_Tables_number      148
_space_group_name_Hall           '-R 3'
loop_
_symmetry_equiv_pos_site_id
_symmetry_equiv_pos_as_xyz
1 x,y,z
2 -y,x-y,z
3 -x+y,-x,z
4 2/3+x,1/3+y,1/3+z
5 2/3-y,1/3+x-y,1/3+z
6 2/3-x+y,1/3-x,1/3+z
7 1/3+x,2/3+y,2/3+z
8 1/3-y,2/3+x-y,2/3+z
9 1/3-x+y,2/3-x,2/3+z
10 -x,-y,-z
11 y,-x+y,-z
12 x-y,x,-z
13 1/3-x,2/3-y,2/3-z
14 1/3+y,2/3-x+y,2/3-z
15 1/3+x-y,2/3+x,2/3-z
16 2/3-x,1/3-y,1/3-z
17 2/3+y,1/3-x+y,1/3-z
18 2/3+x-y,1/3+x,1/3-z
_cell_length_a                   29.5994(13)
_cell_length_b                   29.5994(13)
_cell_length_c                   52.255(4)
_cell_angle_alpha                90
_cell_angle_beta                 90
_cell_angle_gamma                120
_cell_volume                     39648.3
loop_
_atom_site_label
_atom_site_type_symbol
_atom_site_fract_x
_atom_site_fract_y
_atom_site_fract_z
Cu1 Cu 0.28871(4) 0.48534(4) 0.38208(2)
Cu2 Cu 0.3333 0.1667 0.6667
Cu3 Cu 0.3333 0.6667 0.37324(4)
O1 O 0.1068(2) 0.4965(2) 0.56068(19)
O2 O 0.06709(18) 0.45334(17) 0.60542(15)
O3 O 0.05246(16) 0.51718(18) 0.60893(13)
O4 O 0.3808(2) 0.4838(2) 0.53933(12)
O5 O 0.3289(2) 0.5185(2) 0.51169(11)
O6 O 0.2592(3) 0.4348(3) 0.51539(16)
O7 O 0.1991(2) 0.35717(17) 0.66282(11)
O8 O 0.2879(4) 0.3676(4) 0.6436(2)
O9 O 0.3426(4) 0.4031(4) 0.6751(2)
N1 N 0.2821(3) 0.4807(3) 0.42161(13)
N2 N 0.3263(2) 0.5966(4) 0.37433(13)
N3 N 0.3948(3) 0.1925(2) 0.64672(17)
C1 C 0.21580(8) 0.53223(7) 0.61949(5)
C2 C 0.16298(9) 0.50085(9) 0.62482(6)
H1 H 0.1520 0.4877 0.6416
C3 C 0.12629(8) 0.48865(10) 0.60554(7)
C4 C 0.14242(9) 0.50784(10) 0.58094(6)
C5 C 0.19524(9) 0.53921(8) 0.57561(6)
H2 H 0.2063 0.5523 0.5588
C6 C 0.23193(8) 0.55141(6) 0.59489(5)
C7 C 0.28780(9) 0.58787(6) 0.58834(5)
H3 H 0.3065 0.6063 0.6041
H4 H 0.2895 0.6144 0.5762
C8 C 0.31628(8) 0.56164(7) 0.57649(5)
C9 C 0.30965(10) 0.55309(9) 0.55002(5)
H5 H 0.2921 0.5664 0.5400
C10 C 0.33241(11) 0.52077(12) 0.53783(5)
C11 C 0.35722(10) 0.50904(11) 0.55293(6)
C12 C 0.36576(7) 0.51879(10) 0.57992(6)
H6 H 0.3865 0.5089 0.5897
C13 C 0.33946(7) 0.54562(7) 0.59118(5)
C14 C 0.34799(7) 0.55146(8) 0.61970(5)
H7 H 0.3447 0.5813 0.6258
H8 H 0.3836 0.5586 0.6238
C15 C 0.30836(9) 0.50215(9) 0.63318(4)
C16 C 0.31692(10) 0.46143(10) 0.63614(5)
H9 H 0.3494 0.4655 0.6307
C17 C 0.28189(12) 0.41627(10) 0.64630(5)
C18 C 0.23625(12) 0.40721(10) 0.65391(5)
C19 C 0.22316(11) 0.44795(9) 0.65144(4)
H10 H 0.1896 0.4424 0.6559
C20 C 0.26300(10) 0.49651(8) 0.64205(4)
C21 C 0.24588(10) 0.53573(8) 0.64023(4)
H11 H 0.2260 0.5332 0.6559
H12 H 0.2774 0.5708 0.6401
C22 C 0.12063(13) 0.51128(15) 0.53482(7)
H13 H 0.1447 0.5490 0.5339
H14 H 0.0892 0.5023 0.5249
H15 H 0.1376 0.4928 0.5278
C23 C 0.03224(9) 0.47231(15) 0.60516(10)
C24 C -0.01448(13) 0.43227(15) 0.61149(10)
C25 C -0.02568(13) 0.38072(15) 0.61145(6)
H16 H 0.0017 0.3730 0.6095
C26 C -0.07688(13) 0.34048(14) 0.61427(9)
H17 H -0.0845 0.3052 0.6142
N4 N -0.11687(12) 0.35178(16) 0.61714(9)
C27 C -0.10568(14) 0.40333(18) 0.61718(8)
H18 H -0.1330 0.4111 0.6191
C28 C -0.05448(15) 0.44357(15) 0.61436(11)
H19 H -0.0468 0.4788 0.6144
C29 C 0.14362(18) 0.3425(2) 0.66662(13)
H20 H 0.1418 0.3680 0.6780
H21 H 0.1245 0.3078 0.6744
H22 H 0.1279 0.3422 0.6501
C30 C 0.3113(2) 0.3714(4) 0.6569(2)
C31 C 0.3266(2) 0.32153(18) 0.66085(7)
C32 C 0.3632(2) 0.31982(17) 0.67684(7)
H23 H 0.3848 0.3488 0.6874
C33 C 0.36842(19) 0.27568(17) 0.67732(7)
H24 H 0.3935 0.2745 0.6882
N5 N 0.33694(18) 0.23323(16) 0.66182(8)
C34 C 0.30029(16) 0.23493(15) 0.64583(8)
H25 H 0.2788 0.2059 0.6352
C35 C 0.29511(16) 0.27908(17) 0.64535(8)
H26 H 0.2701 0.2802 0.6344
C36 C 0.41042(14) 0.47113(11) 0.55228(7)
H27 H 0.4378 0.5021 0.5610
H28 H 0.4264 0.4572 0.5406
H29 H 0.3893 0.4445 0.5650
C37 C 0.29170(14) 0.46555(13) 0.50495(7)
C38 C 0.29435(14) 0.47921(13) 0.47472(7)
C39 C 0.25244(14) 0.43039(14) 0.46040(8)
H30 H 0.2279 0.3986 0.4683
C40 C 0.25584(16) 0.43956(15) 0.43515(8)
H31 H 0.2343 0.4093 0.4253
C41 C 0.31653(16) 0.52882(14) 0.43168(7)
H32 H 0.3345 0.5596 0.4217
C42 C 0.32254(16) 0.52761(13) 0.45977(7)
H33 H 0.3454 0.5592 0.4684
C43 C 0.3213(2) 0.55149(19) 0.37503(8)
C44 C 0.4280(3) 0.1986(2) 0.63471(8)
Cu1A Cu 0.51466(4) 0.80337(6) 0.38208(2)
Cu2A Cu 0.8333 1.1666 0.6667
O1A O 0.5035(2) 0.6103(3) 0.56068(19)
O2A O 0.54666(17) 0.61375(25) 0.60542(15)
O3A O 0.48282(18) 0.53528(24) 0.60893(13)
O4A O 0.5162(2) 0.8970(3) 0.53933(12)
O5A O 0.4815(2) 0.8104(3) 0.51169(11)
O6A O 0.5652(3) 0.8244(4) 0.51539(16)
O7A O 0.64283(17) 0.84193(26) 0.66282(11)
O8A O 0.6324(4) 0.9203(6) 0.6436(2)
O9A O 0.5969(4) 0.9395(6) 0.6751(2)
N1A N 0.5193(3) 0.8014(4) 0.42161(13)
N2A N 0.4034(4) 0.7297(4) 0.37433(13)
N3A N 0.8075(2) 1.2023(4) 0.64672(17)
C1A C 0.46777(7) 0.68357(11) 0.61949(5)
C2A C 0.49915(9) 0.66213(13) 0.62482(6)
H1A H 0.5123 0.6643 0.6416
C3A C 0.51135(10) 0.63764(13) 0.60554(7)
C4A C 0.49216(10) 0.63458(13) 0.58094(6)
C5A C 0.46079(8) 0.65603(12) 0.57561(6)
H2A H 0.4477 0.6540 0.5588
C6A C 0.44859(6) 0.68052(10) 0.59489(5)
C7A C 0.41213(6) 0.69993(11) 0.58834(5)
H3A H 0.3937 0.7002 0.6041
H4A H 0.3856 0.6751 0.5762
C8A C 0.43836(7) 0.75464(11) 0.57649(5)
C9A C 0.44691(9) 0.75656(13) 0.55002(5)
H5A H 0.4336 0.7257 0.5400
C10A C 0.47923(12) 0.81164(16) 0.53783(5)
C11A C 0.49096(11) 0.84818(15) 0.55293(6)
C12A C 0.48121(10) 0.84697(12) 0.57992(6)
H6A H 0.4911 0.8776 0.5897
C13A C 0.45438(7) 0.79384(10) 0.59118(5)
C14A C 0.44854(8) 0.79653(11) 0.61970(5)
H7A H 0.4187 0.7634 0.6258
H8A H 0.4414 0.8250 0.6238
C15A C 0.49785(9) 0.80621(13) 0.63318(4)
C16A C 0.53857(10) 0.85549(14) 0.63614(5)
H9A H 0.5345 0.8839 0.6307
C17A C 0.58373(10) 0.86562(16) 0.64630(5)
C18A C 0.59279(10) 0.82904(16) 0.65391(5)
C19A C 0.55205(9) 0.77521(14) 0.65144(4)
H10A H 0.5576 0.7472 0.6559
C20A C 0.50349(8) 0.76649(13) 0.64205(4)
C21A C 0.46427(8) 0.71015(13) 0.64023(4)
H11A H 0.4668 0.6928 0.6559
H12A H 0.4292 0.7066 0.6401
C22A C 0.48872(15) 0.60935(20) 0.53482(7)
H13A H 0.4510 0.5957 0.5339
H14A H 0.4977 0.5869 0.5249
H15A H 0.5072 0.6448 0.5278
C23A C 0.52769(15) 0.55993(17) 0.60516(10)
C24A C 0.56773(15) 0.55325(20) 0.61149(10)
C25A C 0.61928(15) 0.59360(20) 0.61145(6)
H16A H 0.6270 0.6287 0.6095
C26A C 0.65952(14) 0.58264(19) 0.61427(9)
H17A H 0.6948 0.6103 0.6142
N4A N 0.64822(16) 0.53135(20) 0.61714(9)
C27A C 0.59667(18) 0.49099(23) 0.61718(8)
H18A H 0.5889 0.4559 0.6191
C28A C 0.55643(15) 0.50195(21) 0.61436(11)
H19A H 0.5212 0.4744 0.6144
C29A C 0.6575(2) 0.80112(27) 0.66662(13)
H20A H 0.6320 0.7738 0.6780
H21A H 0.6922 0.8167 0.6744
H22A H 0.6578 0.7857 0.6501
C30A C 0.6286(4) 0.9399(4) 0.6569(2)
C31A C 0.67847(18) 1.00507(27) 0.66085(7)
C32A C 0.68018(17) 1.04338(26) 0.67684(7)
H23A H 0.6512 1.0360 0.6874
C33A C 0.72432(17) 1.09274(25) 0.67732(7)
H24A H 0.7255 1.1190 0.6882
N5A N 0.76677(16) 1.10371(24) 0.66182(8)
C34A C 0.76507(15) 1.06536(22) 0.64583(8)
H25A H 0.7941 1.0729 0.6352
C35A C 0.72092(17) 1.01603(23) 0.64535(8)
H26A H 0.7198 0.9899 0.6344
C36A C 0.52887(11) 0.93929(18) 0.55228(7)
H27A H 0.4979 0.9357 0.5610
H28A H 0.5428 0.9692 0.5406
H29A H 0.5555 0.9448 0.5650
C37A C 0.53445(13) 0.82615(19) 0.50495(7)
C38A C 0.52079(13) 0.81514(19) 0.47472(7)
C39A C 0.56961(14) 0.82205(20) 0.46040(8)
H30A H 0.6014 0.8293 0.4683
C40A C 0.56044(15) 0.81628(22) 0.43515(8)
H31A H 0.5907 0.8250 0.4253
C41A C 0.47118(14) 0.78771(21) 0.43168(7)
H32A H 0.4404 0.7749 0.4217
C42A C 0.47239(13) 0.79493(21) 0.45977(7)
H33A H 0.4408 0.7862 0.4684
C43A C 0.44851(19) 0.76981(28) 0.37503(8)
C44A C 0.8014(2) 1.2294(4) 0.63471(8)
Cu1B Cu 0.19663(6) 0.71129(4) 0.38208(2)
Cu2B Cu -0.1666 0.6667 0.6667
O1B O 0.3897(3) 0.8932(2) 0.56068(19)
O2B O 0.38625(25) 0.93291(18) 0.60542(15)
O3B O 0.46472(24) 0.94754(16) 0.60893(13)
O4B O 0.1030(3) 0.6192(2) 0.53933(12)
O5B O 0.1896(3) 0.6711(2) 0.51169(11)
O6B O 0.1756(4) 0.7408(3) 0.51539(16)
O7B O 0.15807(26) 0.8009(2) 0.66282(11)
O8B O 0.0797(6) 0.7121(4) 0.6436(2)
O9B O 0.0605(6) 0.6574(4) 0.6751(2)
N1B N 0.1986(4) 0.7179(3) 0.42161(13)
N2B N 0.2703(4) 0.6737(2) 0.37433(13)
N3B N -0.2023(4) 0.6052(3) 0.64672(17)
C1B C 0.31643(11) 0.78420(8) 0.61949(5)
C2B C 0.33787(13) 0.83702(9) 0.62482(6)
H1B H 0.3357 0.8480 0.6416
C3B C 0.36236(13) 0.87371(8) 0.60554(7)
C4B C 0.36542(13) 0.85758(9) 0.58094(6)
C5B C 0.34397(12) 0.80476(9) 0.57561(6)
H2B H 0.3460 0.7937 0.5588
C6B C 0.31948(10) 0.76807(8) 0.59489(5)
C7B C 0.30007(11) 0.71220(9) 0.58834(5)
H3B H 0.2998 0.6935 0.6041
H4B H 0.3249 0.7105 0.5762
C8B C 0.24536(11) 0.68372(8) 0.57649(5)
C9B C 0.24344(13) 0.69035(10) 0.55002(5)
H5B H 0.2743 0.7079 0.5400
C10B C 0.18836(16) 0.66759(11) 0.53783(5)
C11B C 0.15182(15) 0.64278(10) 0.55293(6)
C12B C 0.15303(12) 0.63424(7) 0.57992(6)
H6B H 0.1224 0.6135 0.5897
C13B C 0.20616(10) 0.66054(7) 0.59118(5)
C14B C 0.20347(11) 0.65201(7) 0.61970(5)
H7B H 0.2366 0.6553 0.6258
H8B H 0.1750 0.6164 0.6238
C15B C 0.19379(13) 0.69164(9) 0.63318(4)
C16B C 0.14451(14) 0.68308(10) 0.63614(5)
H9B H 0.1161 0.6506 0.6307
C17B C 0.13438(16) 0.71811(12) 0.64630(5)
C18B C 0.17096(16) 0.76375(12) 0.65391(5)
C19B C 0.22479(14) 0.77684(11) 0.65144(4)
H10B H 0.2528 0.8104 0.6559
C20B C 0.23351(13) 0.73700(10) 0.64205(4)
C21B C 0.28985(13) 0.75412(10) 0.64023(4)
H11B H 0.3072 0.7740 0.6559
H12B H 0.2934 0.7226 0.6401
C22B C 0.39065(20) 0.87937(13) 0.53482(7)
H13B H 0.4043 0.8553 0.5339
H14B H 0.4131 0.9108 0.5249
H15B H 0.3552 0.8624 0.5278
C23B C 0.44007(17) 0.96776(9) 0.60516(10)
C24B C 0.44675(20) 1.01448(13) 0.61149(10)
C25B C 0.40640(20) 1.02568(13) 0.61145(6)
H16B H 0.3713 0.9983 0.6095
C26B C 0.41736(19) 1.07688(13) 0.61427(9)
H17B H 0.3897 1.0845 0.6142
N4B N 0.46865(20) 1.11687(12) 0.61714(9)
C27B C 0.50901(23) 1.10568(14) 0.61718(8)
H18B H 0.5441 1.1330 0.6191
C28B C 0.49805(21) 1.05448(15) 0.61436(11)
H19B H 0.5256 1.0468 0.6144
C29B C 0.19888(27) 0.85638(18) 0.66662(13)
H20B H 0.2262 0.8582 0.6780
H21B H 0.1833 0.8755 0.6744
H22B H 0.2143 0.8721 0.6501
C30B C 0.0601(4) 0.6887(2) 0.6569(2)
C31B C -0.00507(27) 0.6734(2) 0.66085(7)
C32B C -0.04338(26) 0.6368(2) 0.67684(7)
H23B H -0.0360 0.6152 0.6874
C33B C -0.09274(25) 0.63158(19) 0.67732(7)
H24B H -0.1190 0.6065 0.6882
N5B N -0.10371(24) 0.66306(18) 0.66182(8)
C34B C -0.06536(22) 0.69971(16) 0.64583(8)
H25B H -0.0729 0.7212 0.6352
C35B C -0.01603(23) 0.70489(16) 0.64535(8)
H26B H 0.0101 0.7299 0.6344
C36B C 0.06071(18) 0.58958(14) 0.55228(7)
H27B H 0.0643 0.5622 0.5610
H28B H 0.0308 0.5736 0.5406
H29B H 0.0552 0.6107 0.5650
C37B C 0.17385(19) 0.70830(14) 0.50495(7)
C38B C 0.18486(19) 0.70565(14) 0.47472(7)
C39B C 0.17795(20) 0.74756(14) 0.46040(8)
H30B H 0.1707 0.7721 0.4683
C40B C 0.18372(22) 0.74416(16) 0.43515(8)
H31B H 0.1750 0.7657 0.4253
C41B C 0.21229(21) 0.68347(16) 0.43168(7)
H32B H 0.2251 0.6655 0.4217
C42B C 0.20507(21) 0.67746(16) 0.45977(7)
H33B H 0.2138 0.6546 0.4684
C43B C 0.23019(28) 0.6787(2) 0.37503(8)
C44B C -0.2294(4) 0.5720(3) 0.63471(8)
Cu1I Cu -0.28871(4) 0.51466(4) 0.61792(2)
Cu3I Cu -0.3333 0.3333 0.62676(4)
O1I O -0.1068(2) 0.5035(2) 0.43932(19)
O2I O -0.06709(18) 0.54666(17) 0.39458(15)
O3I O -0.05246(16) 0.48282(18) 0.39107(13)
O4I O -0.3808(2) 0.5162(2) 0.46067(12)
O5I O -0.3289(2) 0.4815(2) 0.48831(11)
O6I O -0.2592(3) 0.5652(3) 0.48461(16)
O7I O -0.1991(2) 0.64283(17) 0.33718(11)
O8I O -0.2879(4) 0.6324(4) 0.3564(2)
O9I O -0.3426(4) 0.5969(4) 0.3249(2)
N1I N -0.2821(3) 0.5193(3) 0.57839(13)
N2I N -0.3263(2) 0.4034(4) 0.62567(13)
C1I C -0.21580(8) 0.46777(7) 0.38051(5)
C2I C -0.16298(9) 0.49915(9) 0.37518(6)
H1I H -0.1520 0.5123 0.3584
C3I C -0.12629(8) 0.51135(10) 0.39446(7)
C4I C -0.14242(9) 0.49216(10) 0.41906(6)
C5I C -0.19524(9) 0.46079(8) 0.42439(6)
H2I H -0.2063 0.4477 0.4412
C6I C -0.23193(8) 0.44859(6) 0.40511(5)
C7I C -0.28780(9) 0.41213(6) 0.41166(5)
H3I H -0.3065 0.3937 0.3959
H4I H -0.2895 0.3856 0.4238
C8I C -0.31628(8) 0.43836(7) 0.42351(5)
C9I C -0.30965(10) 0.44691(9) 0.44998(5)
H5I H -0.2921 0.4336 0.4600
C10I C -0.33241(11) 0.47923(12) 0.46217(5)
C11I C -0.35722(10) 0.49096(11) 0.44707(6)
C12I C -0.36576(7) 0.48121(10) 0.42008(6)
H6I H -0.3865 0.4911 0.4103
C13I C -0.33946(7) 0.45438(7) 0.40882(5)
C14I C -0.34799(7) 0.44854(8) 0.38030(5)
H7I H -0.3447 0.4187 0.3742
H8I H -0.3836 0.4414 0.3762
C15I C -0.30836(9) 0.49785(9) 0.36682(4)
C16I C -0.31692(10) 0.53857(10) 0.36386(5)
H9I H -0.3494 0.5345 0.3693
C17I C -0.28189(12) 0.58373(10) 0.35370(5)
C18I C -0.23625(12) 0.59279(10) 0.34609(5)
C19I C -0.22316(11) 0.55205(9) 0.34856(4)
H10I H -0.1896 0.5576 0.3441
C20I C -0.26300(10) 0.50349(8) 0.35795(4)
C21I C -0.24588(10) 0.46427(8) 0.35977(4)
H11I H -0.2260 0.4668 0.3441
H12I H -0.2774 0.4292 0.3599
C22I C -0.12063(13) 0.48872(15) 0.46518(7)
H13I H -0.1447 0.4510 0.4661
H14I H -0.0892 0.4977 0.4751
H15I H -0.1376 0.5072 0.4722
C23I C -0.03224(9) 0.52769(15) 0.39484(10)
C24I C 0.01448(13) 0.56773(15) 0.38851(10)
C25I C 0.02568(13) 0.61928(15) 0.38855(6)
H16I H -0.0017 0.6270 0.3905
C26I C 0.07688(13) 0.65952(14) 0.38573(9)
H17I H 0.0845 0.6948 0.3858
N4I N 0.11687(12) 0.64822(16) 0.38286(9)
C27I C 0.10568(14) 0.59667(18) 0.38282(8)
H18I H 0.1330 0.5889 0.3809
C28I C 0.05448(15) 0.55643(15) 0.38564(11)
H19I H 0.0468 0.5212 0.3856
C29I C -0.14362(18) 0.6575(2) 0.33338(13)
H20I H -0.1418 0.6320 0.3220
H21I H -0.1245 0.6922 0.3256
H22I H -0.1279 0.6578 0.3499
C30I C -0.3113(2) 0.6286(4) 0.3431(2)
C31I C -0.3266(2) 0.67847(18) 0.33915(7)
C32I C -0.3632(2) 0.68018(17) 0.32316(7)
H23I H -0.3848 0.6512 0.3126
C33I C -0.36842(19) 0.72432(17) 0.32268(7)
H24I H -0.3935 0.7255 0.3118
N5I N -0.33694(18) 0.76677(16) 0.33818(8)
C34I C -0.30029(16) 0.76507(15) 0.35417(8)
H25I H -0.2788 0.7941 0.3648
C35I C -0.29511(16) 0.72092(17) 0.35465(8)
H26I H -0.2701 0.7198 0.3656
C36I C -0.41042(14) 0.52887(11) 0.44772(7)
H27I H -0.4378 0.4979 0.4390
H28I H -0.4264 0.5428 0.4594
H29I H -0.3893 0.5555 0.4350
C37I C -0.29170(14) 0.53445(13) 0.49505(7)
C38I C -0.29435(14) 0.52079(13) 0.52528(7)
C39I C -0.25244(14) 0.56961(14) 0.53960(8)
H30I H -0.2279 0.6014 0.5317
C40I C -0.25584(16) 0.56044(15) 0.56485(8)
H31I H -0.2343 0.5907 0.5747
C41I C -0.31653(16) 0.47118(14) 0.56832(7)
H32I H -0.3345 0.4404 0.5783
C42I C -0.32254(16) 0.47239(13) 0.54023(7)
H33I H -0.3454 0.4408 0.5316
C43I C -0.3213(2) 0.44851(19) 0.62497(8)
Cu1J Cu 0.48534(4) 0.19663(6) 0.61792(2)
O1J O 0.4965(2) 0.3897(3) 0.43932(19)
O2J O 0.45334(17) 0.38625(25) 0.39458(15)
O3J O 0.51718(18) 0.46472(24) 0.39107(13)
O4J O 0.4838(2) 0.1030(3) 0.46067(12)
O5J O 0.5185(2) 0.1896(3) 0.48831(11)
O6J O 0.4348(3) 0.1756(4) 0.48461(16)
O7J O 0.35717(17) 0.15807(26) 0.33718(11)
O8J O 0.3676(4) 0.0797(6) 0.3564(2)
O9J O 0.4031(4) 0.0605(6) 0.3249(2)
N1J N 0.4807(3) 0.1986(4) 0.57839(13)
N2J N 0.5966(4) 0.2703(4) 0.62567(13)
C1J C 0.53223(7) 0.31643(11) 0.38051(5)
C2J C 0.50085(9) 0.33787(13) 0.37518(6)
H1J H 0.4877 0.3357 0.3584
C3J C 0.48865(10) 0.36236(13) 0.39446(7)
C4J C 0.50784(10) 0.36542(13) 0.41906(6)
C5J C 0.53921(8) 0.34397(12) 0.42439(6)
H2J H 0.5523 0.3460 0.4412
C6J C 0.55141(6) 0.31948(10) 0.40511(5)
C7J C 0.58787(6) 0.30007(11) 0.41166(5)
H3J H 0.6063 0.2998 0.3959
H4J H 0.6144 0.3249 0.4238
C8J C 0.56164(7) 0.24536(11) 0.42351(5)
C9J C 0.55309(9) 0.24344(13) 0.44998(5)
H5J H 0.5664 0.2743 0.4600
C10J C 0.52077(12) 0.18836(16) 0.46217(5)
C11J C 0.50904(11) 0.15182(15) 0.44707(6)
C12J C 0.51879(10) 0.15303(12) 0.42008(6)
H6J H 0.5089 0.1224 0.4103
C13J C 0.54562(7) 0.20616(10) 0.40882(5)
C14J C 0.55146(8) 0.20347(11) 0.38030(5)
H7J H 0.5813 0.2366 0.3742
H8J H 0.5586 0.1750 0.3762
C15J C 0.50215(9) 0.19379(13) 0.36682(4)
C16J C 0.46143(10) 0.14451(14) 0.36386(5)
H9J H 0.4655 0.1161 0.3693
C17J C 0.41627(10) 0.13438(16) 0.35370(5)
C18J C 0.40721(10) 0.17096(16) 0.34609(5)
C19J C 0.44795(9) 0.22479(14) 0.34856(4)
H10J H 0.4424 0.2528 0.3441
C20J C 0.49651(8) 0.23351(13) 0.35795(4)
C21J C 0.53573(8) 0.28985(13) 0.35977(4)
H11J H 0.5332 0.3072 0.3441
H12J H 0.5708 0.2934 0.3599
C22J C 0.51128(15) 0.39065(20) 0.46518(7)
H13J H 0.5490 0.4043 0.4661
H14J H 0.5023 0.4131 0.4751
H15J H 0.4928 0.3552 0.4722
C23J C 0.47231(15) 0.44007(17) 0.39484(10)
C24J C 0.43227(15) 0.44675(20) 0.38851(10)
C25J C 0.38072(15) 0.40640(20) 0.38855(6)
H16J H 0.3730 0.3713 0.3905
C26J C 0.34048(14) 0.41736(19) 0.38573(9)
H17J H 0.3052 0.3897 0.3858
N4J N 0.35178(16) 0.46865(20) 0.38286(9)
C27J C 0.40333(18) 0.50901(23) 0.38282(8)
H18J H 0.4111 0.5441 0.3809
C28J C 0.44357(15) 0.49805(21) 0.38564(11)
H19J H 0.4788 0.5256 0.3856
C29J C 0.3425(2) 0.19888(27) 0.33338(13)
H20J H 0.3680 0.2262 0.3220
H21J H 0.3078 0.1833 0.3256
H22J H 0.3422 0.2143 0.3499
C30J C 0.3714(4) 0.0601(4) 0.3431(2)
C31J C 0.32153(18) -0.00507(27) 0.33915(7)
C32J C 0.31982(17) -0.04338(26) 0.32316(7)
H23J H 0.3488 -0.0360 0.3126
C33J C 0.27568(17) -0.09274(25) 0.32268(7)
H24J H 0.2745 -0.1190 0.3118
N5J N 0.23323(16) -0.10371(24) 0.33818(8)
C34J C 0.23493(15) -0.06536(22) 0.35417(8)
H25J H 0.2059 -0.0729 0.3648
C35J C 0.27908(17) -0.01603(23) 0.35465(8)
H26J H 0.2802 0.0101 0.3656
C36J C 0.47113(11) 0.06071(18) 0.44772(7)
H27J H 0.5021 0.0643 0.4390
H28J H 0.4572 0.0308 0.4594
H29J H 0.4445 0.0552 0.4350
C37J C 0.46555(13) 0.17385(19) 0.49505(7)
C38J C 0.47921(13) 0.18486(19) 0.52528(7)
C39J C 0.43039(14) 0.17795(20) 0.53960(8)
H30J H 0.3986 0.1707 0.5317
C40J C 0.43956(15) 0.18372(22) 0.56485(8)
H31J H 0.4093 0.1750 0.5747
C41J C 0.52882(14) 0.21229(21) 0.56832(7)
H32J H 0.5596 0.2251 0.5783
C42J C 0.52761(13) 0.20507(21) 0.54023(7)
H33J H 0.5592 0.2138 0.5316
C43J C 0.55149(19) 0.23019(28) 0.62497(8)
Cu1K Cu -0.19663(6) 0.28871(4) 0.61792(2)
O1K O -0.3897(3) 0.1068(2) 0.43932(19)
O2K O -0.38625(25) 0.06709(18) 0.39458(15)
O3K O -0.46472(24) 0.05246(16) 0.39107(13)
O4K O -0.1030(3) 0.3808(2) 0.46067(12)
O5K O -0.1896(3) 0.3289(2) 0.48831(11)
O6K O -0.1756(4) 0.2592(3) 0.48461(16)
O7K O -0.15807(26) 0.1991(2) 0.33718(11)
O8K O -0.0797(6) 0.2879(4) 0.3564(2)
O9K O -0.0605(6) 0.3426(4) 0.3249(2)
N1K N -0.1986(4) 0.2821(3) 0.57839(13)
N2K N -0.2703(4) 0.3263(2) 0.62567(13)
N3K N 0.2023(4) 0.3948(3) 0.35328(17)
C1K C -0.31643(11) 0.21580(8) 0.38051(5)
C2K C -0.33787(13) 0.16298(9) 0.37518(6)
H1K H -0.3357 0.1520 0.3584
C3K C -0.36236(13) 0.12629(8) 0.39446(7)
C4K C -0.36542(13) 0.14242(9) 0.41906(6)
C5K C -0.34397(12) 0.19524(9) 0.42439(6)
H2K H -0.3460 0.2063 0.4412
C6K C -0.31948(10) 0.23193(8) 0.40511(5)
C7K C -0.30007(11) 0.28780(9) 0.41166(5)
H3K H -0.2998 0.3065 0.3959
H4K H -0.3249 0.2895 0.4238
C8K C -0.24536(11) 0.31628(8) 0.42351(5)
C9K C -0.24344(13) 0.30965(10) 0.44998(5)
H5K H -0.2743 0.2921 0.4600
C10K C -0.18836(16) 0.33241(11) 0.46217(5)
C11K C -0.15182(15) 0.35722(10) 0.44707(6)
C12K C -0.15303(12) 0.36576(7) 0.42008(6)
H6K H -0.1224 0.3865 0.4103
C13K C -0.20616(10) 0.33946(7) 0.40882(5)
C14K C -0.20347(11) 0.34799(7) 0.38030(5)
H7K H -0.2366 0.3447 0.3742
H8K H -0.1750 0.3836 0.3762
C15K C -0.19379(13) 0.30836(9) 0.36682(4)
C16K C -0.14451(14) 0.31692(10) 0.36386(5)
H9K H -0.1161 0.3494 0.3693
C17K C -0.13438(16) 0.28189(12) 0.35370(5)
C18K C -0.17096(16) 0.23625(12) 0.34609(5)
C19K C -0.22479(14) 0.22316(11) 0.34856(4)
H10K H -0.2528 0.1896 0.3441
C20K C -0.23351(13) 0.26300(10) 0.35795(4)
C21K C -0.28985(13) 0.24588(10) 0.35977(4)
H11K H -0.3072 0.2260 0.3441
H12K H -0.2934 0.2774 0.3599
C22K C -0.39065(20) 0.12063(13) 0.46518(7)
H13K H -0.4043 0.1447 0.4661
H14K H -0.4131 0.0892 0.4751
H15K H -0.3552 0.1376 0.4722
C23K C -0.44007(17) 0.03224(9) 0.39484(10)
C24K C -0.44675(20) -0.01448(13) 0.38851(10)
C25K C -0.40640(20) -0.02568(13) 0.38855(6)
H16K H -0.3713 0.0017 0.3905
C26K C -0.41736(19) -0.07688(13) 0.38573(9)
H17K H -0.3897 -0.0845 0.3858
N4K N -0.46865(20) -0.11687(12) 0.38286(9)
C27K C -0.50901(23) -0.10568(14) 0.38282(8)
H18K H -0.5441 -0.1330 0.3809
C28K C -0.49805(21) -0.05448(15) 0.38564(11)
H19K H -0.5256 -0.0468 0.3856
C29K C -0.19888(27) 0.14362(18) 0.33338(13)
H20K H -0.2262 0.1418 0.3220
H21K H -0.1833 0.1245 0.3256
H22K H -0.2143 0.1279 0.3499
C30K C -0.0601(4) 0.3113(2) 0.3431(2)
C31K C 0.00507(27) 0.3266(2) 0.33915(7)
C32K C 0.04338(26) 0.3632(2) 0.32316(7)
H23K H 0.0360 0.3848 0.3126
C33K C 0.09274(25) 0.36842(19) 0.32268(7)
H24K H 0.1190 0.3935 0.3118
N5K N 0.10371(24) 0.33694(18) 0.33818(8)
C34K C 0.06536(22) 0.30029(16) 0.35417(8)
H25K H 0.0729 0.2788 0.3648
C35K C 0.01603(23) 0.29511(16) 0.35465(8)
H26K H -0.0101 0.2701 0.3656
C36K C -0.06071(18) 0.41042(14) 0.44772(7)
H27K H -0.0643 0.4378 0.4390
H28K H -0.0308 0.4264 0.4594
H29K H -0.0552 0.3893 0.4350
C37K C -0.17385(19) 0.29170(14) 0.49505(7)
C38K C -0.18486(19) 0.29435(14) 0.52528(7)
C39K C -0.17795(20) 0.25244(14) 0.53960(8)
H30K H -0.1707 0.2279 0.5317
C40K C -0.18372(22) 0.25584(16) 0.56485(8)
H31K H -0.1750 0.2343 0.5747
C41K C -0.21229(21) 0.31653(16) 0.56832(7)
H32K H -0.2251 0.3345 0.5783
C42K C -0.20507(21) 0.32254(16) 0.54023(7)
H33K H -0.2138 0.3454 0.5316
C43K C -0.23019(28) 0.3213(2) 0.62497(8)
C44K C 0.2294(4) 0.4280(3) 0.36529(8)
N3O N 0.2719(3) 0.1408(2) 0.68661(17)
C44O C 0.2387(3) 0.1347(2) 0.69862(8)
N3I N 0.6052(3) 0.8075(2) 0.35328(17)
C44I C 0.5720(3) 0.8014(2) 0.36529(8)
Cu1A_2 Cu -0.48534(4) -0.19663(6) 0.38208(2)
Cu1D Cu 0.18133(4) 0.13670(6) 0.71541(2)
Cu1I_2 Cu 0.71129(4) 0.51466(4) 0.61792(2)
Cu1J_2 Cu 0.48534(4) 1.19663(6) 0.61792(2)
Cu1K_2 Cu 0.80337(6) 1.28871(4) 0.61792(2)
Cu2F Cu -0.3334 0.8334 0.3334
Cu2F_2 Cu 0.6666 0.8334 0.3334
Cu2G Cu 0.1666 -0.1667 0.3334
Cu2H Cu 0.1667 0.3334 0.3334
Cu3I_2 Cu 0.6667 0.3333 0.62676(4)
N2J_2 N -0.4034(4) 0.2703(4) 0.62567(13)
N3P N 0.8592(2) 1.1310(4) 0.68661(17)
N3Q N -0.1310(4) 0.7281(3) 0.68661(17)
N4A_2 N -0.35178(16) 0.53135(20) 0.61714(9)
N4B_2 N 0.46865(20) 0.11687(12) 0.61714(9)
N4K_2 N 0.53135(20) 0.88313(12) 0.38286(9)
N5O N 0.32973(18) 0.10010(16) 0.67151(8)
N5P N 0.89990(16) 1.22962(24) 0.67151(8)
N5Q N -0.22962(24) 0.67027(18) 0.67151(8)
C44A_2 C -0.1986(2) 0.2294(4) 0.63471(8)
C44J C 0.1986(2) 0.7706(4) 0.36529(8)
loop_
_geom_bond_atom_site_label_1
_geom_bond_atom_site_label_2
_geom_bond_site_symmetry_1
_geom_bond_site_symmetry_2
Cu1 N1 1_555 1_555
Cu2 N3 1_555 1_555
Cu3 N2 1_555 1_555
O1 C4 1_555 1_555
O2 C3 1_555 1_555
O3 C23 1_555 1_555
O4 C11 1_555 1_555
O5 C10 1_555 1_555
O6 C37 1_555 1_555
O7 C18 1_555 1_555
O8 C17 1_555 1_555
O9 C30 1_555 1_555
N1 C40 1_555 1_555
N2 C43 1_555 1_555
N3 C44 1_555 1_555
C1 C2 1_555 1_555
C2 H1 1_555 1_555
C3 C2 1_555 1_555
C4 C3 1_555 1_555
C5 C4 1_555 1_555
H2 C5 1_555 1_555
C6 C1 1_555 1_555
C7 C6 1_555 1_555
H3 C7 1_555 1_555
H4 C7 1_555 1_555
C8 C7 1_555 1_555
C9 C8 1_555 1_555
H5 C9 1_555 1_555
C10 C9 1_555 1_555
C11 C10 1_555 1_555
C12 C11 1_555 1_555
H6 C12 1_555 1_555
C13 C8 1_555 1_555
C14 C13 1_555 1_555
H7 C14 1_555 1_555
H8 C14 1_555 1_555
C15 C14 1_555 1_555
C16 C15 1_555 1_555
H9 C16 1_555 1_555
C17 C16 1_555 1_555
C18 C17 1_555 1_555
C19 C18 1_555 1_555
H10 C19 1_555 1_555
C20 C15 1_555 1_555
C21 C1 1_555 1_555
H11 C21 1_555 1_555
H12 C21 1_555 1_555
C22 O1 1_555 1_555
H13 C22 1_555 1_555
H14 C22 1_555 1_555
H15 C22 1_555 1_555
C23 O2 1_555 1_555
C24 C23 1_555 1_555
C25 C24 1_555 1_555
H16 C25 1_555 1_555
C26 C25 1_555 1_555
H17 C26 1_555 1_555
N4 C26 1_555 1_555
C27 N4 1_555 1_555
H18 C27 1_555 1_555
C28 C24 1_555 1_555
H19 C28 1_555 1_555
C29 O7 1_555 1_555
H20 C29 1_555 1_555
H21 C29 1_555 1_555
H22 C29 1_555 1_555
C30 O8 1_555 1_555
C31 C30 1_555 1_555
C32 C31 1_555 1_555
H23 C32 1_555 1_555
C33 C32 1_555 1_555
H24 C33 1_555 1_555
N5 Cu2 1_555 1_555
C34 N5 1_555 1_555
H25 C34 1_555 1_555
C35 C31 1_555 1_555
H26 C35 1_555 1_555
C36 O4 1_555 1_555
H27 C36 1_555 1_555
H28 C36 1_555 1_555
H29 C36 1_555 1_555
C37 O5 1_555 1_555
C38 C37 1_555 1_555
C39 C38 1_555 1_555
H30 C39 1_555 1_555
C40 C39 1_555 1_555
H31 C40 1_555 1_555
C41 N1 1_555 1_555
H32 C41 1_555 1_555
C42 C38 1_555 1_555
H33 C42 1_555 1_555
C43 Cu1 1_555 1_555
C44 Cu1J 1_555 1_555
Cu1A N1A 1_555 1_555
Cu2A N3A 1_555 1_555
O1A C4A 1_555 1_555
O2A C3A 1_555 1_555
O3A C23A 1_555 1_555
O4A C11A 1_555 1_555
O5A C10A 1_555 1_555
O6A C37A 1_555 1_555
O7A C18A 1_555 1_555
O8A C17A 1_555 1_555
O9A C30A 1_555 1_555
N1A C40A 1_555 1_555
N2A Cu3 1_555 1_555
N3A C44A 1_555 1_555
C1A C2A 1_555 1_555
C2A H1A 1_555 1_555
C3A C2A 1_555 1_555
C4A C3A 1_555 1_555
C5A C4A 1_555 1_555
H2A C5A 1_555 1_555
C6A C1A 1_555 1_555
C7A C6A 1_555 1_555
H3A C7A 1_555 1_555
H4A C7A 1_555 1_555
C8A C7A 1_555 1_555
C9A C8A 1_555 1_555
H5A C9A 1_555 1_555
C10A C9A 1_555 1_555
C11A C10A 1_555 1_555
C12A C11A 1_555 1_555
H6A C12A 1_555 1_555
C13A C8A 1_555 1_555
C14A C13A 1_555 1_555
H7A C14A 1_555 1_555
H8A C14A 1_555 1_555
C15A C14A 1_555 1_555
C16A C15A 1_555 1_555
H9A C16A 1_555 1_555
C17A C16A 1_555 1_555
C18A C17A 1_555 1_555
C19A C18A 1_555 1_555
H10A C19A 1_555 1_555
C20A C15A 1_555 1_555
C21A C1A 1_555 1_555
H11A C21A 1_555 1_555
H12A C21A 1_555 1_555
C22A O1A 1_555 1_555
H13A C22A 1_555 1_555
H14A C22A 1_555 1_555
H15A C22A 1_555 1_555
C23A O2A 1_555 1_555
C24A C23A 1_555 1_555
C25A C24A 1_555 1_555
H16A C25A 1_555 1_555
C26A C25A 1_555 1_555
H17A C26A 1_555 1_555
N4A C26A 1_555 1_555
C27A N4A 1_555 1_555
H18A C27A 1_555 1_555
C28A C24A 1_555 1_555
H19A C28A 1_555 1_555
C29A O7A 1_555 1_555
H20A C29A 1_555 1_555
H21A C29A 1_555 1_555
H22A C29A 1_555 1_555
C30A O8A 1_555 1_555
C31A C30A 1_555 1_555
C32A C31A 1_555 1_555
H23A C32A 1_555 1_555
C33A C32A 1_555 1_555
H24A C33A 1_555 1_555
N5A Cu2A 1_555 1_555
C34A N5A 1_555 1_555
H25A C34A 1_555 1_555
C35A C31A 1_555 1_555
H26A C35A 1_555 1_555
C36A O4A 1_555 1_555
H27A C36A 1_555 1_555
H28A C36A 1_555 1_555
H29A C36A 1_555 1_555
C37A O5A 1_555 1_555
C38A C37A 1_555 1_555
C39A C38A 1_555 1_555
H30A C39A 1_555 1_555
C40A C39A 1_555 1_555
H31A C40A 1_555 1_555
C41A N1A 1_555 1_555
H32A C41A 1_555 1_555
C42A C38A 1_555 1_555
H33A C42A 1_555 1_555
C43A Cu1A 1_555 1_555
C44A Cu1K_2 1_555 1_555
Cu1B N1B 1_555 1_555
Cu2B N3B 1_555 1_555
O1B C4B 1_555 1_555
O2B C3B 1_555 1_555
O3B C23B 1_555 1_555
O4B C11B 1_555 1_555
O5B C10B 1_555 1_555
O6B C37B 1_555 1_555
O7B C18B 1_555 1_555
O8B C17B 1_555 1_555
O9B C30B 1_555 1_555
N1B C40B 1_555 1_555
N2B Cu3 1_555 1_555
N3B C44B 1_555 1_555
C1B C2B 1_555 1_555
C2B H1B 1_555 1_555
C3B C2B 1_555 1_555
C4B C3B 1_555 1_555
C5B C4B 1_555 1_555
H2B C5B 1_555 1_555
C6B C1B 1_555 1_555
C7B C6B 1_555 1_555
H3B C7B 1_555 1_555
H4B C7B 1_555 1_555
C8B C7B 1_555 1_555
C9B C8B 1_555 1_555
H5B C9B 1_555 1_555
C10B C9B 1_555 1_555
C11B C10B 1_555 1_555
C12B C11B 1_555 1_555
H6B C12B 1_555 1_555
C13B C8B 1_555 1_555
C14B C13B 1_555 1_555
H7B C14B 1_555 1_555
H8B C14B 1_555 1_555
C15B C14B 1_555 1_555
C16B C15B 1_555 1_555
H9B C16B 1_555 1_555
C17B C16B 1_555 1_555
C18B C17B 1_555 1_555
C19B C18B 1_555 1_555
H10B C19B 1_555 1_555
C20B C15B 1_555 1_555
C21B C1B 1_555 1_555
H11B C21B 1_555 1_555
H12B C21B 1_555 1_555
C22B O1B 1_555 1_555
H13B C22B 1_555 1_555
H14B C22B 1_555 1_555
H15B C22B 1_555 1_555
C23B O2B 1_555 1_555
C24B C23B 1_555 1_555
C25B C24B 1_555 1_555
H16B C25B 1_555 1_555
C26B C25B 1_555 1_555
H17B C26B 1_555 1_555
N4B C26B 1_555 1_555
C27B N4B 1_555 1_555
H18B C27B 1_555 1_555
C28B C24B 1_555 1_555
H19B C28B 1_555 1_555
C29B O7B 1_555 1_555
H20B C29B 1_555 1_555
H21B C29B 1_555 1_555
H22B C29B 1_555 1_555
C30B O8B 1_555 1_555
C31B C30B 1_555 1_555
C32B C31B 1_555 1_555
H23B C32B 1_555 1_555
C33B C32B 1_555 1_555
H24B C33B 1_555 1_555
N5B Cu2B 1_555 1_555
C34B N5B 1_555 1_555
H25B C34B 1_555 1_555
C35B C31B 1_555 1_555
H26B C35B 1_555 1_555
C36B O4B 1_555 1_555
H27B C36B 1_555 1_555
H28B C36B 1_555 1_555
H29B C36B 1_555 1_555
C37B O5B 1_555 1_555
C38B C37B 1_555 1_555
C39B C38B 1_555 1_555
H30B C39B 1_555 1_555
C40B C39B 1_555 1_555
H31B C40B 1_555 1_555
C41B N1B 1_555 1_555
H32B C41B 1_555 1_555
C42B C38B 1_555 1_555
H33B C42B 1_555 1_555
C43B Cu1B 1_555 1_555
C44B Cu1I 1_555 1_555
Cu1I N1I 1_555 1_555
Cu3I N2I 1_555 1_555
O1I C4I 1_555 1_555
O2I C3I 1_555 1_555
O3I C23I 1_555 1_555
O4I C11I 1_555 1_555
O5I C10I 1_555 1_555
O6I C37I 1_555 1_555
O7I C18I 1_555 1_555
O8I C17I 1_555 1_555
O9I C30I 1_555 1_555
N1I C40I 1_555 1_555
N2I C43I 1_555 1_555
C1I C2I 1_555 1_555
C2I H1I 1_555 1_555
C3I C2I 1_555 1_555
C4I C3I 1_555 1_555
C5I C4I 1_555 1_555
H2I C5I 1_555 1_555
C6I C1I 1_555 1_555
C7I C6I 1_555 1_555
H3I C7I 1_555 1_555
H4I C7I 1_555 1_555
C8I C7I 1_555 1_555
C9I C8I 1_555 1_555
H5I C9I 1_555 1_555
C10I C9I 1_555 1_555
C11I C10I 1_555 1_555
C12I C11I 1_555 1_555
H6I C12I 1_555 1_555
C13I C8I 1_555 1_555
C14I C13I 1_555 1_555
H7I C14I 1_555 1_555
H8I C14I 1_555 1_555
C15I C14I 1_555 1_555
C16I C15I 1_555 1_555
H9I C16I 1_555 1_555
C17I C16I 1_555 1_555
C18I C17I 1_555 1_555
C19I C18I 1_555 1_555
H10I C19I 1_555 1_555
C20I C15I 1_555 1_555
C21I C1I 1_555 1_555
H11I C21I 1_555 1_555
H12I C21I 1_555 1_555
C22I O1I 1_555 1_555
H13I C22I 1_555 1_555
H14I C22I 1_555 1_555
H15I C22I 1_555 1_555
C23I O2I 1_555 1_555
C24I C23I 1_555 1_555
C25I C24I 1_555 1_555
H16I C25I 1_555 1_555
C26I C25I 1_555 1_555
H17I C26I 1_555 1_555
N4I Cu1B 1_555 1_555
C27I N4I 1_555 1_555
H18I C27I 1_555 1_555
C28I C24I 1_555 1_555
H19I C28I 1_555 1_555
C29I O7I 1_555 1_555
H20I C29I 1_555 1_555
H21I C29I 1_555 1_555
H22I C29I 1_555 1_555
C30I O8I 1_555 1_555
C31I C30I 1_555 1_555
C32I C31I 1_555 1_555
H23I C32I 1_555 1_555
C33I C32I 1_555 1_555
H24I C33I 1_555 1_555
N5I C33I 1_555 1_555
C34I N5I 1_555 1_555
H25I C34I 1_555 1_555
C35I C31I 1_555 1_555
H26I C35I 1_555 1_555
C36I O4I 1_555 1_555
H27I C36I 1_555 1_555
H28I C36I 1_555 1_555
H29I C36I 1_555 1_555
C37I O5I 1_555 1_555
C38I C37I 1_555 1_555
C39I C38I 1_555 1_555
H30I C39I 1_555 1_555
C40I C39I 1_555 1_555
H31I C40I 1_555 1_555
C41I N1I 1_555 1_555
H32I C41I 1_555 1_555
C42I C38I 1_555 1_555
H33I C42I 1_555 1_555
C43I Cu1I 1_555 1_555
Cu1J N1J 1_555 1_555
O1J C4J 1_555 1_555
O2J C3J 1_555 1_555
O3J C23J 1_555 1_555
O4J C11J 1_555 1_555
O5J C10J 1_555 1_555
O6J C37J 1_555 1_555
O7J C18J 1_555 1_555
O8J C17J 1_555 1_555
O9J C30J 1_555 1_555
N1J C40J 1_555 1_555
N2J C43J 1_555 1_555
C1J C2J 1_555 1_555
C2J H1J 1_555 1_555
C3J C2J 1_555 1_555
C4J C3J 1_555 1_555
C5J C4J 1_555 1_555
H2J C5J 1_555 1_555
C6J C1J 1_555 1_555
C7J C6J 1_555 1_555
H3J C7J 1_555 1_555
H4J C7J 1_555 1_555
C8J C7J 1_555 1_555
C9J C8J 1_555 1_555
H5J C9J 1_555 1_555
C10J C9J 1_555 1_555
C11J C10J 1_555 1_555
C12J C11J 1_555 1_555
H6J C12J 1_555 1_555
C13J C8J 1_555 1_555
C14J C13J 1_555 1_555
H7J C14J 1_555 1_555
H8J C14J 1_555 1_555
C15J C14J 1_555 1_555
C16J C15J 1_555 1_555
H9J C16J 1_555 1_555
C17J C16J 1_555 1_555
C18J C17J 1_555 1_555
C19J C18J 1_555 1_555
H10J C19J 1_555 1_555
C20J C15J 1_555 1_555
C21J C1J 1_555 1_555
H11J C21J 1_555 1_555
H12J C21J 1_555 1_555
C22J O1J 1_555 1_555
H13J C22J 1_555 1_555
H14J C22J 1_555 1_555
H15J C22J 1_555 1_555
C23J O2J 1_555 1_555
C24J C23J 1_555 1_555
C25J C24J 1_555 1_555
H16J C25J 1_555 1_555
C26J C25J 1_555 1_555
H17J C26J 1_555 1_555
N4J Cu1 1_555 1_555
C27J N4J 1_555 1_555
H18J C27J 1_555 1_555
C28J C24J 1_555 1_555
H19J C28J 1_555 1_555
C29J O7J 1_555 1_555
H20J C29J 1_555 1_555
H21J C29J 1_555 1_555
H22J C29J 1_555 1_555
C30J O8J 1_555 1_555
C31J C30J 1_555 1_555
C32J C31J 1_555 1_555
H23J C32J 1_555 1_555
C33J C32J 1_555 1_555
H24J C33J 1_555 1_555
N5J C33J 1_555 1_555
C34J N5J 1_555 1_555
H25J C34J 1_555 1_555
C35J C31J 1_555 1_555
H26J C35J 1_555 1_555
C36J O4J 1_555 1_555
H27J C36J 1_555 1_555
H28J C36J 1_555 1_555
H29J C36J 1_555 1_555
C37J O5J 1_555 1_555
C38J C37J 1_555 1_555
C39J C38J 1_555 1_555
H30J C39J 1_555 1_555
C40J C39J 1_555 1_555
H31J C40J 1_555 1_555
C41J N1J 1_555 1_555
H32J C41J 1_555 1_555
C42J C38J 1_555 1_555
H33J C42J 1_555 1_555
C43J Cu1J 1_555 1_555
Cu1K N4 1_555 1_555
O1K C4K 1_555 1_555
O2K C3K 1_555 1_555
O3K C23K 1_555 1_555
O4K C11K 1_555 1_555
O5K C10K 1_555 1_555
O6K C37K 1_555 1_555
O7K C18K 1_555 1_555
O8K C17K 1_555 1_555
O9K C30K 1_555 1_555
N1K Cu1K 1_555 1_555
N2K Cu3I 1_555 1_555
N3K C44K 1_555 1_555
C1K C2K 1_555 1_555
C2K H1K 1_555 1_555
C3K C2K 1_555 1_555
C4K C3K 1_555 1_555
C5K C4K 1_555 1_555
H2K C5K 1_555 1_555
C6K C1K 1_555 1_555
C7K C6K 1_555 1_555
H3K C7K 1_555 1_555
H4K C7K 1_555 1_555
C8K C7K 1_555 1_555
C9K C8K 1_555 1_555
H5K C9K 1_555 1_555
C10K C9K 1_555 1_555
C11K C10K 1_555 1_555
C12K C11K 1_555 1_555
H6K C12K 1_555 1_555
C13K C8K 1_555 1_555
C14K C13K 1_555 1_555
H7K C14K 1_555 1_555
H8K C14K 1_555 1_555
C15K C14K 1_555 1_555
C16K C15K 1_555 1_555
H9K C16K 1_555 1_555
C17K C16K 1_555 1_555
C18K C17K 1_555 1_555
C19K C18K 1_555 1_555
H10K C19K 1_555 1_555
C20K C15K 1_555 1_555
C21K C1K 1_555 1_555
H11K C21K 1_555 1_555
H12K C21K 1_555 1_555
C22K O1K 1_555 1_555
H13K C22K 1_555 1_555
H14K C22K 1_555 1_555
H15K C22K 1_555 1_555
C23K O2K 1_555 1_555
C24K C23K 1_555 1_555
C25K C24K 1_555 1_555
H16K C25K 1_555 1_555
C26K C25K 1_555 1_555
H17K C26K 1_555 1_555
N4K C26K 1_555 1_555
C27K N4K 1_555 1_555
H18K C27K 1_555 1_555
C28K C24K 1_555 1_555
H19K C28K 1_555 1_555
C29K O7K 1_555 1_555
H20K C29K 1_555 1_555
H21K C29K 1_555 1_555
H22K C29K 1_555 1_555
C30K O8K 1_555 1_555
C31K C30K 1_555 1_555
C32K C31K 1_555 1_555
H23K C32K 1_555 1_555
C33K C32K 1_555 1_555
H24K C33K 1_555 1_555
N5K C33K 1_555 1_555
C34K N5K 1_555 1_555
H25K C34K 1_555 1_555
C35K C31K 1_555 1_555
H26K C35K 1_555 1_555
C36K O4K 1_555 1_555
H27K C36K 1_555 1_555
H28K C36K 1_555 1_555
H29K C36K 1_555 1_555
C37K O5K 1_555 1_555
C38K C37K 1_555 1_555
C39K C38K 1_555 1_555
H30K C39K 1_555 1_555
C40K N1K 1_555 1_555
H31K C40K 1_555 1_555
C41K N1K 1_555 1_555
H32K C41K 1_555 1_555
C42K C38K 1_555 1_555
H33K C42K 1_555 1_555
C43K Cu1K 1_555 1_555
C44K Cu1 1_555 1_555
N3O Cu2 1_555 1_555
C44O N3O 1_555 1_555
N3I C44I 1_555 1_555
C44I Cu1A 1_555 1_555
Cu1A_2 N4K 1_555 1_555
Cu1D C44O 1_555 1_555
Cu1I_2 N4A 1_555 1_555
Cu1J_2 N4B 1_555 1_555
Cu2F N5I 1_555 1_555
Cu2F_2 N3I 1_555 1_555
Cu2G N5J 1_555 1_555
Cu2H N3K 1_555 1_555
Cu3I_2 N2J 1_555 1_555
N2J_2 Cu3I 1_555 1_555
N3P Cu2A 1_555 1_555
N3Q Cu2B 1_555 1_555
N4A_2 Cu1I 1_555 1_555
N4B_2 Cu1J 1_555 1_555
N4K_2 Cu1A 1_555 1_555
N5O Cu2 1_555 1_555
N5P Cu2A 1_555 1_555
N5Q Cu2B 1_555 1_555
C44A_2 Cu1K 1_555 1_555
C44J Cu1B 1_555 1_555
C5 C6 1_555 1_555
C12 C13 1_555 1_555
C19 C20 1_555 1_555
C20 C21 1_555 1_555
C27 C28 1_555 1_555
C33 N5 1_555 1_555
C34 C35 1_555 1_555
C41 C42 1_555 1_555
N2A C43A 1_555 1_555
C5A C6A 1_555 1_555
C12A C13A 1_555 1_555
C19A C20A 1_555 1_555
C20A C21A 1_555 1_555
C27A C28A 1_555 1_555
C33A N5A 1_555 1_555
C34A C35A 1_555 1_555
C41A C42A 1_555 1_555
N2B C43B 1_555 1_555
C5B C6B 1_555 1_555
C12B C13B 1_555 1_555
C19B C20B 1_555 1_555
C20B C21B 1_555 1_555
C27B C28B 1_555 1_555
C33B N5B 1_555 1_555
C34B C35B 1_555 1_555
C41B C42B 1_555 1_555
C5I C6I 1_555 1_555
C12I C13I 1_555 1_555
C19I C20I 1_555 1_555
C20I C21I 1_555 1_555
C26I N4I 1_555 1_555
C27I C28I 1_555 1_555
C34I C35I 1_555 1_555
C41I C42I 1_555 1_555
C5J C6J 1_555 1_555
C12J C13J 1_555 1_555
C19J C20J 1_555 1_555
C20J C21J 1_555 1_555
C26J N4J 1_555 1_555
C27J C28J 1_555 1_555
C34J C35J 1_555 1_555
C41J C42J 1_555 1_555
N2K C43K 1_555 1_555
C5K C6K 1_555 1_555
C12K C13K 1_555 1_555
C19K C20K 1_555 1_555
C20K C21K 1_555 1_555
C27K C28K 1_555 1_555
N5K Cu2H 1_555 1_555
C34K C35K 1_555 1_555
C39K C40K 1_555 1_555
C41K C42K 1_555 1_555

#END
