
#######################################################################
#
#                 Cambridge Crystallographic Data Centre
#                                CCDC 
#
#######################################################################
#
# If this CIF has been generated from an entry in the Cambridge 
# Structural Database, then it will include bibliographic, chemical, 
# crystal, experimental, refinement or atomic coordinate data resulting 
# from the CCDC's data processing and validation procedures.
#
#######################################################################

data_CUVGOQ
_symmetry_cell_setting           triclinic
_symmetry_space_group_name_H-M   'P -1'
_symmetry_Int_Tables_number      2
_space_group_name_Hall           '-P 1'
loop_
_symmetry_equiv_pos_site_id
_symmetry_equiv_pos_as_xyz
1 x,y,z
2 -x,-y,-z
_cell_length_a                   5.6153(3)
_cell_length_b                   9.3336(5)
_cell_length_c                   13.3398(7)
_cell_angle_alpha                106.030(4)
_cell_angle_beta                 93.611(4)
_cell_angle_gamma                102.050(4)
_cell_volume                     651.726
loop_
_atom_site_label
_atom_site_type_symbol
_atom_site_fract_x
_atom_site_fract_y
_atom_site_fract_z
H1 H 0.301(11) 0.568(7) 0.486(5)
C1 C -0.5606(6) -0.1423(4) 0.0377(3)
C2 C -0.8971(6) -0.3433(4) 0.0124(3)
C3 C -0.7576(6) -0.4360(4) 0.0419(3)
H3 H -0.5940 -0.3937 0.0704
C4 C -1.1424(6) -0.4102(4) -0.0296(3)
H4 H -1.2397 -0.3509 -0.0497
C5 C 0.3376(7) 0.1542(5) 0.2284(3)
H5 H 0.4244 0.0811 0.2001
C6 C 0.4308(7) 0.2584(5) 0.3255(3)
H6 H 0.5741 0.2531 0.3617
C7 C 0.3084(7) 0.3717(4) 0.3688(3)
C8 C 0.3985(8) 0.4927(5) 0.4689(3)
C9 C 0.0896(7) 0.3667(5) 0.3124(3)
H7 H -0.0020 0.4376 0.3391
C10 C 0.0078(7) 0.2568(5) 0.2170(3)
H8 H -0.1408 0.2554 0.1813
N1 N -0.3449(5) -0.0963(3) 0.0510(2)
N2 N -0.7989(5) -0.1851(3) 0.0238(2)
N3 N 0.1297(5) 0.1520(3) 0.1725(2)
Mn1 Mn 0.0000 0.0000 0.0000
H1A H 0.699(11) 0.432(7) 0.514(5)
C1A C -1.4394(6) -0.8577(4) -0.0377(3)
C2A C -1.1029(6) -0.6567(4) -0.0124(3)
C3A C -1.2424(6) -0.5640(4) -0.0419(3)
H3A H -1.4060 -0.6063 -0.0704
C4A C -0.8576(6) -0.5898(4) 0.0296(3)
H4A H -0.7603 -0.6491 0.0497
C5A C 0.6624(7) 0.8458(5) 0.7716(3)
H5A H 0.5756 0.9189 0.7999
C6A C 0.5692(7) 0.7416(5) 0.6745(3)
H6A H 0.4259 0.7469 0.6383
C7A C 0.6916(7) 0.6283(4) 0.6312(3)
C8A C 0.6015(8) 0.5073(5) 0.5311(3)
C9A C 0.9104(7) 0.6333(5) 0.6876(3)
H7A H 1.0020 0.5624 0.6609
C10A C 0.9922(7) 0.7432(5) 0.7830(3)
H8A H 1.1408 0.7446 0.8187
N1A N -1.6551(5) -0.9037(3) -0.0510(2)
N1A_2 N 0.3449(5) 0.0963(3) -0.0510(2)
N2A N -1.2011(5) -0.8149(3) -0.0238(2)
N2_2 N 0.2011(5) -0.1851(3) 0.0238(2)
N2A_2 N -0.2011(5) 0.1851(3) -0.0238(2)
N3A N 0.8703(5) 0.8480(3) 0.8275(2)
N3A_2 N -0.1297(5) -0.1520(3) -0.1725(2)
Mn1_2 Mn -1.0000 0.0000 0.0000
Mn1_3 Mn 1.0000 1.0000 1.0000
Mn1_4 Mn -1.0000 -1.0000 0.0000
Mn1_5 Mn -2.0000 -1.0000 0.0000
H2 H 0.811(11) 0.847(7) 0.504(5)
C11 C 0.9306(14) 0.7421(9) 0.2579(5)
H9 H 0.9625 0.8168 0.2203
H10 H 0.8163 0.6514 0.2143
H11 H 1.0813 0.7167 0.2763
C12 C 0.597(5) 0.842(6) 0.3408(13)
H12 H 0.5542 0.8358 0.2686
H13 H 0.6078 0.9448 0.3844
H14 H 0.4738 0.7718 0.3614
C13 C 0.9222(12) 0.8048(7) 0.4457(5)
N4 N 0.8279(8) 0.8046(6) 0.3527(4)
O1 O 1.114(4) 0.772(3) 0.4672(12)
C14? C 0.679(7) 0.920(3) 0.338(2)
H15? H 0.6260 0.8997 0.2648
H16? H 0.7790 1.0222 0.3660
H17? H 0.5375 0.9095 0.3751
O2? O 1.048(5) 0.716(3) 0.454(3)
loop_
_geom_bond_atom_site_label_1
_geom_bond_atom_site_label_2
_geom_bond_site_symmetry_1
_geom_bond_site_symmetry_2
H1 C8 1_555 1_555
H2 C13 1_555 1_555
C1 N1 1_555 1_555
C2 C3 1_555 1_555
C3 H3 1_555 1_555
C4 C2 1_555 1_555
H4 C4 1_555 1_555
C5 H5 1_555 1_555
C6 C5 1_555 1_555
H6 C6 1_555 1_555
C7 C6 1_555 1_555
C8 C7 1_555 1_555
C9 C7 1_555 1_555
H7 C9 1_555 1_555
C10 C9 1_555 1_555
H8 C10 1_555 1_555
N1 Mn1 1_555 1_555
N2 C1 1_555 1_555
N3 C5 1_555 1_555
Mn1 N3 1_555 1_555
C11 H9 1_555 1_555
H10 C11 1_555 1_555
H11 C11 1_555 1_555
C12 H12 1_555 1_555
H13 C12 1_555 1_555
H14 C12 1_555 1_555
C13 N4 1_555 1_555
N4 C11 1_555 1_555
O1 C13 1_555 1_555
H1A C8A 1_555 1_555
C1A N1A 1_555 1_555
C2A C3A 1_555 1_555
C3A C4 1_555 1_555
H3A C3A 1_555 1_555
C4A C3 1_555 1_555
H4A C4A 1_555 1_555
C5A H5A 1_555 1_555
C6A C5A 1_555 1_555
H6A C6A 1_555 1_555
C7A C6A 1_555 1_555
C8A C8 1_555 1_555
C9A C7A 1_555 1_555
H7A C9A 1_555 1_555
C10A C9A 1_555 1_555
H8A C10A 1_555 1_555
N1A Mn1_5 1_555 1_555
N1A_2 Mn1 1_555 1_555
N2A C1A 1_555 1_555
N2_2 Mn1 1_555 1_555
N2A_2 Mn1 1_555 1_555
N3A C5A 1_555 1_555
N3A_2 Mn1 1_555 1_555
Mn1_2 N2 1_555 1_555
Mn1_3 N3A 1_555 1_555
Mn1_4 N2A 1_555 1_555
C2 N2 1_555 1_555
C10 N3 1_555 1_555
C12 N4 1_555 1_555
C2A C4A 1_555 1_555
C2A N2A 1_555 1_555
C7A C8A 1_555 1_555
C10A N3A 1_555 1_555

#END
