
#######################################################################
#
#                 Cambridge Crystallographic Data Centre
#                                CCDC 
#
#######################################################################
#
# If this CIF has been generated from an entry in the Cambridge 
# Structural Database, then it will include bibliographic, chemical, 
# crystal, experimental, refinement or atomic coordinate data resulting 
# from the CCDC's data processing and validation procedures.
#
#######################################################################

data_DAFHEZ
_symmetry_cell_setting           orthorhombic
_symmetry_space_group_name_H-M   'P b c a'
_symmetry_Int_Tables_number      61
_space_group_name_Hall           '-P 2ac 2ab'
loop_
_symmetry_equiv_pos_site_id
_symmetry_equiv_pos_as_xyz
1 x,y,z
2 1/2-x,-y,1/2+z
3 -x,1/2+y,1/2-z
4 1/2+x,1/2-y,-z
5 -x,-y,-z
6 1/2+x,y,1/2-z
7 x,1/2-y,1/2+z
8 1/2-x,1/2+y,z
_cell_length_a                   15.414(3)
_cell_length_b                   11.877(2)
_cell_length_c                   24.154(5)
_cell_angle_alpha                90
_cell_angle_beta                 90
_cell_angle_gamma                90
_cell_volume                     4421.92
loop_
_atom_site_label
_atom_site_type_symbol
_atom_site_fract_x
_atom_site_fract_y
_atom_site_fract_z
Co1 Co 0.5000 0.5000 0.5000
Co2 Co 0.55003(5) 0.35951(6) 0.62469(3)
O1 O 0.4283(2) 0.5463(3) 0.56845(14)
O2 O 0.4691(3) 0.4810(4) 0.65159(16)
O3 O 0.3560(3) 0.9015(4) 0.79954(17)
O4 O 0.4458(3) 0.7596(4) 0.80559(16)
O5 O 0.3944(2) 0.5474(3) 0.44396(15)
O6 O 0.3334(3) 0.7013(4) 0.41325(17)
O7 O 0.0558(3) 0.8416(3) 0.50050(15)
O8 O 0.0288(3) 0.7584(3) 0.58232(16)
C1 C 0.3819(4) 0.6455(5) 0.6477(2)
C2 C 0.4020(4) 0.6808(5) 0.7000(2)
H1 H 0.4433 0.6415 0.7203
C3 C 0.3622(4) 0.7740(5) 0.7235(2)
C4 C 0.2995(4) 0.8301(5) 0.6935(2)
H2 H 0.2726 0.8931 0.7086
C5 C 0.2761(5) 0.7936(6) 0.6412(3)
H3 H 0.2328 0.8310 0.6217
C6 C 0.3169(4) 0.7020(6) 0.6179(2)
H4 H 0.3015 0.6777 0.5826
C7 C 0.4298(4) 0.5501(5) 0.6202(2)
C8 C 0.3894(4) 0.8154(5) 0.7795(2)
C9 C 0.2545(4) 0.5978(5) 0.4796(2)
C10 C 0.1956(4) 0.6831(5) 0.4878(2)
H5 H 0.2045 0.7523 0.4707
C11 C 0.1230(4) 0.6680(5) 0.5211(2)
C12 C 0.1076(5) 0.5616(6) 0.5424(3)
H6 H 0.0581 0.5486 0.5635
C13 C 0.1649(5) 0.4750(6) 0.5326(4)
H7 H 0.1536 0.4037 0.5467
C14 C 0.2396(5) 0.4935(5) 0.5018(3)
H8 H 0.2791 0.4355 0.4962
C15 C 0.3312(4) 0.6181(5) 0.4445(2)
C16 C 0.0626(4) 0.7632(5) 0.5347(2)
Co1C Co 0.0000 1.0000 0.5000
Co1C_2 Co 1.0000 0.0000 0.5000
Co2D Co 0.44997(5) 0.64049(6) 0.37531(3)
Co2B Co 0.44997(5) 0.85951(6) 0.87531(3)
Co2G Co -0.05003(5) 0.85951(6) 0.62469(3)
Co2F Co 0.55003(5) 0.14049(6) 0.12469(3)
Co2C Co 1.05003(5) 0.14049(6) 0.37531(3)
O1D O 0.5717(2) 0.4537(3) 0.43155(14)
O2D O 0.5309(3) 0.5190(4) 0.34841(16)
O3D O 0.6440(3) 0.0985(4) 0.20046(17)
O3B O 0.6440(3) 0.4015(4) 0.70046(17)
O3F O 0.3560(3) 0.5985(4) 0.29954(17)
O4D O 0.5542(3) 0.2404(4) 0.19441(16)
O4B O 0.5542(3) 0.2596(4) 0.69441(16)
O4F O 0.4458(3) 0.7404(4) 0.30559(16)
O5D O 0.6056(2) 0.4526(3) 0.55604(15)
O6D O 0.6666(3) 0.2987(4) 0.58675(17)
O7D O 0.9442(3) 0.1584(3) 0.49950(15)
O7C O 0.5558(3) 0.6584(3) 0.49950(15)
O7G O 0.4442(3) 0.3416(3) 0.50050(15)
O8D O 0.9712(3) 0.2416(3) 0.41768(16)
O8G O 0.4712(3) 0.2584(3) 0.58232(16)
O8C O 0.5288(3) 0.7416(3) 0.41768(16)
C1D C 0.6181(4) 0.3545(5) 0.3523(2)
C2D C 0.5980(4) 0.3192(5) 0.3000(2)
H1D H 0.5567 0.3585 0.2797
C3D C 0.6378(4) 0.2260(5) 0.2765(2)
C4D C 0.7005(4) 0.1699(5) 0.3065(2)
H2D H 0.7274 0.1069 0.2914
C5D C 0.7239(5) 0.2064(6) 0.3588(3)
H3D H 0.7672 0.1690 0.3783
C6D C 0.6831(4) 0.2980(6) 0.3821(2)
H4D H 0.6985 0.3223 0.4174
C7D C 0.5702(4) 0.4499(5) 0.3798(2)
C8D C 0.6106(4) 0.1846(5) 0.2205(2)
C9D C 0.7455(4) 0.4022(5) 0.5204(2)
C10D C 0.8044(4) 0.3169(5) 0.5122(2)
H5D H 0.7955 0.2477 0.5293
C11D C 0.8770(4) 0.3320(5) 0.4789(2)
C12D C 0.8924(5) 0.4384(6) 0.4576(3)
H6D H 0.9419 0.4514 0.4365
C13D C 0.8351(5) 0.5250(6) 0.4674(4)
H7D H 0.8464 0.5963 0.4533
C14D C 0.7604(5) 0.5065(5) 0.4982(3)
H8D H 0.7209 0.5645 0.5038
C15D C 0.6688(4) 0.3819(5) 0.5555(2)
C16D C 0.9374(4) 0.2368(5) 0.4653(2)
C17 C 0.6114(5) 0.6916(8) 0.2426(4)
H9 H 0.5934 0.6478 0.2724
C18 C 0.6489(12) 0.7447(10) 0.1605(5)
H10 H 0.6611 0.7427 0.1228
C19 C 0.6490(8) 0.8353(8) 0.1930(5)
H11 H 0.6631 0.9084 0.1827
C20 C 0.6192(6) 0.8701(7) 0.2921(4)
H12 H 0.6002 0.8254 0.3229
H13 H 0.5784 0.9298 0.2857
H14 H 0.6752 0.9017 0.3001
C21 C 0.6432(10) 0.5288(12) 0.1760(5)
H15 H 0.7011 0.5166 0.1615
H16 H 0.6322 0.4770 0.2063
C22 C 0.5793(9) 0.5223(11) 0.1346(5)
H17 H 0.5790 0.4479 0.1190
H18 H 0.5918 0.5762 0.1061
H19 H 0.5235 0.5382 0.1505
N1 N 0.6250(4) 0.8005(6) 0.2436(3)
N2 N 0.6274(7) 0.6558(6) 0.1932(4)
loop_
_geom_bond_atom_site_label_1
_geom_bond_atom_site_label_2
_geom_bond_site_symmetry_1
_geom_bond_site_symmetry_2
Co1 O1 1_555 1_555
Co2 O2 1_555 1_555
O1 C7 1_555 1_555
O2 C7 1_555 1_555
O3 C8 1_555 1_555
O4 C8 1_555 1_555
O5 Co1 1_555 1_555
O6 C15 1_555 1_555
O7 C16 1_555 1_555
O8 C16 1_555 1_555
C1 C2 1_555 1_555
C2 H1 1_555 1_555
C3 C2 1_555 1_555
C4 C3 1_555 1_555
H2 C4 1_555 1_555
C5 C4 1_555 1_555
H3 C5 1_555 1_555
C6 C1 1_555 1_555
H4 C6 1_555 1_555
C7 C1 1_555 1_555
C8 C3 1_555 1_555
C9 C10 1_555 1_555
C10 H5 1_555 1_555
C11 C10 1_555 1_555
C12 C11 1_555 1_555
H6 C12 1_555 1_555
C13 C12 1_555 1_555
H7 C13 1_555 1_555
C14 C9 1_555 1_555
H8 C14 1_555 1_555
C15 O5 1_555 1_555
C16 C11 1_555 1_555
C17 H9 1_555 1_555
C18 H10 1_555 1_555
C19 C18 1_555 1_555
H11 C19 1_555 1_555
C20 H12 1_555 1_555
H13 C20 1_555 1_555
H14 C20 1_555 1_555
C21 H15 1_555 1_555
H16 C21 1_555 1_555
C22 C21 1_555 1_555
H17 C22 1_555 1_555
H18 C22 1_555 1_555
H19 C22 1_555 1_555
N1 C17 1_555 1_555
N2 C17 1_555 1_555
Co1C O7 1_555 1_555
Co1C_2 O7D 1_555 1_555
Co2D O5 1_555 1_555
Co2B O3 1_555 1_555
Co2G O8 1_555 1_555
Co2F O3D 1_555 1_555
Co2C O8D 1_555 1_555
O1D Co1 1_555 1_555
O2D Co2D 1_555 1_555
O3D C8D 1_555 1_555
O3B Co2 1_555 1_555
O3F Co2D 1_555 1_555
O4D Co2F 1_555 1_555
O4B Co2 1_555 1_555
O4F Co2D 1_555 1_555
O5D Co1 1_555 1_555
O6D Co2 1_555 1_555
O7D C16D 1_555 1_555
O7C Co1 1_555 1_555
O7G Co1 1_555 1_555
O8D C16D 1_555 1_555
O8G Co2 1_555 1_555
O8C Co2D 1_555 1_555
C1D C2D 1_555 1_555
C2D H1D 1_555 1_555
C3D C2D 1_555 1_555
C4D C3D 1_555 1_555
H2D C4D 1_555 1_555
C5D C4D 1_555 1_555
H3D C5D 1_555 1_555
C6D C1D 1_555 1_555
H4D C6D 1_555 1_555
C7D O1D 1_555 1_555
C8D O4D 1_555 1_555
C9D C10D 1_555 1_555
C10D H5D 1_555 1_555
C11D C10D 1_555 1_555
C12D C11D 1_555 1_555
H6D C12D 1_555 1_555
C13D C12D 1_555 1_555
H7D C13D 1_555 1_555
C14D C9D 1_555 1_555
H8D C14D 1_555 1_555
C15D O5D 1_555 1_555
C16D C11D 1_555 1_555
Co2 O5D 1_555 1_555
O4 Co2B 1_555 1_555
O6 Co2D 1_555 1_555
C5 C6 1_555 1_555
C9 C15 1_555 1_555
C13 C14 1_555 1_555
C18 N2 1_555 1_555
C19 N1 1_555 1_555
C20 N1 1_555 1_555
C21 N2 1_555 1_555
O2D C7D 1_555 1_555
O6D C15D 1_555 1_555
C1D C7D 1_555 1_555
C3D C8D 1_555 1_555
C5D C6D 1_555 1_555
C9D C15D 1_555 1_555
C13D C14D 1_555 1_555

#END
