
#######################################################################
#
#                 Cambridge Crystallographic Data Centre
#                                CCDC 
#
#######################################################################
#
# If this CIF has been generated from an entry in the Cambridge 
# Structural Database, then it will include bibliographic, chemical, 
# crystal, experimental, refinement or atomic coordinate data resulting 
# from the CCDC's data processing and validation procedures.
#
#######################################################################

data_DAHNOQ
_symmetry_cell_setting           monoclinic
_symmetry_space_group_name_H-M   'C 2/c'
_symmetry_Int_Tables_number      15
_space_group_name_Hall           '-C 2yn'
loop_
_symmetry_equiv_pos_site_id
_symmetry_equiv_pos_as_xyz
1 x,y,z
2 1/2+x,1/2+y,z
3 x,-y,1/2+z
4 1/2+x,1/2-y,1/2+z
5 -x,-y,-z
6 1/2-x,1/2-y,-z
7 -x,y,1/2-z
8 1/2-x,1/2+y,1/2-z
_cell_length_a                   14.1840(7)
_cell_length_b                   11.5150(12)
_cell_length_c                   15.6190(12)
_cell_angle_alpha                90
_cell_angle_beta                 106.633(4)
_cell_angle_gamma                90
_cell_volume                     2444.29
loop_
_atom_site_label
_atom_site_type_symbol
_atom_site_fract_x
_atom_site_fract_y
_atom_site_fract_z
Nd1 Nd 0.324546(9) 0.357167(11) 0.339828(9)
O1 O 0.19515(13) 0.23982(16) 0.23600(14)
O2 O 0.14289(13) 0.06677(17) 0.17652(14)
O3 O 0.32172(13) -0.02205(16) 0.24562(14)
O4 O 0.37653(14) 0.15073(15) 0.30694(14)
O5 O 0.35674(13) 0.22068(17) 0.46863(13)
O6 O 0.30542(14) 0.14609(15) 0.58019(13)
O7 O 0.50347(14) 0.36481(16) 0.36326(13)
O8 O 0.62757(13) 0.36599(16) 0.30023(13)
O9 O 0.38781(15) 0.46519(18) 0.48983(14)
H1 H 0.4180 0.5341 0.5022
H2 H 0.4090 0.4163 0.5408
C1 C 0.20745(19) 0.1344(2) 0.22188(19)
C2 C 0.31186(18) 0.0837(2) 0.26203(17)
C3 C 0.29729(17) 0.2112(2) 0.51424(17)
C4 C 0.53795(19) 0.3648(2) 0.29778(18)
C3E C 0.20271(17) 0.2888(2) 0.48576(17)
O5E O 0.14326(13) 0.27932(17) 0.53137(13)
O6E O 0.19458(14) 0.35391(15) 0.41981(13)
C4F C 0.46205(19) 0.3648(2) 0.20222(18)
O7F O 0.49653(14) 0.36481(16) 0.13674(13)
O8F O 0.37243(13) 0.36599(16) 0.19977(13)
O1G O 0.30485(13) 0.73982(16) 0.26400(14)
O2G O 0.35711(13) 0.56677(17) 0.32348(14)
O3G O 0.17828(13) 0.47795(16) 0.25438(14)
O4G O 0.12347(14) 0.65073(15) 0.19306(14)
C1G C 0.29255(19) 0.6344(2) 0.27812(19)
C2G C 0.18814(18) 0.5837(2) 0.23797(17)
Nd1G Nd 0.175454(9) 0.857167(11) 0.160172(9)
O9G O 0.11219(15) 0.96519(18) 0.01017(14)
H1G H 0.0820 1.0341 -0.0022
H2G H 0.0910 0.9163 -0.0408
Nd1G_2 Nd 0.175454(9) -0.142833(11) 0.160172(9)
Nd1E Nd 0.175454(9) 0.142833(11) 0.660172(9)
Nd1F Nd 0.675454(9) 0.357167(11) 0.160172(9)
O2_2 O 0.14289(13) 1.06677(17) 0.17652(14)
O3_2 O 0.32172(13) 0.97795(16) 0.24562(14)
O5G O 0.14326(13) 0.72068(17) 0.03137(13)
O6B O 0.30542(14) 0.85391(15) 0.08019(13)
O7G O -0.00347(14) 0.86481(16) 0.13674(13)
O8A O 0.12757(13) 0.86599(16) 0.30023(13)
O10 O 0.44671(17) 0.35709(19) 0.64759(17)
H3 H 0.4535 0.2767 0.6550
H4 H 0.5084 0.3874 0.6719
O11 O 0.5000 0.1446(3) 0.7500
H5 H 0.4582 0.0900 0.7665
H5F H 0.5418 0.0900 0.7335
N1 N 0.21167(18) 0.5810(3) 0.53973(19)
H6 H 0.2406 0.5231 0.5167
H7 H 0.2490 0.6166 0.5892
N2 N 0.06869(19) 0.5670(3) 0.42546(19)
H8 H 0.0072 0.5923 0.3989
H9 H 0.1018 0.5209 0.3978
N3 N 0.0738(2) 0.6814(3) 0.5475(2)
H10 H 0.1081 0.7009 0.6059
H11 H 0.0043 0.6839 0.5334
C5 C 0.1173(2) 0.6100(3) 0.5042(2)
loop_
_geom_bond_atom_site_label_1
_geom_bond_atom_site_label_2
_geom_bond_site_symmetry_1
_geom_bond_site_symmetry_2
Nd1 O1 1_555 1_555
O1 C1 1_555 1_555
O2 C1 1_555 1_555
O3 C2 1_555 1_555
O4 Nd1 1_555 1_555
O5 Nd1 1_555 1_555
O6 C3 1_555 1_555
O7 Nd1 1_555 1_555
O8 C4 1_555 1_555
O9 Nd1 1_555 1_555
H1 O9 1_555 1_555
H2 O9 1_555 1_555
O10 H3 1_555 1_555
H4 O10 1_555 1_555
O11 H5 1_555 1_555
N1 H6 1_555 1_555
H7 N1 1_555 1_555
N2 H8 1_555 1_555
H9 N2 1_555 1_555
N3 H10 1_555 1_555
H11 N3 1_555 1_555
C1 C2 1_555 1_555
C2 O4 1_555 1_555
C3 O5 1_555 1_555
C4 O7 1_555 1_555
C5 N1 1_555 1_555
C3E C3 1_555 1_555
O5E C3E 1_555 1_555
O6E Nd1 1_555 1_555
C4F C4 1_555 1_555
O7F C4F 1_555 1_555
O8F Nd1 1_555 1_555
H5F O11 1_555 1_555
O1G C1G 1_555 1_555
O2G Nd1 1_555 1_555
O3G Nd1 1_555 1_555
O4G C2G 1_555 1_555
C1G O2G 1_555 1_555
C2G O3G 1_555 1_555
Nd1G O1G 1_555 1_555
O9G Nd1G 1_555 1_555
H1G O9G 1_555 1_555
H2G O9G 1_555 1_555
Nd1G_2 O2 1_555 1_555
Nd1E O6 1_555 1_555
Nd1F O8 1_555 1_555
O2_2 Nd1G 1_555 1_555
O3_2 Nd1G 1_555 1_555
O5G Nd1G 1_555 1_555
O6B Nd1G 1_555 1_555
O7G Nd1G 1_555 1_555
O8A Nd1G 1_555 1_555
O3 Nd1G_2 1_555 1_555
N2 C5 1_555 1_555
N3 C5 1_555 1_555
C3E O6E 1_555 1_555
O5E Nd1E 1_555 1_555
C4F O8F 1_555 1_555
O7F Nd1F 1_555 1_555
O4G Nd1G 1_555 1_555
C1G C2G 1_555 1_555

#END
