
#######################################################################
#
#                 Cambridge Crystallographic Data Centre
#                                CCDC 
#
#######################################################################
#
# If this CIF has been generated from an entry in the Cambridge 
# Structural Database, then it will include bibliographic, chemical, 
# crystal, experimental, refinement or atomic coordinate data resulting 
# from the CCDC's data processing and validation procedures.
#
#######################################################################

data_DAJHUS
_symmetry_cell_setting           monoclinic
_symmetry_space_group_name_H-M   'C 2/c'
_symmetry_Int_Tables_number      15
_space_group_name_Hall           '-C 2yn'
loop_
_symmetry_equiv_pos_site_id
_symmetry_equiv_pos_as_xyz
1 x,y,z
2 1/2+x,1/2+y,z
3 x,-y,1/2+z
4 1/2+x,1/2-y,1/2+z
5 -x,-y,-z
6 1/2-x,1/2-y,-z
7 -x,y,1/2-z
8 1/2-x,1/2+y,1/2-z
_cell_length_a                   16.900(3)
_cell_length_b                   20.189(3)
_cell_length_c                   12.1277(18)
_cell_angle_alpha                90.00
_cell_angle_beta                 116.888(12)
_cell_angle_gamma                90.00
_cell_volume                     3690.56
loop_
_atom_site_label
_atom_site_type_symbol
_atom_site_fract_x
_atom_site_fract_y
_atom_site_fract_z
Co1 Co 0.05426(2) 0.219569(16) 0.37766(3)
O1 O -0.03492(14) 0.14668(10) 0.36297(19)
O2 O -0.12282(14) 0.14675(10) 0.15930(18)
O3 O -0.37252(14) -0.20908(10) 0.35365(19)
O4 O -0.45653(14) -0.21303(10) 0.1491(2)
C1 C -0.14448(19) 0.06413(14) 0.2821(3)
C2 C -0.2123(2) 0.03482(15) 0.1822(3)
H1 H -0.2305 0.0531 0.1041
C3 C -0.2550(2) -0.02263(15) 0.1953(3)
C4 C -0.3237(2) -0.05499(18) 0.0930(3)
H2 H -0.3401 -0.0392 0.0135
C5 C -0.3657(2) -0.10853(17) 0.1090(3)
H3 H -0.4100 -0.1294 0.0405
C6 C -0.34294(19) -0.13300(14) 0.2294(3)
C7 C -0.27450(19) -0.10429(14) 0.3290(3)
H4 H -0.2577 -0.1217 0.4074
C8 C -0.22879(19) -0.04895(14) 0.3156(3)
C9 C -0.1569(2) -0.01876(16) 0.4172(3)
H5 H -0.1375 -0.0365 0.4960
C10 C -0.1159(2) 0.03579(16) 0.4012(3)
H6 H -0.0687 0.0547 0.4690
C11 C -0.09775(18) 0.12385(13) 0.2667(3)
C12 C -0.39433(18) -0.18922(14) 0.2453(3)
C13 C 0.0841(2) 0.18368(18) 0.6334(3)
H7 H 0.0381 0.1542 0.5900
C14 C 0.1188(3) 0.1850(2) 0.7595(3)
H8 H 0.0970 0.1567 0.7997
C15 C 0.1864(2) 0.22852(19) 0.8266(3)
C16 C 0.2177(2) 0.26797(18) 0.7617(3)
H9 H 0.2641 0.2973 0.8036
C17 C 0.1794(2) 0.26355(16) 0.6336(3)
H10 H 0.2014 0.2903 0.5913
C18 C 0.2213(3) 0.2299(2) 0.9624(3)
H11 H 0.1991 0.1982 0.9968
N1 N 0.11241(16) 0.22248(11) 0.5689(2)
C18E C 0.2787(3) 0.2701(2) 1.0376(3)
C15E C 0.3136(2) 0.27148(19) 1.1734(3)
C14E C 0.3812(3) 0.3150(2) 1.2405(3)
C13E C 0.4159(2) 0.31632(18) 1.3666(3)
H7E H 0.4619 0.3458 1.4100
N1E N 0.38759(16) 0.27752(11) 1.4311(2)
C17E C 0.3206(2) 0.23645(16) 1.3664(3)
C16E C 0.2823(2) 0.23203(18) 1.2383(3)
H9E H 0.2359 0.2027 1.1964
H10E H 0.2986 0.2097 1.4087
H8E H 0.4030 0.3433 1.2003
H11E H 0.3009 0.3018 1.0032
O1F O 0.03492(14) 0.14668(10) 0.13703(19)
O2F O 0.12282(14) 0.14675(10) 0.34070(18)
O3F O 0.37252(14) -0.20908(10) 0.14635(19)
O4F O 0.45653(14) -0.21303(10) 0.3509(2)
C1F C 0.14448(19) 0.06413(14) 0.2179(3)
C2F C 0.2123(2) 0.03482(15) 0.3178(3)
H1F H 0.2305 0.0531 0.3959
C3F C 0.2550(2) -0.02263(15) 0.3047(3)
C4F C 0.3237(2) -0.05499(18) 0.4070(3)
H2F H 0.3401 -0.0392 0.4865
C5F C 0.3657(2) -0.10853(17) 0.3910(3)
H3F H 0.4100 -0.1294 0.4595
C6F C 0.34294(19) -0.13300(14) 0.2706(3)
C7F C 0.27450(19) -0.10429(14) 0.1710(3)
H4F H 0.2577 -0.1217 0.0926
C8F C 0.22879(19) -0.04895(14) 0.1844(3)
C9F C 0.1569(2) -0.01876(16) 0.0828(3)
H5F H 0.1375 -0.0365 0.0040
C10F C 0.1159(2) 0.03579(16) 0.0988(3)
H6F H 0.0687 0.0547 0.0310
C11F C 0.09775(18) 0.12385(13) 0.2333(3)
C12F C 0.39433(18) -0.18922(14) 0.2547(3)
Co1F Co -0.05426(2) 0.219569(16) 0.12234(3)
O3A O 0.12748(14) 0.29092(10) 0.35365(19)
O4G O -0.04347(14) 0.28697(10) 0.3509(2)
Co1A Co -0.44574(2) -0.280431(16) 0.37766(3)
Co1G Co -0.55426(2) -0.280431(16) 0.12234(3)
Co1E Co 0.44574(2) 0.280431(16) 1.62234(3)
Co1G_2 Co 0.44574(2) -0.280431(16) 0.12234(3)
Co1A_2 Co 0.55426(2) -0.280431(16) 0.37766(3)
O3G O -0.12748(14) 0.29092(10) 0.14635(19)
O4A O 0.04347(14) 0.28697(10) 0.1491(2)
N1F N -0.11241(16) 0.22248(11) -0.0689(2)
C19 C 0.0252(4) 0.3685(4) 0.7237(7)
H12 H 0.0417 0.3282 0.7029
C20 C 0.0539(5) 0.4224(5) 0.6987(8)
H13 H 0.0925 0.4207 0.6633
C21 C 0.0285(6) 0.4813(4) 0.7235(9)
H14 H 0.0487 0.5207 0.7055
C19F C -0.0252(4) 0.3685(4) 0.7763(7)
H12F H -0.0417 0.3282 0.7971
C20F C -0.0539(5) 0.4224(5) 0.8013(8)
H13F H -0.0925 0.4207 0.8367
C21F C -0.0285(6) 0.4813(4) 0.7765(9)
H14F H -0.0487 0.5207 0.7945
O5 O 0.0000 0.0444(13) 0.7500
loop_
_geom_bond_atom_site_label_1
_geom_bond_atom_site_label_2
_geom_bond_site_symmetry_1
_geom_bond_site_symmetry_2
Co1 O1 1_555 1_555
O1 C11 1_555 1_555
O2 C11 1_555 1_555
O3 C12 1_555 1_555
O4 C12 1_555 1_555
C1 C2 1_555 1_555
C2 H1 1_555 1_555
C3 C2 1_555 1_555
C4 C3 1_555 1_555
H2 C4 1_555 1_555
C5 C4 1_555 1_555
H3 C5 1_555 1_555
C6 C5 1_555 1_555
C7 C6 1_555 1_555
H4 C7 1_555 1_555
C8 C3 1_555 1_555
C9 C8 1_555 1_555
H5 C9 1_555 1_555
C10 C1 1_555 1_555
H6 C10 1_555 1_555
C11 C1 1_555 1_555
C12 C6 1_555 1_555
C13 H7 1_555 1_555
C14 C13 1_555 1_555
H8 C14 1_555 1_555
C15 C14 1_555 1_555
C16 C15 1_555 1_555
H9 C16 1_555 1_555
C17 C16 1_555 1_555
H10 C17 1_555 1_555
C18 C15 1_555 1_555
H11 C18 1_555 1_555
N1 Co1 1_555 1_555
C19 H12 1_555 1_555
C20 C19 1_555 1_555
H13 C20 1_555 1_555
C21 C20 1_555 1_555
H14 C21 1_555 1_555
C18E C18 1_555 1_555
C15E C18E 1_555 1_555
C14E C15E 1_555 1_555
C13E C14E 1_555 1_555
H7E C13E 1_555 1_555
N1E C13E 1_555 1_555
C17E N1E 1_555 1_555
C16E C15E 1_555 1_555
H9E C16E 1_555 1_555
H10E C17E 1_555 1_555
H8E C14E 1_555 1_555
H11E C18E 1_555 1_555
C19F C19 1_555 1_555
H12F C19F 1_555 1_555
C20F C19F 1_555 1_555
H13F C20F 1_555 1_555
C21F C21 1_555 1_555
H14F C21F 1_555 1_555
O1F C11F 1_555 1_555
O2F Co1 1_555 1_555
O3F C12F 1_555 1_555
O4F C12F 1_555 1_555
C1F C2F 1_555 1_555
C2F H1F 1_555 1_555
C3F C2F 1_555 1_555
C4F C3F 1_555 1_555
H2F C4F 1_555 1_555
C5F C4F 1_555 1_555
H3F C5F 1_555 1_555
C6F C5F 1_555 1_555
C7F C6F 1_555 1_555
H4F C7F 1_555 1_555
C8F C3F 1_555 1_555
C9F C8F 1_555 1_555
H5F C9F 1_555 1_555
C10F C1F 1_555 1_555
H6F C10F 1_555 1_555
C11F O2F 1_555 1_555
C12F C6F 1_555 1_555
Co1F Co1 1_555 1_555
O3A Co1 1_555 1_555
O4G Co1 1_555 1_555
Co1A O3 1_555 1_555
Co1G O4 1_555 1_555
Co1E N1E 1_555 1_555
Co1G_2 O3F 1_555 1_555
Co1A_2 O4F 1_555 1_555
O3G Co1F 1_555 1_555
O4A Co1F 1_555 1_555
N1F Co1F 1_555 1_555
O2 Co1F 1_555 1_555
C7 C8 1_555 1_555
C9 C10 1_555 1_555
C13 N1 1_555 1_555
C17 N1 1_555 1_555
C17E C16E 1_555 1_555
C20F C21F 1_555 1_555
O1F Co1F 1_555 1_555
C1F C11F 1_555 1_555
C7F C8F 1_555 1_555
C9F C10F 1_555 1_555
Co1A Co1G 1_555 1_555
Co1G_2 Co1A_2 1_555 1_555

#END
