
#######################################################################
#
#                 Cambridge Crystallographic Data Centre
#                                CCDC 
#
#######################################################################
#
# If this CIF has been generated from an entry in the Cambridge 
# Structural Database, then it will include bibliographic, chemical, 
# crystal, experimental, refinement or atomic coordinate data resulting 
# from the CCDC's data processing and validation procedures.
#
#######################################################################

data_DAKVOC
_symmetry_cell_setting           orthorhombic
_symmetry_space_group_name_H-M   'P b c m'
_symmetry_Int_Tables_number      57
_space_group_name_Hall           '-P 2c 2b'
loop_
_symmetry_equiv_pos_site_id
_symmetry_equiv_pos_as_xyz
1 x,y,z
2 -x,-y,1/2+z
3 x,1/2-y,-z
4 -x,1/2+y,1/2-z
5 -x,-y,-z
6 x,y,1/2-z
7 -x,1/2+y,z
8 x,1/2-y,1/2+z
_cell_length_a                   12.4105(5)
_cell_length_b                   26.2172(12)
_cell_length_c                   26.2215(12)
_cell_angle_alpha                90
_cell_angle_beta                 90
_cell_angle_gamma                90
_cell_volume                     8531.65
loop_
_atom_site_label
_atom_site_type_symbol
_atom_site_fract_x
_atom_site_fract_y
_atom_site_fract_z
Zn1 Zn 1.15408(7) 0.22118(3) 0.2500
Zn2 Zn 0.98713(7) 0.30297(3) 0.2500
Zn3 Zn 0.08194(4) -0.00688(2) 0.04080(3)
C1 C 0.9652(5) 0.2140(3) 0.1801(3)
C2 C 0.9034(5) 0.1893(3) 0.1379(2)
C3 C 0.8127(5) 0.2145(3) 0.1190(3)
H1 H 0.7893 0.2448 0.1337
C4 C 0.7568(5) 0.1928(2) 0.0770(3)
C5 C 0.7904(5) 0.1466(2) 0.0570(2)
H2 H 0.7529 0.1317 0.0301
C6 C 0.8809(5) 0.1224(2) 0.0774(3)
C7 C 0.9364(5) 0.1434(3) 0.1172(3)
H3 H 0.9965 0.1268 0.1304
C8 C 0.9211(4) 0.0737(2) 0.0518(3)
C9 C 0.6156(5) 0.2053(2) 0.0164(2)
H4 H 0.5714 0.1759 0.0247
H5 H 0.6649 0.1959 -0.0107
C10 C 0.5451(5) 0.2500 0.0000
C11 C 0.4738(4) 0.2325(2) -0.0447(2)
H6 H 0.4247 0.2596 -0.0546
H7 H 0.5180 0.2237 -0.0739
C12 C 0.3336(5) 0.1709(2) -0.0575(2)
C13 C 0.3030(5) 0.1916(3) -0.1040(2)
H8 H 0.3407 0.2188 -0.1181
C14 C 0.2137(5) 0.1705(3) -0.1294(2)
C15 C 0.1584(5) 0.1294(3) -0.1088(3)
H9 H 0.0994 0.1157 -0.1259
C16 C 0.1913(5) 0.1085(2) -0.0622(3)
C17 C 0.2793(5) 0.1289(2) -0.0368(3)
H10 H 0.3021 0.1149 -0.0061
C18 C 0.1719(5) 0.1945(3) -0.1777(2)
C19 C 0.1289(5) 0.0656(3) -0.0384(3)
O1 O 1.2573(7) 0.1634(4) 0.2500
O2 O 0.8812(9) 0.3594(4) 0.2500
O3 O 1.0485(4) 0.1944(2) 0.19612(18)
O4 O 0.9256(4) 0.2563(2) 0.1966(2)
O5 O 1.0001(4) 0.0519(2) 0.0729(2)
O6 O 0.8750(4) 0.06057(19) 0.0119(2)
O7 O 0.6744(4) 0.22205(19) 0.0606(2)
O8 O 0.4154(4) 0.1895(2) -0.02777(19)
O9 O 0.2164(4) 0.23303(19) -0.19426(17)
O10 O 0.0906(4) 0.1725(2) -0.1973(2)
O11 O 0.0426(5) 0.0533(2) -0.0602(2)
O12 O 0.1669(5) 0.0450(2) 0.0016(2)
O13 O 0.1839(5) -0.0273(2) 0.0947(2)
Zn1_2 Zn 0.15408(7) 0.22118(3) 0.2500
Zn1B Zn 0.15408(7) 0.27882(3) -0.2500
Zn1B_2 Zn 1.15408(7) 0.27882(3) -0.2500
Zn2_2 Zn -0.01287(7) 0.30297(3) 0.2500
Zn2B Zn -0.01287(7) 0.19703(3) -0.2500
Zn2B_2 Zn 0.98713(7) 0.19703(3) -0.2500
Zn3B Zn 0.08194(4) 0.50688(2) -0.04080(3)
Zn3_2 Zn 1.08194(4) -0.00688(2) 0.04080(3)
Zn3B_2 Zn 1.08194(4) 0.50688(2) -0.04080(3)
Zn3D Zn -0.08194(4) 0.00688(2) -0.04080(3)
Zn3D_2 Zn 0.91806(4) 0.00688(2) -0.04080(3)
Zn3F Zn -0.08194(4) 0.49312(2) 0.04080(3)
Zn3F_2 Zn 0.91806(4) 0.49312(2) 0.04080(3)
C1B C 0.9652(5) 0.2860(3) -0.1801(3)
C2B C 0.9034(5) 0.3107(3) -0.1379(2)
C3B C 0.8127(5) 0.2855(3) -0.1190(3)
H1B H 0.7893 0.2552 -0.1337
C4B C 0.7568(5) 0.3072(2) -0.0770(3)
C5B C 0.7904(5) 0.3534(2) -0.0570(2)
H2B H 0.7529 0.3683 -0.0301
C6B C 0.8809(5) 0.3776(2) -0.0774(3)
C7B C 0.9364(5) 0.3566(3) -0.1172(3)
H3B H 0.9965 0.3732 -0.1304
C8B C 0.9211(4) 0.4263(2) -0.0518(3)
C9B C 0.6156(5) 0.2947(2) -0.0164(2)
H4B H 0.5714 0.3241 -0.0247
H5B H 0.6649 0.3041 0.0107
C11B C 0.4738(4) 0.2675(2) 0.0447(2)
H6B H 0.4247 0.2404 0.0546
H7B H 0.5180 0.2763 0.0739
C12B C 0.3336(5) 0.3291(2) 0.0575(2)
C13B C 0.3030(5) 0.3084(3) 0.1040(2)
H8B H 0.3407 0.2812 0.1181
C14B C 0.2137(5) 0.3295(3) 0.1294(2)
C15B C 0.1584(5) 0.3706(3) 0.1088(3)
H9B H 0.0994 0.3843 0.1259
C16B C 0.1913(5) 0.3915(2) 0.0622(3)
C17B C 0.2793(5) 0.3711(2) 0.0368(3)
H10B H 0.3021 0.3851 0.0061
C18B C 0.1719(5) 0.3055(3) 0.1777(2)
C19B C 0.1289(5) 0.4344(3) 0.0384(3)
O3B O 1.0485(4) 0.3056(2) -0.19612(18)
O3E O 1.0485(4) 0.1944(2) 0.30388(18)
O4B O 0.9256(4) 0.2437(2) -0.1966(2)
O4E O 0.9256(4) 0.2563(2) 0.3034(2)
O5B O 1.0001(4) 0.4481(2) -0.0729(2)
O5_2 O 0.0001(4) 0.0519(2) 0.0729(2)
O5B_2 O 0.0001(4) 0.4481(2) -0.0729(2)
O6B O 0.8750(4) 0.43943(19) -0.0119(2)
O6D O 0.1250(4) -0.06057(19) -0.0119(2)
O6F O 0.1250(4) 0.56057(19) 0.0119(2)
O7B O 0.6744(4) 0.27795(19) -0.0606(2)
O8B O 0.4154(4) 0.3105(2) 0.02777(19)
O9B O 0.2164(4) 0.26697(19) 0.19426(17)
O9B_2 O 1.2164(4) 0.26697(19) 0.19426(17)
O9G O 1.2164(4) 0.26697(19) 0.30574(17)
O10B O 0.0906(4) 0.3275(2) 0.1973(2)
O10B_2 O 1.0906(4) 0.3275(2) 0.1973(2)
O10G O 1.0906(4) 0.3275(2) 0.3027(2)
O11B O 0.0426(5) 0.4467(2) 0.0602(2)
O11D O -0.0426(5) -0.0533(2) 0.0602(2)
O11F O -0.0426(5) 0.5533(2) -0.0602(2)
O12B O 0.1669(5) 0.4550(2) -0.0016(2)
O13B O 0.1839(5) 0.5273(2) -0.0947(2)
loop_
_geom_bond_atom_site_label_1
_geom_bond_atom_site_label_2
_geom_bond_site_symmetry_1
_geom_bond_site_symmetry_2
Zn1 O1 1_555 1_555
Zn2 O2 1_555 1_555
Zn3 O12 1_555 1_555
C1 C2 1_555 1_555
C2 C3 1_555 1_555
C3 H1 1_555 1_555
C4 C3 1_555 1_555
C5 C4 1_555 1_555
H2 C5 1_555 1_555
C6 C5 1_555 1_555
C7 C2 1_555 1_555
H3 C7 1_555 1_555
C8 C6 1_555 1_555
C9 H4 1_555 1_555
H5 C9 1_555 1_555
C10 C9 1_555 1_555
C11 C10 1_555 1_555
H6 C11 1_555 1_555
H7 C11 1_555 1_555
C12 C13 1_555 1_555
C13 H8 1_555 1_555
C14 C13 1_555 1_555
C15 C14 1_555 1_555
H9 C15 1_555 1_555
C16 C15 1_555 1_555
C17 C12 1_555 1_555
H10 C17 1_555 1_555
C18 C14 1_555 1_555
C19 C16 1_555 1_555
O3 Zn1 1_555 1_555
O4 Zn2 1_555 1_555
O5 C8 1_555 1_555
O6 C8 1_555 1_555
O7 C4 1_555 1_555
O8 C11 1_555 1_555
O9 C18 1_555 1_555
O10 C18 1_555 1_555
O11 C19 1_555 1_555
O12 C19 1_555 1_555
O13 Zn3 1_555 1_555
Zn1_2 O9B 1_555 1_555
Zn1B O9 1_555 1_555
Zn1B_2 O3B 1_555 1_555
Zn2_2 O10B 1_555 1_555
Zn2B O10 1_555 1_555
Zn2B_2 O4B 1_555 1_555
Zn3B O5B_2 1_555 1_555
Zn3_2 O5 1_555 1_555
Zn3B_2 O5B 1_555 1_555
Zn3D O11 1_555 1_555
Zn3D_2 O6 1_555 1_555
Zn3F O11B 1_555 1_555
Zn3F_2 O6B 1_555 1_555
C1B C2B 1_555 1_555
C2B C3B 1_555 1_555
C3B H1B 1_555 1_555
C4B C3B 1_555 1_555
C5B C4B 1_555 1_555
H2B C5B 1_555 1_555
C6B C5B 1_555 1_555
C7B C2B 1_555 1_555
H3B C7B 1_555 1_555
C8B C6B 1_555 1_555
C9B C10 1_555 1_555
H4B C9B 1_555 1_555
H5B C9B 1_555 1_555
C11B C10 1_555 1_555
H6B C11B 1_555 1_555
H7B C11B 1_555 1_555
C12B C13B 1_555 1_555
C13B H8B 1_555 1_555
C14B C13B 1_555 1_555
C15B C14B 1_555 1_555
H9B C15B 1_555 1_555
C16B C15B 1_555 1_555
C17B C12B 1_555 1_555
H10B C17B 1_555 1_555
C18B C14B 1_555 1_555
C19B C16B 1_555 1_555
O3B C1B 1_555 1_555
O3E Zn1 1_555 1_555
O4B C1B 1_555 1_555
O4E Zn2 1_555 1_555
O5B C8B 1_555 1_555
O5_2 Zn3 1_555 1_555
O6B C8B 1_555 1_555
O6D Zn3 1_555 1_555
O6F Zn3B 1_555 1_555
O7B C4B 1_555 1_555
O8B C11B 1_555 1_555
O9B C18B 1_555 1_555
O9B_2 Zn1 1_555 1_555
O9G Zn1 1_555 1_555
O10B C18B 1_555 1_555
O10B_2 Zn2 1_555 1_555
O10G Zn2 1_555 1_555
O11B C19B 1_555 1_555
O11D Zn3 1_555 1_555
O11F Zn3B 1_555 1_555
O12B Zn3B 1_555 1_555
O13B Zn3B 1_555 1_555
C1 O3 1_555 1_555
C1 O4 1_555 1_555
C6 C7 1_555 1_555
C9 O7 1_555 1_555
C12 O8 1_555 1_555
C16 C17 1_555 1_555
C6B C7B 1_555 1_555
C9B O7B 1_555 1_555
C12B O8B 1_555 1_555
C16B C17B 1_555 1_555
C19B O12B 1_555 1_555

#END
