
#######################################################################
#
#                 Cambridge Crystallographic Data Centre
#                                CCDC 
#
#######################################################################
#
# If this CIF has been generated from an entry in the Cambridge 
# Structural Database, then it will include bibliographic, chemical, 
# crystal, experimental, refinement or atomic coordinate data resulting 
# from the CCDC's data processing and validation procedures.
#
#######################################################################

data_DARCUW
_symmetry_cell_setting           monoclinic
_symmetry_space_group_name_H-M   'P 2/c'
_symmetry_Int_Tables_number      13
_space_group_name_Hall           '-P 2yc'
loop_
_symmetry_equiv_pos_site_id
_symmetry_equiv_pos_as_xyz
1 x,y,z
2 -x,y,1/2-z
3 -x,-y,-z
4 x,-y,1/2+z
_cell_length_a                   14.3832(11)
_cell_length_b                   10.4548(5)
_cell_length_c                   23.3057(18)
_cell_angle_alpha                90
_cell_angle_beta                 107.348(4)
_cell_angle_gamma                90
_cell_volume                     3345.14
loop_
_atom_site_label
_atom_site_type_symbol
_atom_site_fract_x
_atom_site_fract_y
_atom_site_fract_z
Yb1 Yb 0.152077(17) 0.06783(2) 0.227507(11)
C1 C 0.1892(4) 0.1258(6) 0.5429(3)
C2 C 0.2539(5) 0.1153(10) 0.5094(3)
H1 H 0.3204 0.1129 0.5291
C3 C 0.2218(6) 0.1083(10) 0.4476(3)
H2 H 0.2665 0.0991 0.4261
C4 C 0.1229(4) 0.1148(6) 0.4174(3)
C5 C 0.0570(5) 0.1242(8) 0.4500(3)
H3 H -0.0095 0.1280 0.4302
C6 C 0.0901(5) 0.1277(8) 0.5121(3)
H4 H 0.0453 0.1314 0.5337
C7 C 0.0883(5) 0.1121(6) 0.3499(3)
C8 C 0.2144(4) 0.2992(6) 0.6416(3)
C9 C 0.2217(6) 0.4001(7) 0.6024(3)
H5 H 0.2362 0.3823 0.5669
C10 C 0.2070(6) 0.5255(6) 0.6174(3)
H6 H 0.2068 0.5916 0.5908
C11 C 0.1925(5) 0.5515(6) 0.6730(3)
C12 C 0.1891(6) 0.4519(7) 0.7121(3)
H7 H 0.1798 0.4696 0.7491
C13 C 0.1994(5) 0.3279(6) 0.6960(3)
H8 H 0.1962 0.2619 0.7221
C14 C 0.1757(5) 0.6866(6) 0.6889(3)
C15 C 0.3552(4) 0.0952(6) 0.6477(3)
C16 C 0.3825(4) -0.0326(6) 0.6531(3)
H9 H 0.3350 -0.0960 0.6435
C17 C 0.4794(6) -0.0662(6) 0.6726(3)
H10 H 0.4961 -0.1524 0.6757
C18 C 0.5523(4) 0.0243(6) 0.6877(3)
C19 C 0.5255(5) 0.1549(6) 0.6809(3)
H11 H 0.5736 0.2175 0.6895
C20 C 0.4292(5) 0.1901(6) 0.6616(3)
H12 H 0.4124 0.2763 0.6576
C21 C 0.6570(5) -0.0096(7) 0.7133(3)
C22 C 0.0000 -0.1544(13) 0.2500
H13 H 0.0000 -0.2434 0.2500
O1 O 0.1521(3) 0.1022(5) 0.3233(2)
O2 O -0.0011(3) 0.1203(5) 0.3238(2)
O3 O 0.1863(3) 0.7788(4) 0.6573(2)
O4 O 0.1524(3) 0.7053(5) 0.7372(2)
O5 O 0.6791(3) -0.1212(5) 0.7293(2)
O6 O 0.7207(3) 0.0785(4) 0.7202(2)
O7 O 0.1686(3) 0.0484(4) 0.6494(2)
O8 O 0.0718(3) -0.1092(5) 0.2409(2)
P1 P 0.22810(10) 0.13540(14) 0.62284(6)
Yb1A Yb -0.152077(17) 0.06783(2) 0.272493(11)
Yb1C Yb 0.152077(17) 0.93217(2) 0.727507(11)
Yb1B Yb 0.847923(17) -0.06783(2) 0.772493(11)
Yb1C_2 Yb 0.152077(17) -0.06783(2) 0.727507(11)
Yb1B_2 Yb -0.152077(17) 0.93217(2) -0.227507(11)
Yb1C_3 Yb -0.847923(17) -0.06783(2) -0.272493(11)
Yb1B_3 Yb -0.152077(17) -0.06783(2) -0.227507(11)
C1A C -0.1892(4) 0.1258(6) -0.0429(3)
C2A C -0.2539(5) 0.1153(10) -0.0094(3)
H1A H -0.3204 0.1129 -0.0291
C3A C -0.2218(6) 0.1083(10) 0.0524(3)
H2A H -0.2665 0.0991 0.0739
C4A C -0.1229(4) 0.1148(6) 0.0826(3)
C5A C -0.0570(5) 0.1242(8) 0.0500(3)
H3A H 0.0095 0.1280 0.0698
C6A C -0.0901(5) 0.1277(8) -0.0121(3)
H4A H -0.0453 0.1314 -0.0337
C7A C -0.0883(5) 0.1121(6) 0.1501(3)
C8A C -0.2144(4) 0.2992(6) -0.1416(3)
C9A C -0.2217(6) 0.4001(7) -0.1024(3)
H5A H -0.2362 0.3823 -0.0669
C10A C -0.2070(6) 0.5255(6) -0.1174(3)
H6A H -0.2068 0.5916 -0.0908
C11A C -0.1925(5) 0.5515(6) -0.1730(3)
C12A C -0.1891(6) 0.4519(7) -0.2121(3)
H7A H -0.1798 0.4696 -0.2491
C13A C -0.1994(5) 0.3279(6) -0.1960(3)
H8A H -0.1962 0.2619 -0.2221
C14A C -0.1757(5) 0.6866(6) -0.1889(3)
C15A C -0.3552(4) 0.0952(6) -0.1477(3)
C16A C -0.3825(4) -0.0326(6) -0.1531(3)
H9A H -0.3350 -0.0960 -0.1435
C17A C -0.4794(6) -0.0662(6) -0.1726(3)
H10A H -0.4961 -0.1524 -0.1757
C18A C -0.5523(4) 0.0243(6) -0.1877(3)
C19A C -0.5255(5) 0.1549(6) -0.1809(3)
H11A H -0.5736 0.2175 -0.1895
C20A C -0.4292(5) 0.1901(6) -0.1616(3)
H12A H -0.4124 0.2763 -0.1576
C21A C -0.6570(5) -0.0096(7) -0.2133(3)
O1A O -0.1521(3) 0.1022(5) 0.1767(2)
O2A O 0.0011(3) 0.1203(5) 0.1762(2)
O3A O -0.1863(3) 0.7788(4) -0.1573(2)
O3C O 0.1863(3) 0.2212(4) 0.1573(2)
O3B O -0.1863(3) 0.2212(4) 0.3427(2)
O4A O -0.1524(3) 0.7053(5) -0.2372(2)
O4C O 0.1524(3) 0.2947(5) 0.2372(2)
O4B O -0.1524(3) 0.2947(5) 0.2628(2)
O5A O -0.6791(3) -0.1212(5) -0.2293(2)
O5B O 0.3209(3) 0.1212(5) 0.2707(2)
O5C O -0.3209(3) 0.1212(5) 0.2293(2)
O6A O -0.7207(3) 0.0785(4) -0.2202(2)
O6B O 0.2793(3) -0.0785(4) 0.2798(2)
O6C O -0.2793(3) -0.0785(4) 0.2202(2)
O7A O -0.1686(3) 0.0484(4) -0.1494(2)
O7C O 0.1686(3) -0.0484(4) 0.1494(2)
O7B O -0.1686(3) -0.0484(4) 0.3506(2)
O8A O -0.0718(3) -0.1092(5) 0.2591(2)
P1A P -0.22810(10) 0.13540(14) -0.12284(6)
loop_
_geom_bond_atom_site_label_1
_geom_bond_atom_site_label_2
_geom_bond_site_symmetry_1
_geom_bond_site_symmetry_2
Yb1 O1 1_555 1_555
C1 C2 1_555 1_555
C2 H1 1_555 1_555
C3 C2 1_555 1_555
H2 C3 1_555 1_555
C4 C3 1_555 1_555
C5 C4 1_555 1_555
H3 C5 1_555 1_555
C6 C1 1_555 1_555
H4 C6 1_555 1_555
C7 C4 1_555 1_555
C8 C9 1_555 1_555
C9 H5 1_555 1_555
C10 C9 1_555 1_555
H6 C10 1_555 1_555
C11 C10 1_555 1_555
C12 C11 1_555 1_555
H7 C12 1_555 1_555
C13 C8 1_555 1_555
H8 C13 1_555 1_555
C14 C11 1_555 1_555
C15 C16 1_555 1_555
C16 H9 1_555 1_555
C17 C16 1_555 1_555
H10 C17 1_555 1_555
C18 C17 1_555 1_555
C19 C18 1_555 1_555
H11 C19 1_555 1_555
C20 C15 1_555 1_555
H12 C20 1_555 1_555
C21 C18 1_555 1_555
C22 H13 1_555 1_555
O1 C7 1_555 1_555
O2 C7 1_555 1_555
O3 C14 1_555 1_555
O4 C14 1_555 1_555
O5 C21 1_555 1_555
O6 C21 1_555 1_555
O7 P1 1_555 1_555
O8 Yb1 1_555 1_555
P1 C1 1_555 1_555
Yb1A O2 1_555 1_555
Yb1C O3 1_555 1_555
Yb1B O5 1_555 1_555
Yb1C_2 O7 1_555 1_555
Yb1B_2 O3A 1_555 1_555
Yb1C_3 O5A 1_555 1_555
Yb1B_3 O7A 1_555 1_555
C1A C2A 1_555 1_555
C2A H1A 1_555 1_555
C3A C2A 1_555 1_555
H2A C3A 1_555 1_555
C4A C3A 1_555 1_555
C5A C4A 1_555 1_555
H3A C5A 1_555 1_555
C6A C1A 1_555 1_555
H4A C6A 1_555 1_555
C7A C4A 1_555 1_555
C8A C9A 1_555 1_555
C9A H5A 1_555 1_555
C10A C9A 1_555 1_555
H6A C10A 1_555 1_555
C11A C10A 1_555 1_555
C12A C11A 1_555 1_555
H7A C12A 1_555 1_555
C13A C8A 1_555 1_555
H8A C13A 1_555 1_555
C14A C11A 1_555 1_555
C15A C16A 1_555 1_555
C16A H9A 1_555 1_555
C17A C16A 1_555 1_555
H10A C17A 1_555 1_555
C18A C17A 1_555 1_555
C19A C18A 1_555 1_555
H11A C19A 1_555 1_555
C20A C15A 1_555 1_555
H12A C20A 1_555 1_555
C21A C18A 1_555 1_555
O1A Yb1A 1_555 1_555
O2A Yb1 1_555 1_555
O3A C14A 1_555 1_555
O3C Yb1 1_555 1_555
O3B Yb1A 1_555 1_555
O4A Yb1B_2 1_555 1_555
O4C Yb1 1_555 1_555
O4B Yb1A 1_555 1_555
O5A C21A 1_555 1_555
O5B Yb1 1_555 1_555
O5C Yb1A 1_555 1_555
O6A Yb1C_3 1_555 1_555
O6B Yb1 1_555 1_555
O6C Yb1A 1_555 1_555
O7A P1A 1_555 1_555
O7C Yb1 1_555 1_555
O7B Yb1A 1_555 1_555
O8A C22 1_555 1_555
P1A C1A 1_555 1_555
C5 C6 1_555 1_555
C8 P1 1_555 1_555
C12 C13 1_555 1_555
C15 P1 1_555 1_555
C19 C20 1_555 1_555
C22 O8 1_555 1_555
O4 Yb1C 1_555 1_555
O6 Yb1B 1_555 1_555
Yb1A O8A 1_555 1_555
C5A C6A 1_555 1_555
C7A O1A 1_555 1_555
C7A O2A 1_555 1_555
C8A P1A 1_555 1_555
C12A C13A 1_555 1_555
C14A O4A 1_555 1_555
C15A P1A 1_555 1_555
C19A C20A 1_555 1_555
C21A O6A 1_555 1_555

#END
