
#######################################################################
#
#                 Cambridge Crystallographic Data Centre
#                                CCDC 
#
#######################################################################
#
# If this CIF has been generated from an entry in the Cambridge 
# Structural Database, then it will include bibliographic, chemical, 
# crystal, experimental, refinement or atomic coordinate data resulting 
# from the CCDC's data processing and validation procedures.
#
#######################################################################

data_DARDEH
_symmetry_cell_setting           monoclinic
_symmetry_space_group_name_H-M   'P 2/c'
_symmetry_Int_Tables_number      13
_space_group_name_Hall           '-P 2yc'
loop_
_symmetry_equiv_pos_site_id
_symmetry_equiv_pos_as_xyz
1 x,y,z
2 -x,y,1/2-z
3 -x,-y,-z
4 x,-y,1/2+z
_cell_length_a                   14.664(3)
_cell_length_b                   10.603(2)
_cell_length_c                   23.698(4)
_cell_angle_alpha                90
_cell_angle_beta                 108.058(10)
_cell_angle_gamma                90
_cell_volume                     3503.13
loop_
_atom_site_label
_atom_site_type_symbol
_atom_site_fract_x
_atom_site_fract_y
_atom_site_fract_z
Sm1 Sm 0.34655(2) -1.07247(3) -0.227717(14)
C1 C 0.2846(5) -0.7029(6) -0.1404(3)
C2 C 0.2990(8) -0.6771(7) -0.1941(4)
H1 H 0.3009 -0.7427 -0.2198
C3 C 0.3107(8) -0.5547(8) -0.2098(4)
H2 H 0.3203 -0.5382 -0.2461
C4 C 0.3082(6) -0.4562(7) -0.1723(3)
C5 C 0.2914(9) -0.4811(8) -0.1184(4)
H3 H 0.2884 -0.4152 -0.0931
C6 C 0.2793(9) -0.6047(8) -0.1027(4)
H4 H 0.2676 -0.6217 -0.0671
C7 C 0.3216(6) -0.3234(7) -0.1893(3)
C8 C 0.3087(5) -0.8715(6) -0.0421(3)
C9 C 0.4061(6) -0.8726(11) -0.0115(4)
H5 H 0.4501 -0.8707 -0.0325
C10 C 0.4389(6) -0.8763(11) 0.0499(4)
H6 H 0.5045 -0.8756 0.0697
C11 C 0.3750(5) -0.8812(7) 0.0815(3)
C12 C 0.2786(6) -0.8798(12) 0.0513(4)
H7 H 0.2348 -0.8803 0.0725
C13 C 0.2454(6) -0.8776(12) -0.0097(4)
H8 H 0.1797 -0.8803 -0.0292
C14 C 0.4094(5) -0.8817(7) 0.1482(3)
C15 C 0.1447(5) -0.9038(6) -0.1465(3)
C16 C 0.1191(5) -1.0307(7) -0.1533(4)
H9 H 0.1665 -1.0925 -0.1440
C17 C 0.0245(6) -1.0646(7) -0.1735(4)
H10 H 0.0078 -1.1494 -0.1785
C18 C -0.0474(5) -0.9722(7) -0.1867(3)
C19 C -0.0221(6) -0.8468(7) -0.1805(4)
H11 H -0.0692 -0.7847 -0.1903
C20 C 0.0741(6) -0.8135(8) -0.1597(4)
H12 H 0.0910 -0.7288 -0.1546
C21 C -0.1509(5) -1.0088(8) -0.2116(3)
C22 C 0.5000 -0.8475(12) -0.2500
H13 H 0.5000 -0.7598 -0.2500
O1 O 0.3275(4) -0.9524(4) -0.1476(2)
O2 O 0.3430(4) -0.3050(6) -0.2368(3)
O3 O 0.3127(5) -0.2328(5) -0.1574(3)
O4 O 0.4972(4) -0.8758(7) 0.1736(2)
O5 O 0.3477(4) -0.8901(6) 0.1742(2)
O6 O -0.2146(4) -0.9250(5) -0.2200(3)
O7 O -0.1735(4) -1.1212(6) -0.2265(3)
O8 O 0.4303(4) -0.8910(6) -0.2415(3)
P1 P 0.27038(12) -0.86550(16) -0.12163(7)
Sm1_2 Sm 0.34655(2) -2.07247(3) -0.227717(14)
Sm1_3 Sm 0.34655(2) -0.07247(3) -0.227717(14)
Sm1B Sm 0.65345(2) -0.92753(3) 0.227717(14)
Sm1C Sm 0.34655(2) -0.92753(3) 0.272283(14)
Sm1A Sm -0.34655(2) -1.07247(3) -0.272283(14)
Sm1A_2 Sm 0.65345(2) -1.07247(3) -0.272283(14)
Sm1B_2 Sm 0.65345(2) -1.92753(3) 0.227717(14)
Sm1C_2 Sm 0.34655(2) -1.92753(3) 0.272283(14)
Sm1A_3 Sm -0.34655(2) -2.07247(3) -0.272283(14)
C1_2 C 0.2846(5) -1.7029(6) -0.1404(3)
C2_2 C 0.2990(8) -1.6771(7) -0.1941(4)
H1_2 H 0.3009 -1.7427 -0.2198
C3_2 C 0.3107(8) -1.5547(8) -0.2098(4)
H2_2 H 0.3203 -1.5382 -0.2461
C4_2 C 0.3082(6) -1.4562(7) -0.1723(3)
C5_2 C 0.2914(9) -1.4811(8) -0.1184(4)
H3_2 H 0.2884 -1.4152 -0.0931
C6_2 C 0.2793(9) -1.6047(8) -0.1027(4)
H4_2 H 0.2676 -1.6217 -0.0671
C7_2 C 0.3216(6) -1.3234(7) -0.1893(3)
C8_2 C 0.3087(5) -1.8715(6) -0.0421(3)
C9_2 C 0.4061(6) -1.8726(11) -0.0115(4)
H5_2 H 0.4501 -1.8707 -0.0325
C10_2 C 0.4389(6) -1.8763(11) 0.0499(4)
H6_2 H 0.5045 -1.8756 0.0697
C11_2 C 0.3750(5) -1.8812(7) 0.0815(3)
C12_2 C 0.2786(6) -1.8798(12) 0.0513(4)
H7_2 H 0.2348 -1.8803 0.0725
C13_2 C 0.2454(6) -1.8776(12) -0.0097(4)
H8_2 H 0.1797 -1.8803 -0.0292
C14_2 C 0.4094(5) -1.8817(7) 0.1482(3)
C15_2 C 0.1447(5) -1.9038(6) -0.1465(3)
C16_2 C 0.1191(5) -2.0307(7) -0.1533(4)
H9_2 H 0.1665 -2.0925 -0.1440
C17_2 C 0.0245(6) -2.0646(7) -0.1735(4)
H10_2 H 0.0078 -2.1494 -0.1785
C18_2 C -0.0474(5) -1.9722(7) -0.1867(3)
C19_2 C -0.0221(6) -1.8468(7) -0.1805(4)
H11_2 H -0.0692 -1.7847 -0.1903
C20_2 C 0.0741(6) -1.8135(8) -0.1597(4)
H12_2 H 0.0910 -1.7288 -0.1546
C21_2 C -0.1509(5) -2.0088(8) -0.2116(3)
O1_2 O 0.3275(4) -1.9524(4) -0.1476(2)
O2_2 O 0.3430(4) -1.3050(6) -0.2368(3)
O2_3 O 0.3430(4) -2.3050(6) -0.2368(3)
O3_2 O 0.3127(5) -1.2328(5) -0.1574(3)
O3_3 O 0.3127(5) -2.2328(5) -0.1574(3)
O4_2 O 0.4972(4) -1.8758(7) 0.1736(2)
O4B O 0.5028(4) -1.1242(7) -0.1736(2)
O4B_2 O 0.5028(4) -2.1242(7) -0.1736(2)
O5_2 O 0.3477(4) -1.8901(6) 0.1742(2)
O5C O 0.3477(4) -1.1099(6) -0.3258(2)
O5C_2 O 0.3477(4) -2.1099(6) -0.3258(2)
O6_2 O -0.2146(4) -1.9250(5) -0.2200(3)
O6A O 0.2146(4) -0.9250(5) -0.2800(3)
O6A_2 O 0.2146(4) -1.9250(5) -0.2800(3)
O7_2 O -0.1735(4) -2.1212(6) -0.2265(3)
O7A O 0.1735(4) -1.1212(6) -0.2735(3)
O7A_2 O 0.1735(4) -2.1212(6) -0.2735(3)
O8A O 0.5697(4) -0.8910(6) -0.2585(3)
O8_2 O 0.4303(4) -1.8910(6) -0.2415(3)
P1_2 P 0.27038(12) -1.86550(16) -0.12163(7)
loop_
_geom_bond_atom_site_label_1
_geom_bond_atom_site_label_2
_geom_bond_site_symmetry_1
_geom_bond_site_symmetry_2
Sm1 O1 1_555 1_555
C1 C2 1_555 1_555
C2 H1 1_555 1_555
C3 C2 1_555 1_555
H2 C3 1_555 1_555
C4 C3 1_555 1_555
C5 C4 1_555 1_555
H3 C5 1_555 1_555
C6 C1 1_555 1_555
H4 C6 1_555 1_555
C7 C4 1_555 1_555
C8 C9 1_555 1_555
C9 H5 1_555 1_555
C10 C9 1_555 1_555
H6 C10 1_555 1_555
C11 C10 1_555 1_555
C12 C11 1_555 1_555
H7 C12 1_555 1_555
C13 C8 1_555 1_555
H8 C13 1_555 1_555
C14 C11 1_555 1_555
C15 C16 1_555 1_555
C16 H9 1_555 1_555
C17 C16 1_555 1_555
H10 C17 1_555 1_555
C18 C17 1_555 1_555
C19 C18 1_555 1_555
H11 C19 1_555 1_555
C20 C15 1_555 1_555
H12 C20 1_555 1_555
C21 C18 1_555 1_555
C22 H13 1_555 1_555
O1 P1 1_555 1_555
O2 C7 1_555 1_555
O3 C7 1_555 1_555
O4 C14 1_555 1_555
O5 C14 1_555 1_555
O6 C21 1_555 1_555
O7 C21 1_555 1_555
O8 Sm1 1_555 1_555
P1 C1 1_555 1_555
Sm1_2 O1_2 1_555 1_555
Sm1_3 O2 1_555 1_555
Sm1B O4 1_555 1_555
Sm1C O5 1_555 1_555
Sm1A O6 1_555 1_555
Sm1A_2 O8A 1_555 1_555
Sm1B_2 O4_2 1_555 1_555
Sm1C_2 O5_2 1_555 1_555
Sm1A_3 O6_2 1_555 1_555
C1_2 C2_2 1_555 1_555
C2_2 H1_2 1_555 1_555
C3_2 C2_2 1_555 1_555
H2_2 C3_2 1_555 1_555
C4_2 C3_2 1_555 1_555
C5_2 C4_2 1_555 1_555
H3_2 C5_2 1_555 1_555
C6_2 C1_2 1_555 1_555
H4_2 C6_2 1_555 1_555
C7_2 C4_2 1_555 1_555
C8_2 C9_2 1_555 1_555
C9_2 H5_2 1_555 1_555
C10_2 C9_2 1_555 1_555
H6_2 C10_2 1_555 1_555
C11_2 C10_2 1_555 1_555
C12_2 C11_2 1_555 1_555
H7_2 C12_2 1_555 1_555
C13_2 C8_2 1_555 1_555
H8_2 C13_2 1_555 1_555
C14_2 C11_2 1_555 1_555
C15_2 C16_2 1_555 1_555
C16_2 H9_2 1_555 1_555
C17_2 C16_2 1_555 1_555
H10_2 C17_2 1_555 1_555
C18_2 C17_2 1_555 1_555
C19_2 C18_2 1_555 1_555
H11_2 C19_2 1_555 1_555
C20_2 C15_2 1_555 1_555
H12_2 C20_2 1_555 1_555
C21_2 C18_2 1_555 1_555
O1_2 P1_2 1_555 1_555
O2_2 Sm1 1_555 1_555
O2_3 Sm1_2 1_555 1_555
O3_2 Sm1 1_555 1_555
O3_3 Sm1_2 1_555 1_555
O4_2 C14_2 1_555 1_555
O4B Sm1 1_555 1_555
O4B_2 Sm1_2 1_555 1_555
O5_2 C14_2 1_555 1_555
O5C Sm1 1_555 1_555
O5C_2 Sm1_2 1_555 1_555
O6_2 C21_2 1_555 1_555
O6A Sm1 1_555 1_555
O6A_2 Sm1_2 1_555 1_555
O7_2 Sm1A_3 1_555 1_555
O7A Sm1 1_555 1_555
O7A_2 Sm1_2 1_555 1_555
O8A C22 1_555 1_555
O8_2 Sm1_2 1_555 1_555
P1_2 C1_2 1_555 1_555
C5 C6 1_555 1_555
C8 P1 1_555 1_555
C12 C13 1_555 1_555
C15 P1 1_555 1_555
C19 C20 1_555 1_555
C22 O8 1_555 1_555
O3 Sm1_3 1_555 1_555
O7 Sm1A 1_555 1_555
C5_2 C6_2 1_555 1_555
C7_2 O2_2 1_555 1_555
C7_2 O3_2 1_555 1_555
C8_2 P1_2 1_555 1_555
C12_2 C13_2 1_555 1_555
C15_2 P1_2 1_555 1_555
C19_2 C20_2 1_555 1_555
C21_2 O7_2 1_555 1_555

#END
