
#######################################################################
#
#                 Cambridge Crystallographic Data Centre
#                                CCDC 
#
#######################################################################
#
# If this CIF has been generated from an entry in the Cambridge 
# Structural Database, then it will include bibliographic, chemical, 
# crystal, experimental, refinement or atomic coordinate data resulting 
# from the CCDC's data processing and validation procedures.
#
#######################################################################

data_DARDOR
_symmetry_cell_setting           monoclinic
_symmetry_space_group_name_H-M   'P 2/c'
_symmetry_Int_Tables_number      13
_space_group_name_Hall           '-P 2yc'
loop_
_symmetry_equiv_pos_site_id
_symmetry_equiv_pos_as_xyz
1 x,y,z
2 -x,y,1/2-z
3 -x,-y,-z
4 x,-y,1/2+z
_cell_length_a                   14.528(3)
_cell_length_b                   10.497(2)
_cell_length_c                   23.674(8)
_cell_angle_alpha                90
_cell_angle_beta                 107.97(3)
_cell_angle_gamma                90
_cell_volume                     3434.18
loop_
_atom_site_label
_atom_site_type_symbol
_atom_site_fract_x
_atom_site_fract_y
_atom_site_fract_z
Gd1 Gd 0.349541(12) -0.580023(17) -0.225912(7)
C1 C -0.1460(3) -0.4159(4) -0.35350(16)
C2 C -0.1195(3) -0.5448(4) -0.34838(17)
H1 H -0.1668 -0.6076 -0.3590
C3 C -0.0235(3) -0.5779(4) -0.32760(18)
H2 H -0.0063 -0.6636 -0.3242
C4 C 0.0485(3) -0.4852(4) -0.31150(16)
C5 C 0.0225(3) -0.3583(4) -0.31728(18)
H3 H 0.0704 -0.2960 -0.3070
C6 C -0.0744(3) -0.3218(4) -0.33829(17)
H4 H -0.0913 -0.2360 -0.3421
C7 C 0.1525(3) -0.5194(4) -0.28535(16)
C8 C -0.2863(3) -0.2129(3) -0.36206(16)
C9 C -0.2861(4) -0.1150(4) -0.4009(2)
H5 H -0.2768 -0.1326 -0.4372
C10 C -0.2999(4) 0.0106(4) -0.3855(2)
H6 H -0.2997 0.0768 -0.4116
C11 C -0.3141(3) 0.0367(4) -0.33082(18)
C12 C -0.3130(3) -0.0631(3) -0.29194(19)
H7 H -0.3215 -0.0461 -0.2553
C13 C -0.2996(3) -0.1871(4) -0.30727(18)
H8 H -0.2993 -0.2533 -0.2811
C14 C -0.3285(3) 0.1700(3) -0.31359(17)
C15 C -0.3090(3) -0.3855(3) -0.45890(16)
C16 C -0.4071(3) -0.3751(4) -0.49050(18)
H9 H -0.4522 -0.3685 -0.4700
C17 C -0.4380(3) -0.3744(4) -0.55153(17)
H10 H -0.5036 -0.3669 -0.5720
C18 C -0.3715(3) -0.3848(3) -0.58265(15)
C19 C -0.2745(3) -0.3979(5) -0.55187(18)
H11 H -0.2299 -0.4069 -0.5725
C20 C -0.2432(3) -0.3980(5) -0.49044(18)
H12 H -0.1776 -0.4064 -0.4701
C21 C -0.4039(3) -0.3800(3) -0.64942(16)
C22 C 0.5000 -0.3516(7) -0.2500
H13 H 0.5000 -0.2630 -0.2500
O1 O 0.17597(19) -0.6341(3) -0.26848(12)
O2 O 0.21666(18) -0.4353(2) -0.27833(12)
O3 O -0.3210(2) 0.2627(3) -0.34588(12)
O4 O -0.34888(19) 0.1899(2) -0.26564(12)
O5 O -0.49278(19) -0.3720(3) -0.67589(12)
O6 O -0.3397(2) -0.3810(3) -0.67465(12)
O7 O -0.33158(18) -0.4633(2) -0.35380(11)
O8 O 0.4273(2) -0.3971(3) -0.24313(14)
P1 P -0.27241(7) -0.37693(9) -0.37964(4)
Gd1A Gd -0.349541(12) -1.580023(17) -0.274088(7)
Gd1A_2 Gd -0.349541(12) 0.419977(17) -0.274088(7)
Gd1C Gd -0.650459(12) -0.419977(17) -0.725912(7)
Gd1B Gd -0.349541(12) -0.419977(17) -0.774088(7)
Gd1A_3 Gd -0.349541(12) -0.580023(17) -0.274088(7)
Gd1A_4 Gd 0.650459(12) -0.580023(17) -0.274088(7)
Gd1B_2 Gd 0.650459(12) -1.419977(17) 0.225912(7)
Gd1C_2 Gd 0.349541(12) -1.419977(17) 0.274088(7)
Gd1_2 Gd 0.349541(12) -1.580023(17) -0.225912(7)
C1A C 0.1460(3) -1.4159(4) -0.14650(16)
C2A C 0.1195(3) -1.5448(4) -0.15162(17)
H1A H 0.1668 -1.6076 -0.1410
C3A C 0.0235(3) -1.5779(4) -0.17240(18)
H2A H 0.0063 -1.6636 -0.1758
C4A C -0.0485(3) -1.4852(4) -0.18850(16)
C5A C -0.0225(3) -1.3583(4) -0.18272(18)
H3A H -0.0704 -1.2960 -0.1930
C6A C 0.0744(3) -1.3218(4) -0.16171(17)
H4A H 0.0913 -1.2360 -0.1579
C7A C -0.1525(3) -1.5194(4) -0.21465(16)
C8A C 0.2863(3) -1.2129(3) -0.13794(16)
C9A C 0.2861(4) -1.1150(4) -0.0991(2)
H5A H 0.2768 -1.1326 -0.0628
C10A C 0.2999(4) -0.9894(4) -0.1145(2)
H6A H 0.2997 -0.9232 -0.0884
C11A C 0.3141(3) -0.9633(4) -0.16918(18)
C12A C 0.3130(3) -1.0631(3) -0.20806(19)
H7A H 0.3215 -1.0461 -0.2447
C13A C 0.2996(3) -1.1871(4) -0.19273(18)
H8A H 0.2993 -1.2533 -0.2189
C14A C 0.3285(3) -0.8300(3) -0.18641(17)
C15A C 0.3090(3) -1.3855(3) -0.04110(16)
C16A C 0.4071(3) -1.3751(4) -0.00950(18)
H9A H 0.4522 -1.3685 -0.0300
C17A C 0.4380(3) -1.3744(4) 0.05153(17)
H10A H 0.5036 -1.3669 0.0720
C18A C 0.3715(3) -1.3848(3) 0.08265(15)
C19A C 0.2745(3) -1.3979(5) 0.05187(18)
H11A H 0.2299 -1.4069 0.0725
C20A C 0.2432(3) -1.3980(5) -0.00956(18)
H12A H 0.1776 -1.4064 -0.0299
C21A C 0.4039(3) -1.3800(3) 0.14942(16)
O1A O -0.17597(19) -1.6341(3) -0.23152(12)
O2A O -0.21666(18) -1.4353(2) -0.22167(12)
O3A O 0.3210(2) -0.7373(3) -0.15412(12)
O3_2 O -0.3210(2) -1.7373(3) -0.34588(12)
O4A O 0.34888(19) -0.8101(2) -0.23436(12)
O4_2 O -0.34888(19) -1.8101(2) -0.26564(12)
O5A O 0.49278(19) -1.3720(3) 0.17589(12)
O5C O 0.50722(19) -0.6280(3) -0.17589(12)
O5B O -0.50722(19) -1.6280(3) -0.32411(12)
O6A O 0.3397(2) -1.3810(3) 0.17465(12)
O6B O 0.3397(2) -0.6190(3) -0.32535(12)
O6C O -0.3397(2) -1.6190(3) -0.17465(12)
O7A O 0.33158(18) -1.4633(2) -0.14620(11)
O7A_2 O 0.33158(18) -0.4633(2) -0.14620(11)
O7_2 O -0.33158(18) -1.4633(2) -0.35380(11)
O8A O 0.5727(2) -0.3971(3) -0.25687(14)
O8A_2 O -0.4273(2) -1.3971(3) -0.25687(14)
P1A P 0.27241(7) -1.37693(9) -0.12036(4)
loop_
_geom_bond_atom_site_label_1
_geom_bond_atom_site_label_2
_geom_bond_site_symmetry_1
_geom_bond_site_symmetry_2
Gd1 O1 1_555 1_555
C1 C2 1_555 1_555
C2 H1 1_555 1_555
C3 C2 1_555 1_555
H2 C3 1_555 1_555
C4 C3 1_555 1_555
C5 C4 1_555 1_555
H3 C5 1_555 1_555
C6 C1 1_555 1_555
H4 C6 1_555 1_555
C7 C4 1_555 1_555
C8 C9 1_555 1_555
C9 H5 1_555 1_555
C10 C9 1_555 1_555
H6 C10 1_555 1_555
C11 C10 1_555 1_555
C12 C11 1_555 1_555
H7 C12 1_555 1_555
C13 C8 1_555 1_555
H8 C13 1_555 1_555
C14 C11 1_555 1_555
C15 C16 1_555 1_555
C16 H9 1_555 1_555
C17 C16 1_555 1_555
H10 C17 1_555 1_555
C18 C17 1_555 1_555
C19 C18 1_555 1_555
H11 C19 1_555 1_555
C20 C15 1_555 1_555
H12 C20 1_555 1_555
C21 C18 1_555 1_555
C22 H13 1_555 1_555
O1 C7 1_555 1_555
O2 Gd1 1_555 1_555
O3 C14 1_555 1_555
O4 C14 1_555 1_555
O5 C21 1_555 1_555
O6 C21 1_555 1_555
O7 P1 1_555 1_555
O8 Gd1 1_555 1_555
P1 C1 1_555 1_555
Gd1A O1A 1_555 1_555
Gd1A_2 O3 1_555 1_555
Gd1C O5 1_555 1_555
Gd1B O6 1_555 1_555
Gd1A_3 O7 1_555 1_555
Gd1A_4 O8A 1_555 1_555
Gd1B_2 O5A 1_555 1_555
Gd1C_2 O6A 1_555 1_555
Gd1_2 O7A 1_555 1_555
C1A C2A 1_555 1_555
C2A H1A 1_555 1_555
C3A C2A 1_555 1_555
H2A C3A 1_555 1_555
C4A C3A 1_555 1_555
C5A C4A 1_555 1_555
H3A C5A 1_555 1_555
C6A C1A 1_555 1_555
H4A C6A 1_555 1_555
C7A C4A 1_555 1_555
C8A C9A 1_555 1_555
C9A H5A 1_555 1_555
C10A C9A 1_555 1_555
H6A C10A 1_555 1_555
C11A C10A 1_555 1_555
C12A C11A 1_555 1_555
H7A C12A 1_555 1_555
C13A C8A 1_555 1_555
H8A C13A 1_555 1_555
C14A C11A 1_555 1_555
C15A C16A 1_555 1_555
C16A H9A 1_555 1_555
C17A C16A 1_555 1_555
H10A C17A 1_555 1_555
C18A C17A 1_555 1_555
C19A C18A 1_555 1_555
H11A C19A 1_555 1_555
C20A C15A 1_555 1_555
H12A C20A 1_555 1_555
C21A C18A 1_555 1_555
O1A C7A 1_555 1_555
O2A Gd1A 1_555 1_555
O3A Gd1 1_555 1_555
O3_2 Gd1A 1_555 1_555
O4A Gd1 1_555 1_555
O4_2 Gd1A 1_555 1_555
O5A C21A 1_555 1_555
O5C Gd1 1_555 1_555
O5B Gd1A 1_555 1_555
O6A C21A 1_555 1_555
O6B Gd1 1_555 1_555
O6C Gd1A 1_555 1_555
O7A P1A 1_555 1_555
O7A_2 Gd1 1_555 1_555
O7_2 Gd1A 1_555 1_555
O8A C22 1_555 1_555
O8A_2 Gd1A 1_555 1_555
P1A C1A 1_555 1_555
C5 C6 1_555 1_555
C7 O2 1_555 1_555
C8 P1 1_555 1_555
C12 C13 1_555 1_555
C15 P1 1_555 1_555
C19 C20 1_555 1_555
C22 O8 1_555 1_555
O4 Gd1A_2 1_555 1_555
C5A C6A 1_555 1_555
C7A O2A 1_555 1_555
C8A P1A 1_555 1_555
C12A C13A 1_555 1_555
C14A O3A 1_555 1_555
C14A O4A 1_555 1_555
C15A P1A 1_555 1_555
C19A C20A 1_555 1_555

#END
