
#######################################################################
#
#                 Cambridge Crystallographic Data Centre
#                                CCDC 
#
#######################################################################
#
# If this CIF has been generated from an entry in the Cambridge 
# Structural Database, then it will include bibliographic, chemical, 
# crystal, experimental, refinement or atomic coordinate data resulting 
# from the CCDC's data processing and validation procedures.
#
#######################################################################

data_DARDIL
_symmetry_cell_setting           monoclinic
_symmetry_space_group_name_H-M   'P 2/c'
_symmetry_Int_Tables_number      13
_space_group_name_Hall           '-P 2yc'
loop_
_symmetry_equiv_pos_site_id
_symmetry_equiv_pos_as_xyz
1 x,y,z
2 -x,y,1/2-z
3 -x,-y,-z
4 x,-y,1/2+z
_cell_length_a                   14.617(3)
_cell_length_b                   10.572(2)
_cell_length_c                   23.548(5)
_cell_angle_alpha                90
_cell_angle_beta                 107.79(3)
_cell_angle_gamma                90
_cell_volume                     3464.89
loop_
_atom_site_label
_atom_site_type_symbol
_atom_site_fract_x
_atom_site_fract_y
_atom_site_fract_z
Eu1 Eu 0.346842(12) 0.430896(18) 0.273731(7)
C1 C -0.1440(3) 0.5984(3) 0.14623(16)
C2 C -0.1184(3) 0.4727(4) 0.15211(18)
H1 H -0.1659 0.4111 0.1412
C3 C -0.0251(3) 0.4371(3) 0.17352(18)
H2 H -0.0094 0.3518 0.1795
C4 C 0.0485(3) 0.5295(4) 0.18687(16)
C5 C 0.0233(3) 0.6566(4) 0.1802(2)
H3 H 0.0706 0.7187 0.1894
C6 C -0.0732(3) 0.6906(4) 0.1598(2)
H4 H -0.0903 0.7756 0.1552
C7 C 0.1526(3) 0.4930(4) 0.21284(16)
C8 C -0.2830(3) 0.7990(3) 0.13922(15)
C9 C -0.2936(4) 0.8263(4) 0.19421(19)
H5 H -0.2915 0.7615 0.2212
C10 C -0.3071(4) 0.9497(4) 0.2092(2)
H6 H -0.3156 0.9666 0.2461
C11 C -0.3083(3) 1.0477(4) 0.17087(17)
C12 C -0.2942(4) 1.0206(4) 0.1168(2)
H7 H -0.2925 1.0861 0.0907
C13 C -0.2826(4) 0.8964(4) 0.1008(2)
H8 H -0.2745 0.8793 0.0639
C14 C -0.3221(3) 1.1817(4) 0.18738(18)
C15 C -0.3082(2) 0.6275(3) 0.04097(14)
C16 C -0.2450(3) 0.6190(5) 0.00884(18)
H9 H -0.1793 0.6166 0.0284
C17 C -0.2785(3) 0.6138(5) -0.05293(17)
H10 H -0.2350 0.6078 -0.0745
C18 C -0.3744(3) 0.6174(4) -0.08231(15)
C19 C -0.4386(3) 0.6253(5) -0.05036(18)
H11 H -0.5042 0.6277 -0.0700
C20 C -0.4049(3) 0.6296(5) 0.01145(17)
H12 H -0.4484 0.6340 0.0331
C21 C -0.4093(3) 0.6138(4) -0.14887(15)
C22 C 0.5000 0.6561(8) 0.2500
H13 H 0.5000 0.7441 0.2500
O1 O 0.1745(2) 0.3811(3) 0.22827(13)
O2 O 0.21655(19) 0.5773(3) 0.21948(13)
O3 O -0.3428(2) 1.1994(3) 0.23548(12)
O4 O -0.3147(2) 1.2725(3) 0.15488(13)
O5 O -0.4975(2) 0.6220(4) -0.17438(12)
O6 O -0.3488(2) 0.6045(3) -0.17612(12)
O7 O -0.32705(18) 0.5511(2) 0.14697(11)
O8 O 0.4293(2) 0.6139(3) 0.26034(17)
P1 P -0.26944(7) 0.63767(9) 0.12085(4)
Eu1A Eu -0.346842(12) -0.569104(18) 0.226269(7)
Eu1A_2 Eu -0.346842(12) 1.430896(18) 0.226269(7)
Eu1C Eu -0.653158(12) 0.569104(18) -0.226269(7)
Eu1B Eu -0.346842(12) 0.569104(18) -0.273731(7)
Eu1A_3 Eu -0.346842(12) 0.430896(18) 0.226269(7)
Eu1A_4 Eu 0.653158(12) 0.430896(18) 0.226269(7)
Eu1B_2 Eu 0.653158(12) -0.430896(18) 0.726269(7)
Eu1C_2 Eu 0.346842(12) -0.430896(18) 0.773731(7)
Eu1_2 Eu 0.346842(12) -0.569104(18) 0.273731(7)
C1A C 0.1440(3) -0.4016(3) 0.35377(16)
C2A C 0.1184(3) -0.5273(4) 0.34789(18)
H1A H 0.1659 -0.5889 0.3588
C3A C 0.0251(3) -0.5629(3) 0.32648(18)
H2A H 0.0094 -0.6482 0.3205
C4A C -0.0485(3) -0.4705(4) 0.31313(16)
C5A C -0.0233(3) -0.3434(4) 0.3198(2)
H3A H -0.0706 -0.2813 0.3106
C6A C 0.0732(3) -0.3094(4) 0.3402(2)
H4A H 0.0903 -0.2244 0.3448
C7A C -0.1526(3) -0.5070(4) 0.28716(16)
C8A C 0.2830(3) -0.2010(3) 0.36078(15)
C9A C 0.2936(4) -0.1737(4) 0.30579(19)
H5A H 0.2915 -0.2385 0.2788
C10A C 0.3071(4) -0.0503(4) 0.2908(2)
H6A H 0.3156 -0.0334 0.2539
C11A C 0.3083(3) 0.0477(4) 0.32913(17)
C12A C 0.2942(4) 0.0206(4) 0.3832(2)
H7A H 0.2925 0.0861 0.4093
C13A C 0.2826(4) -0.1036(4) 0.3992(2)
H8A H 0.2745 -0.1207 0.4361
C14A C 0.3221(3) 0.1817(4) 0.31262(18)
C15A C 0.3082(2) -0.3725(3) 0.45903(14)
C16A C 0.2450(3) -0.3810(5) 0.49116(18)
H9A H 0.1793 -0.3834 0.4716
C17A C 0.2785(3) -0.3862(5) 0.55293(17)
H10A H 0.2350 -0.3922 0.5745
C18A C 0.3744(3) -0.3826(4) 0.58231(15)
C19A C 0.4386(3) -0.3747(5) 0.55036(18)
H11A H 0.5042 -0.3723 0.5700
C20A C 0.4049(3) -0.3704(5) 0.48855(17)
H12A H 0.4484 -0.3660 0.4669
C21A C 0.4093(3) -0.3862(4) 0.64887(15)
O1A O -0.1745(2) -0.6189(3) 0.27173(13)
O2A O -0.21655(19) -0.4227(3) 0.28052(13)
O3A O 0.3428(2) 0.1994(3) 0.26452(12)
O3_2 O -0.3428(2) -0.8006(3) 0.23548(12)
O4A O 0.3147(2) 0.2725(3) 0.34512(13)
O4_2 O -0.3147(2) -0.7275(3) 0.15488(13)
O5A O 0.4975(2) -0.3780(4) 0.67438(12)
O5C O 0.5025(2) 0.3780(4) 0.32562(12)
O5B O -0.5025(2) -0.6220(4) 0.17438(12)
O6A O 0.3488(2) -0.3955(3) 0.67612(12)
O6B O 0.3488(2) 0.3955(3) 0.17612(12)
O6C O -0.3488(2) -0.6045(3) 0.32388(12)
O7A O 0.32705(18) -0.4489(2) 0.35303(11)
O7A_2 O 0.32705(18) 0.5511(2) 0.35303(11)
O7_2 O -0.32705(18) -0.4489(2) 0.14697(11)
O8A O 0.5707(2) 0.6139(3) 0.23966(17)
O8A_2 O -0.4293(2) -0.3861(3) 0.23966(17)
P1A P 0.26944(7) -0.36233(9) 0.37915(4)
loop_
_geom_bond_atom_site_label_1
_geom_bond_atom_site_label_2
_geom_bond_site_symmetry_1
_geom_bond_site_symmetry_2
Eu1 O1 1_555 1_555
C1 C2 1_555 1_555
C2 H1 1_555 1_555
C3 C2 1_555 1_555
H2 C3 1_555 1_555
C4 C3 1_555 1_555
C5 C4 1_555 1_555
H3 C5 1_555 1_555
C6 C1 1_555 1_555
H4 C6 1_555 1_555
C7 C4 1_555 1_555
C8 C9 1_555 1_555
C9 H5 1_555 1_555
C10 C9 1_555 1_555
H6 C10 1_555 1_555
C11 C10 1_555 1_555
C12 C11 1_555 1_555
H7 C12 1_555 1_555
C13 C8 1_555 1_555
H8 C13 1_555 1_555
C14 C11 1_555 1_555
C15 C16 1_555 1_555
C16 H9 1_555 1_555
C17 C16 1_555 1_555
H10 C17 1_555 1_555
C18 C17 1_555 1_555
C19 C18 1_555 1_555
H11 C19 1_555 1_555
C20 C15 1_555 1_555
H12 C20 1_555 1_555
C21 C18 1_555 1_555
C22 H13 1_555 1_555
O1 C7 1_555 1_555
O2 Eu1 1_555 1_555
O3 C14 1_555 1_555
O4 C14 1_555 1_555
O5 C21 1_555 1_555
O6 C21 1_555 1_555
O7 P1 1_555 1_555
O8 Eu1 1_555 1_555
P1 C1 1_555 1_555
Eu1A O1A 1_555 1_555
Eu1A_2 O3 1_555 1_555
Eu1C O5 1_555 1_555
Eu1B O6 1_555 1_555
Eu1A_3 O7 1_555 1_555
Eu1A_4 O8A 1_555 1_555
Eu1B_2 O5A 1_555 1_555
Eu1C_2 O6A 1_555 1_555
Eu1_2 O7A 1_555 1_555
C1A C2A 1_555 1_555
C2A H1A 1_555 1_555
C3A C2A 1_555 1_555
H2A C3A 1_555 1_555
C4A C3A 1_555 1_555
C5A C4A 1_555 1_555
H3A C5A 1_555 1_555
C6A C1A 1_555 1_555
H4A C6A 1_555 1_555
C7A C4A 1_555 1_555
C8A C9A 1_555 1_555
C9A H5A 1_555 1_555
C10A C9A 1_555 1_555
H6A C10A 1_555 1_555
C11A C10A 1_555 1_555
C12A C11A 1_555 1_555
H7A C12A 1_555 1_555
C13A C8A 1_555 1_555
H8A C13A 1_555 1_555
C14A C11A 1_555 1_555
C15A C16A 1_555 1_555
C16A H9A 1_555 1_555
C17A C16A 1_555 1_555
H10A C17A 1_555 1_555
C18A C17A 1_555 1_555
C19A C18A 1_555 1_555
H11A C19A 1_555 1_555
C20A C15A 1_555 1_555
H12A C20A 1_555 1_555
C21A C18A 1_555 1_555
O1A C7A 1_555 1_555
O2A Eu1A 1_555 1_555
O3A Eu1 1_555 1_555
O3_2 Eu1A 1_555 1_555
O4A Eu1 1_555 1_555
O4_2 Eu1A 1_555 1_555
O5A C21A 1_555 1_555
O5C Eu1 1_555 1_555
O5B Eu1A 1_555 1_555
O6A C21A 1_555 1_555
O6B Eu1 1_555 1_555
O6C Eu1A 1_555 1_555
O7A P1A 1_555 1_555
O7A_2 Eu1 1_555 1_555
O7_2 Eu1A 1_555 1_555
O8A C22 1_555 1_555
O8A_2 Eu1A 1_555 1_555
P1A C1A 1_555 1_555
C5 C6 1_555 1_555
C7 O2 1_555 1_555
C8 P1 1_555 1_555
C12 C13 1_555 1_555
C15 P1 1_555 1_555
C19 C20 1_555 1_555
C22 O8 1_555 1_555
O4 Eu1A_2 1_555 1_555
C5A C6A 1_555 1_555
C7A O2A 1_555 1_555
C8A P1A 1_555 1_555
C12A C13A 1_555 1_555
C14A O3A 1_555 1_555
C14A O4A 1_555 1_555
C15A P1A 1_555 1_555
C19A C20A 1_555 1_555

#END
