
#######################################################################
#
#                 Cambridge Crystallographic Data Centre
#                                CCDC 
#
#######################################################################
#
# If this CIF has been generated from an entry in the Cambridge 
# Structural Database, then it will include bibliographic, chemical, 
# crystal, experimental, refinement or atomic coordinate data resulting 
# from the CCDC's data processing and validation procedures.
#
#######################################################################

data_DARDAD
_symmetry_cell_setting           monoclinic
_symmetry_space_group_name_H-M   'P 2/c'
_symmetry_Int_Tables_number      13
_space_group_name_Hall           '-P 2yc'
loop_
_symmetry_equiv_pos_site_id
_symmetry_equiv_pos_as_xyz
1 x,y,z
2 -x,y,1/2-z
3 -x,-y,-z
4 x,-y,1/2+z
_cell_length_a                   14.4262(11)
_cell_length_b                   10.4932(5)
_cell_length_c                   23.2269(18)
_cell_angle_alpha                90
_cell_angle_beta                 107.052(4)
_cell_angle_gamma                90
_cell_volume                     3361.45
loop_
_atom_site_label
_atom_site_type_symbol
_atom_site_fract_x
_atom_site_fract_y
_atom_site_fract_z
Lu1 Lu 0.153365(11) 0.066027(16) 0.227224(7)
C1 C 0.4820(4) 0.0602(4) 0.1723(3)
H1 H 0.4995 0.1458 0.1761
P1 P 0.23118(7) -0.13845(10) 0.12253(5)
O1 O 0.1737(2) -0.0514(3) 0.15047(14)
O2 O 0.1553(2) -0.7077(3) 0.23701(15)
O3 O 0.7219(2) -0.0794(3) 0.21973(17)
O4 O 0.6801(2) 0.1160(4) 0.22931(16)
O5 O -0.0048(2) -0.1207(4) -0.17480(15)
O6 O 0.1891(3) -0.7800(3) 0.15676(16)
O7 O 0.1455(2) -0.0987(3) -0.17877(14)
C2 C 0.2176(3) -0.3020(4) 0.14105(19)
O8 O 0.0689(2) -0.1116(3) 0.23742(18)
C3 C 0.6577(3) 0.0041(5) 0.2122(2)
C4 C 0.3580(3) -0.1009(4) 0.14596(19)
C5 C 0.1905(3) -0.1283(4) 0.04190(19)
C6 C 0.1936(4) -0.5536(4) 0.1722(2)
C7 C 0.1786(3) -0.6896(4) 0.1890(2)
C8 C 0.5535(3) -0.0318(5) 0.1867(2)
C9 C 0.0847(3) -0.1111(4) -0.15074(18)
C10 C 0.5266(3) -0.1583(5) 0.1788(2)
H2 H 0.5741 -0.2212 0.1869
C11 C 0.2018(4) -0.3319(5) 0.1957(2)
H3 H 0.1988 -0.2668 0.2223
C12 C 0.1909(5) -0.4541(5) 0.2108(3)
H4 H 0.1814 -0.4718 0.2479
C13 C 0.4300(3) -0.1927(5) 0.1592(2)
H5 H 0.4131 -0.2785 0.1547
C14 C 0.3861(3) 0.0283(4) 0.1526(2)
H6 H 0.3392 0.0920 0.1436
C15 C 0.2185(4) -0.1123(7) -0.0541(2)
H7 H 0.2619 -0.1062 -0.0767
C16 C 0.2111(5) -0.5263(5) 0.1184(3)
H8 H 0.2148 -0.5923 0.0925
C17 C 0.2542(3) -0.1188(6) 0.0079(2)
H9 H 0.3207 -0.1167 0.0265
C18 C 0.2233(5) -0.4009(5) 0.1024(3)
H10 H 0.2353 -0.3834 0.0659
C19 C 0.0578(3) -0.1237(6) -0.0493(2)
H11 H -0.0086 -0.1263 -0.0683
C20 C 0.0918(3) -0.1289(6) 0.0128(2)
H12 H 0.0481 -0.1328 0.0352
C21 C 0.1212(3) -0.1148(4) -0.08314(18)
C22 C 0.0000 -0.1555(8) 0.2500
H13 H 0.0000 -0.2442 0.2500
Lu1_2 Lu 0.153365(11) 1.066027(16) 0.227224(7)
Lu1_3 Lu 0.153365(11) -0.933973(16) 0.227224(7)
Lu1A Lu 0.846635(11) 0.066027(16) 0.272776(7)
Lu1B Lu -0.153365(11) -0.066027(16) -0.227224(7)
Lu1C Lu 0.153365(11) -0.066027(16) -0.272776(7)
Lu1A_2 Lu -0.153365(11) 0.066027(16) 0.272776(7)
Lu1A_3 Lu 0.846635(11) 1.066027(16) 0.272776(7)
Lu1B_2 Lu -0.153365(11) 0.933973(16) -0.227224(7)
Lu1C_2 Lu 0.153365(11) 0.933973(16) -0.272776(7)
C1_2 C 0.4820(4) 1.0602(4) 0.1723(3)
H1_2 H 0.4995 1.1458 0.1761
P1_2 P 0.23118(7) 0.86155(10) 0.12253(5)
O1_2 O 0.1737(2) 0.9486(3) 0.15047(14)
O2_2 O 0.1553(2) 0.2923(3) 0.23701(15)
O2_3 O 0.1553(2) 1.2923(3) 0.23701(15)
O3_2 O 0.7219(2) 0.9206(3) 0.21973(17)
O3A O 0.2781(2) -0.0794(3) 0.28027(17)
O3A_2 O 0.2781(2) 0.9206(3) 0.28027(17)
O4_2 O 0.6801(2) 1.1160(4) 0.22931(16)
O4A O 0.3199(2) 0.1160(4) 0.27069(16)
O4A_2 O 0.3199(2) 1.1160(4) 0.27069(16)
O5_2 O -0.0048(2) 0.8793(4) -0.17480(15)
O5B O 0.0048(2) 0.1207(4) 0.17480(15)
O5B_2 O 0.0048(2) 1.1207(4) 0.17480(15)
O6_2 O 0.1891(3) 0.2200(3) 0.15676(16)
O6_3 O 0.1891(3) 1.2200(3) 0.15676(16)
O7_2 O 0.1455(2) 0.9013(3) -0.17877(14)
O7C O 0.1455(2) 0.0987(3) 0.32123(14)
O7C_2 O 0.1455(2) 1.0987(3) 0.32123(14)
C2_2 C 0.2176(3) 0.6980(4) 0.14105(19)
O8A O -0.0689(2) -0.1116(3) 0.26258(18)
O8_2 O 0.0689(2) 0.8884(3) 0.23742(18)
C3_2 C 0.6577(3) 1.0041(5) 0.2122(2)
C4_2 C 0.3580(3) 0.8991(4) 0.14596(19)
C5_2 C 0.1905(3) 0.8717(4) 0.04190(19)
C6_2 C 0.1936(4) 0.4464(4) 0.1722(2)
C7_2 C 0.1786(3) 0.3104(4) 0.1890(2)
C8_2 C 0.5535(3) 0.9682(5) 0.1867(2)
C9_2 C 0.0847(3) 0.8889(4) -0.15074(18)
C10_2 C 0.5266(3) 0.8417(5) 0.1788(2)
H2_2 H 0.5741 0.7788 0.1869
C11_2 C 0.2018(4) 0.6681(5) 0.1957(2)
H3_2 H 0.1988 0.7332 0.2223
C12_2 C 0.1909(5) 0.5459(5) 0.2108(3)
H4_2 H 0.1814 0.5282 0.2479
C13_2 C 0.4300(3) 0.8073(5) 0.1592(2)
H5_2 H 0.4131 0.7215 0.1547
C14_2 C 0.3861(3) 1.0283(4) 0.1526(2)
H6_2 H 0.3392 1.0920 0.1436
C15_2 C 0.2185(4) 0.8877(7) -0.0541(2)
H7_2 H 0.2619 0.8938 -0.0767
C16_2 C 0.2111(5) 0.4737(5) 0.1184(3)
H8_2 H 0.2148 0.4077 0.0925
C17_2 C 0.2542(3) 0.8812(6) 0.0079(2)
H9_2 H 0.3207 0.8833 0.0265
C18_2 C 0.2233(5) 0.5991(5) 0.1024(3)
H10_2 H 0.2353 0.6166 0.0659
C19_2 C 0.0578(3) 0.8763(6) -0.0493(2)
H11_2 H -0.0086 0.8737 -0.0683
C20_2 C 0.0918(3) 0.8711(6) 0.0128(2)
H12_2 H 0.0481 0.8672 0.0352
C21_2 C 0.1212(3) 0.8852(4) -0.08314(18)
loop_
_geom_bond_atom_site_label_1
_geom_bond_atom_site_label_2
_geom_bond_site_symmetry_1
_geom_bond_site_symmetry_2
Lu1 O1 1_555 1_555
C1 H1 1_555 1_555
P1 O1 1_555 1_555
O2 C7 1_555 1_555
O3 C3 1_555 1_555
O4 C3 1_555 1_555
O5 C9 1_555 1_555
O6 C7 1_555 1_555
O7 C9 1_555 1_555
C2 P1 1_555 1_555
O8 Lu1 1_555 1_555
C3 C8 1_555 1_555
C4 P1 1_555 1_555
C5 P1 1_555 1_555
C6 C7 1_555 1_555
C8 C1 1_555 1_555
C9 C21 1_555 1_555
C10 C8 1_555 1_555
H2 C10 1_555 1_555
C11 C2 1_555 1_555
H3 C11 1_555 1_555
C12 C6 1_555 1_555
H4 C12 1_555 1_555
C13 C4 1_555 1_555
H5 C13 1_555 1_555
C14 C1 1_555 1_555
H6 C14 1_555 1_555
C15 H7 1_555 1_555
C16 C6 1_555 1_555
H8 C16 1_555 1_555
C17 C5 1_555 1_555
H9 C17 1_555 1_555
C18 C2 1_555 1_555
H10 C18 1_555 1_555
C19 H11 1_555 1_555
C20 C5 1_555 1_555
H12 C20 1_555 1_555
C21 C15 1_555 1_555
C22 O8 1_555 1_555
H13 C22 1_555 1_555
Lu1_2 O1_2 1_555 1_555
Lu1_3 O2 1_555 1_555
Lu1A O3 1_555 1_555
Lu1B O5 1_555 1_555
Lu1C O7 1_555 1_555
Lu1A_2 O8A 1_555 1_555
Lu1A_3 O3_2 1_555 1_555
Lu1B_2 O5_2 1_555 1_555
Lu1C_2 O7_2 1_555 1_555
C1_2 H1_2 1_555 1_555
P1_2 O1_2 1_555 1_555
O2_2 Lu1 1_555 1_555
O2_3 Lu1_2 1_555 1_555
O3_2 C3_2 1_555 1_555
O3A Lu1 1_555 1_555
O3A_2 Lu1_2 1_555 1_555
O4_2 Lu1A_3 1_555 1_555
O4A Lu1 1_555 1_555
O4A_2 Lu1_2 1_555 1_555
O5_2 C9_2 1_555 1_555
O5B Lu1 1_555 1_555
O5B_2 Lu1_2 1_555 1_555
O6_2 Lu1 1_555 1_555
O6_3 Lu1_2 1_555 1_555
O7_2 C9_2 1_555 1_555
O7C Lu1 1_555 1_555
O7C_2 Lu1_2 1_555 1_555
C2_2 P1_2 1_555 1_555
O8A C22 1_555 1_555
O8_2 Lu1_2 1_555 1_555
C3_2 O4_2 1_555 1_555
C4_2 P1_2 1_555 1_555
C5_2 P1_2 1_555 1_555
C6_2 C7_2 1_555 1_555
C7_2 O2_2 1_555 1_555
C8_2 C1_2 1_555 1_555
C9_2 C21_2 1_555 1_555
C10_2 C8_2 1_555 1_555
H2_2 C10_2 1_555 1_555
C11_2 C2_2 1_555 1_555
H3_2 C11_2 1_555 1_555
C12_2 C6_2 1_555 1_555
H4_2 C12_2 1_555 1_555
C13_2 C4_2 1_555 1_555
H5_2 C13_2 1_555 1_555
C14_2 C1_2 1_555 1_555
H6_2 C14_2 1_555 1_555
C15_2 H7_2 1_555 1_555
C16_2 C6_2 1_555 1_555
H8_2 C16_2 1_555 1_555
C17_2 C5_2 1_555 1_555
H9_2 C17_2 1_555 1_555
C18_2 C2_2 1_555 1_555
H10_2 C18_2 1_555 1_555
C19_2 H11_2 1_555 1_555
C20_2 C5_2 1_555 1_555
H12_2 C20_2 1_555 1_555
C21_2 C15_2 1_555 1_555
O4 Lu1A 1_555 1_555
O6 Lu1_3 1_555 1_555
C4 C14 1_555 1_555
C10 C13 1_555 1_555
C11 C12 1_555 1_555
C15 C17 1_555 1_555
C16 C18 1_555 1_555
C19 C20 1_555 1_555
C19 C21 1_555 1_555
O6_2 C7_2 1_555 1_555
C3_2 C8_2 1_555 1_555
C4_2 C14_2 1_555 1_555
C10_2 C13_2 1_555 1_555
C11_2 C12_2 1_555 1_555
C15_2 C17_2 1_555 1_555
C16_2 C18_2 1_555 1_555
C19_2 C20_2 1_555 1_555
C19_2 C21_2 1_555 1_555

#END
