
#######################################################################
#
#                 Cambridge Crystallographic Data Centre
#                                CCDC 
#
#######################################################################
#
# If this CIF has been generated from an entry in the Cambridge 
# Structural Database, then it will include bibliographic, chemical, 
# crystal, experimental, refinement or atomic coordinate data resulting 
# from the CCDC's data processing and validation procedures.
#
#######################################################################

data_DARFEJ
_symmetry_cell_setting           monoclinic
_symmetry_space_group_name_H-M   'P 2/c'
_symmetry_Int_Tables_number      13
_space_group_name_Hall           '-P 2yc'
loop_
_symmetry_equiv_pos_site_id
_symmetry_equiv_pos_as_xyz
1 x,y,z
2 -x,y,1/2-z
3 -x,-y,-z
4 x,-y,1/2+z
_cell_length_a                   14.4523(11)
_cell_length_b                   10.4767(5)
_cell_length_c                   23.4337(18)
_cell_angle_alpha                90
_cell_angle_beta                 107.577(4)
_cell_angle_gamma                90
_cell_volume                     3382.5
loop_
_atom_site_label
_atom_site_type_symbol
_atom_site_fract_x
_atom_site_fract_y
_atom_site_fract_z
Ho1 Ho 0.152355(11) 0.069929(16) 0.226991(7)
C1 C 0.1895(3) 0.1254(4) 0.54154(15)
C2 C 0.2556(3) 0.1184(6) 0.50952(19)
H1 H 0.3218 0.1171 0.5295
C3 C 0.2224(3) 0.1134(6) 0.44739(19)
H2 H 0.2668 0.1073 0.4259
C4 C 0.1246(3) 0.1173(4) 0.41731(16)
C5 C 0.0597(3) 0.1239(5) 0.44945(18)
H3 H -0.0065 0.1259 0.4294
C6 C 0.0913(3) 0.1278(5) 0.51147(18)
H4 H 0.0466 0.1319 0.5328
C7 C 0.0906(3) 0.1131(4) 0.35008(16)
C8 C 0.2150(3) 0.2988(4) 0.64047(16)
C9 C 0.2197(4) 0.3972(4) 0.6019(2)
H5 H 0.2313 0.3796 0.5658
C10 C 0.2069(4) 0.5232(4) 0.6179(2)
H6 H 0.2089 0.5898 0.5920
C11 C 0.1911(3) 0.5489(4) 0.67224(18)
C12 C 0.1889(3) 0.4490(4) 0.7107(2)
H7 H 0.1792 0.4663 0.7474
C13 C 0.2009(3) 0.3245(4) 0.69527(19)
H8 H 0.1995 0.2582 0.7214
C14 C 0.1759(3) 0.6828(4) 0.68899(17)
C15 C 0.3556(3) 0.0958(4) 0.64689(16)
C16 C 0.3816(3) -0.0337(4) 0.65260(18)
H9 H 0.3338 -0.0963 0.6424
C17 C 0.4777(3) -0.0681(4) 0.67327(19)
H10 H 0.4948 -0.1539 0.6780
C18 C 0.5500(3) 0.0259(4) 0.68722(17)
C19 C 0.5244(3) 0.1533(4) 0.68102(19)
H11 H 0.5723 0.2159 0.6905
C20 C 0.4275(3) 0.1878(4) 0.66063(19)
H12 H 0.4107 0.2737 0.6561
C21 C 0.6544(3) -0.0099(4) 0.71314(17)
C22 C 0.0000 -0.1589(8) 0.2500
H13 H 0.0000 -0.2476 0.2500
O1 O 0.1540(2) 0.1042(3) 0.32381(12)
O2 O 0.00102(19) 0.1203(3) 0.32444(13)
O3 O 0.1853(2) 0.7752(3) 0.65679(13)
O4 O 0.15280(19) 0.7017(3) 0.73667(12)
O5 O 0.6775(2) -0.1235(3) 0.72931(13)
O6 O 0.7189(2) 0.0749(3) 0.72090(13)
O7 O 0.1694(2) 0.0477(3) 0.64817(11)
O8 O 0.0719(2) -0.1112(3) 0.24111(15)
P1 P 0.22868(7) 0.13468(9) 0.62187(4)
Ho1A Ho -0.152355(11) 0.069929(16) 0.273009(7)
Ho1C Ho 0.152355(11) 0.930071(16) 0.726991(7)
Ho1B Ho 0.847645(11) -0.069929(16) 0.773009(7)
Ho1C_2 Ho 0.152355(11) -0.069929(16) 0.726991(7)
Ho1B_2 Ho -0.152355(11) 0.930071(16) -0.226991(7)
Ho1C_3 Ho -0.847645(11) -0.069929(16) -0.273009(7)
Ho1B_3 Ho -0.152355(11) -0.069929(16) -0.226991(7)
C1A C -0.1895(3) 0.1254(4) -0.04154(15)
C2A C -0.2556(3) 0.1184(6) -0.00952(19)
H1A H -0.3218 0.1171 -0.0295
C3A C -0.2224(3) 0.1134(6) 0.05261(19)
H2A H -0.2668 0.1073 0.0741
C4A C -0.1246(3) 0.1173(4) 0.08269(16)
C5A C -0.0597(3) 0.1239(5) 0.05055(18)
H3A H 0.0065 0.1259 0.0706
C6A C -0.0913(3) 0.1278(5) -0.01147(18)
H4A H -0.0466 0.1319 -0.0328
C7A C -0.0906(3) 0.1131(4) 0.14992(16)
C8A C -0.2150(3) 0.2988(4) -0.14047(16)
C9A C -0.2197(4) 0.3972(4) -0.1019(2)
H5A H -0.2313 0.3796 -0.0658
C10A C -0.2069(4) 0.5232(4) -0.1179(2)
H6A H -0.2089 0.5898 -0.0920
C11A C -0.1911(3) 0.5489(4) -0.17224(18)
C12A C -0.1889(3) 0.4490(4) -0.2107(2)
H7A H -0.1792 0.4663 -0.2474
C13A C -0.2009(3) 0.3245(4) -0.19527(19)
H8A H -0.1995 0.2582 -0.2214
C14A C -0.1759(3) 0.6828(4) -0.18899(17)
C15A C -0.3556(3) 0.0958(4) -0.14689(16)
C16A C -0.3816(3) -0.0337(4) -0.15260(18)
H9A H -0.3338 -0.0963 -0.1424
C17A C -0.4777(3) -0.0681(4) -0.17327(19)
H10A H -0.4948 -0.1539 -0.1780
C18A C -0.5500(3) 0.0259(4) -0.18722(17)
C19A C -0.5244(3) 0.1533(4) -0.18102(19)
H11A H -0.5723 0.2159 -0.1905
C20A C -0.4275(3) 0.1878(4) -0.16063(19)
H12A H -0.4107 0.2737 -0.1561
C21A C -0.6544(3) -0.0099(4) -0.21314(17)
O1A O -0.1540(2) 0.1042(3) 0.17619(12)
O2A O -0.00102(19) 0.1203(3) 0.17556(13)
O3A O -0.1853(2) 0.7752(3) -0.15679(13)
O3C O 0.1853(2) 0.2248(3) 0.15679(13)
O3B O -0.1853(2) 0.2248(3) 0.34321(13)
O4A O -0.15280(19) 0.7017(3) -0.23667(12)
O4C O 0.15280(19) 0.2983(3) 0.23667(12)
O4B O -0.15280(19) 0.2983(3) 0.26333(12)
O5A O -0.6775(2) -0.1235(3) -0.22931(13)
O5B O 0.3225(2) 0.1235(3) 0.27069(13)
O5C O -0.3225(2) 0.1235(3) 0.22931(13)
O6A O -0.7189(2) 0.0749(3) -0.22090(13)
O6B O 0.2811(2) -0.0749(3) 0.27910(13)
O6C O -0.2811(2) -0.0749(3) 0.22090(13)
O7A O -0.1694(2) 0.0477(3) -0.14817(11)
O7C O 0.1694(2) -0.0477(3) 0.14817(11)
O7B O -0.1694(2) -0.0477(3) 0.35183(11)
O8A O -0.0719(2) -0.1112(3) 0.25889(15)
P1A P -0.22868(7) 0.13468(9) -0.12187(4)
loop_
_geom_bond_atom_site_label_1
_geom_bond_atom_site_label_2
_geom_bond_site_symmetry_1
_geom_bond_site_symmetry_2
Ho1 O1 1_555 1_555
C1 C2 1_555 1_555
C2 H1 1_555 1_555
C3 C2 1_555 1_555
H2 C3 1_555 1_555
C4 C3 1_555 1_555
C5 C4 1_555 1_555
H3 C5 1_555 1_555
C6 C1 1_555 1_555
H4 C6 1_555 1_555
C7 C4 1_555 1_555
C8 C9 1_555 1_555
C9 H5 1_555 1_555
C10 C9 1_555 1_555
H6 C10 1_555 1_555
C11 C10 1_555 1_555
C12 C11 1_555 1_555
H7 C12 1_555 1_555
C13 C8 1_555 1_555
H8 C13 1_555 1_555
C14 C11 1_555 1_555
C15 C16 1_555 1_555
C16 H9 1_555 1_555
C17 C16 1_555 1_555
H10 C17 1_555 1_555
C18 C17 1_555 1_555
C19 C18 1_555 1_555
H11 C19 1_555 1_555
C20 C15 1_555 1_555
H12 C20 1_555 1_555
C21 C18 1_555 1_555
C22 H13 1_555 1_555
O1 C7 1_555 1_555
O2 C7 1_555 1_555
O3 C14 1_555 1_555
O4 C14 1_555 1_555
O5 C21 1_555 1_555
O6 C21 1_555 1_555
O7 P1 1_555 1_555
O8 Ho1 1_555 1_555
P1 C1 1_555 1_555
Ho1A O2 1_555 1_555
Ho1C O3 1_555 1_555
Ho1B O5 1_555 1_555
Ho1C_2 O7 1_555 1_555
Ho1B_2 O3A 1_555 1_555
Ho1C_3 O5A 1_555 1_555
Ho1B_3 O7A 1_555 1_555
C1A C2A 1_555 1_555
C2A H1A 1_555 1_555
C3A C2A 1_555 1_555
H2A C3A 1_555 1_555
C4A C3A 1_555 1_555
C5A C4A 1_555 1_555
H3A C5A 1_555 1_555
C6A C1A 1_555 1_555
H4A C6A 1_555 1_555
C7A C4A 1_555 1_555
C8A C9A 1_555 1_555
C9A H5A 1_555 1_555
C10A C9A 1_555 1_555
H6A C10A 1_555 1_555
C11A C10A 1_555 1_555
C12A C11A 1_555 1_555
H7A C12A 1_555 1_555
C13A C8A 1_555 1_555
H8A C13A 1_555 1_555
C14A C11A 1_555 1_555
C15A C16A 1_555 1_555
C16A H9A 1_555 1_555
C17A C16A 1_555 1_555
H10A C17A 1_555 1_555
C18A C17A 1_555 1_555
C19A C18A 1_555 1_555
H11A C19A 1_555 1_555
C20A C15A 1_555 1_555
H12A C20A 1_555 1_555
C21A C18A 1_555 1_555
O1A Ho1A 1_555 1_555
O2A Ho1 1_555 1_555
O3A C14A 1_555 1_555
O3C Ho1 1_555 1_555
O3B Ho1A 1_555 1_555
O4A Ho1B_2 1_555 1_555
O4C Ho1 1_555 1_555
O4B Ho1A 1_555 1_555
O5A C21A 1_555 1_555
O5B Ho1 1_555 1_555
O5C Ho1A 1_555 1_555
O6A Ho1C_3 1_555 1_555
O6B Ho1 1_555 1_555
O6C Ho1A 1_555 1_555
O7A P1A 1_555 1_555
O7C Ho1 1_555 1_555
O7B Ho1A 1_555 1_555
O8A C22 1_555 1_555
P1A C1A 1_555 1_555
C5 C6 1_555 1_555
C8 P1 1_555 1_555
C12 C13 1_555 1_555
C15 P1 1_555 1_555
C19 C20 1_555 1_555
C22 O8 1_555 1_555
O4 Ho1C 1_555 1_555
O6 Ho1B 1_555 1_555
Ho1A O8A 1_555 1_555
C5A C6A 1_555 1_555
C7A O1A 1_555 1_555
C7A O2A 1_555 1_555
C8A P1A 1_555 1_555
C12A C13A 1_555 1_555
C14A O4A 1_555 1_555
C15A P1A 1_555 1_555
C19A C20A 1_555 1_555
C21A O6A 1_555 1_555

#END
