
#######################################################################
#
#                 Cambridge Crystallographic Data Centre
#                                CCDC 
#
#######################################################################
#
# If this CIF has been generated from an entry in the Cambridge 
# Structural Database, then it will include bibliographic, chemical, 
# crystal, experimental, refinement or atomic coordinate data resulting 
# from the CCDC's data processing and validation procedures.
#
#######################################################################

data_DARFOT
_symmetry_cell_setting           monoclinic
_symmetry_space_group_name_H-M   'P 2/c'
_symmetry_Int_Tables_number      13
_space_group_name_Hall           '-P 2yc'
loop_
_symmetry_equiv_pos_site_id
_symmetry_equiv_pos_as_xyz
1 x,y,z
2 -x,y,1/2-z
3 -x,-y,-z
4 x,-y,1/2+z
_cell_length_a                   14.4014(11)
_cell_length_b                   10.4577(5)
_cell_length_c                   23.3524(18)
_cell_angle_alpha                90
_cell_angle_beta                 107.371(4)
_cell_angle_gamma                90
_cell_volume                     3356.6
loop_
_atom_site_label
_atom_site_type_symbol
_atom_site_fract_x
_atom_site_fract_y
_atom_site_fract_z
Tm1 Tm 0.15190(2) 0.06939(3) 0.227156(12)
C1 C 0.1902(5) 0.1250(7) 0.5425(3)
C2 C 0.2550(5) 0.1140(9) 0.5090(3)
H1 H 0.3214 0.1101 0.5285
C3 C 0.2222(6) 0.1089(10) 0.4476(3)
H2 H 0.2666 0.1007 0.4259
C4 C 0.1243(5) 0.1158(6) 0.4176(3)
C5 C 0.0579(5) 0.1266(9) 0.4495(3)
H3 H -0.0083 0.1330 0.4294
C6 C 0.0904(5) 0.1278(8) 0.5114(3)
H4 H 0.0454 0.1305 0.5329
C7 C 0.0901(5) 0.1116(6) 0.3500(3)
C8 C 0.2151(5) 0.2987(6) 0.6411(3)
C9 C 0.2193(7) 0.3974(7) 0.6018(3)
H5 H 0.2311 0.3796 0.5656
C10 C 0.2056(7) 0.5227(7) 0.6174(3)
H6 H 0.2068 0.5885 0.5909
C11 C 0.1903(5) 0.5512(7) 0.6715(3)
C12 C 0.1877(6) 0.4500(7) 0.7115(3)
H7 H 0.1769 0.4671 0.7481
C13 C 0.2014(6) 0.3265(7) 0.6955(3)
H8 H 0.2015 0.2603 0.7222
C14 C 0.1742(5) 0.6867(6) 0.6896(3)
C15 C 0.3552(5) 0.0956(7) 0.6470(3)
C16 C 0.3814(5) -0.0346(7) 0.6522(3)
H9 H 0.3339 -0.0977 0.6413
C17 C 0.4828(6) -0.0689(6) 0.6746(4)
H10 H 0.5015 -0.1542 0.6801
C18 C 0.5506(5) 0.0260(7) 0.6875(3)
C19 C 0.5251(5) 0.1549(7) 0.6817(3)
H11 H 0.5729 0.2178 0.6919
C20 C 0.4272(5) 0.1881(6) 0.6605(3)
H12 H 0.4099 0.2740 0.6554
C21 C 0.6564(4) -0.0092(7) 0.7121(3)
C22 C 0.0000 -0.1562(13) 0.2500
H13 H 0.0000 -0.2452 0.2500
O1 O 0.1534(4) 0.1027(5) 0.3238(2)
O2 O -0.0005(3) 0.1233(5) 0.3244(2)
O3 O 0.1852(4) 0.7777(4) 0.6564(2)
O4 O 0.1527(4) 0.7032(5) 0.7378(2)
O5 O 0.6791(4) -0.1228(5) 0.7303(2)
O6 O 0.7199(4) 0.0758(5) 0.7204(2)
O7 O 0.1680(4) 0.0491(4) 0.6488(2)
O8 O 0.0716(4) -0.1094(5) 0.2411(3)
P1 P 0.22846(12) 0.13362(16) 0.62249(7)
Tm1A Tm -0.15190(2) 0.06939(3) 0.272844(12)
Tm1C Tm 0.15190(2) 0.93061(3) 0.727156(12)
Tm1B Tm 0.84810(2) -0.06939(3) 0.772844(12)
Tm1C_2 Tm 0.15190(2) -0.06939(3) 0.727156(12)
Tm1B_2 Tm -0.15190(2) 0.93061(3) -0.227156(12)
Tm1C_3 Tm -0.84810(2) -0.06939(3) -0.272844(12)
Tm1B_3 Tm -0.15190(2) -0.06939(3) -0.227156(12)
C1A C -0.1902(5) 0.1250(7) -0.0425(3)
C2A C -0.2550(5) 0.1140(9) -0.0090(3)
H1A H -0.3214 0.1101 -0.0285
C3A C -0.2222(6) 0.1089(10) 0.0524(3)
H2A H -0.2666 0.1007 0.0741
C4A C -0.1243(5) 0.1158(6) 0.0824(3)
C5A C -0.0579(5) 0.1266(9) 0.0505(3)
H3A H 0.0083 0.1330 0.0706
C6A C -0.0904(5) 0.1278(8) -0.0114(3)
H4A H -0.0454 0.1305 -0.0329
C7A C -0.0901(5) 0.1116(6) 0.1500(3)
C8A C -0.2151(5) 0.2987(6) -0.1411(3)
C9A C -0.2193(7) 0.3974(7) -0.1018(3)
H5A H -0.2311 0.3796 -0.0656
C10A C -0.2056(7) 0.5227(7) -0.1174(3)
H6A H -0.2068 0.5885 -0.0909
C11A C -0.1903(5) 0.5512(7) -0.1715(3)
C12A C -0.1877(6) 0.4500(7) -0.2115(3)
H7A H -0.1769 0.4671 -0.2481
C13A C -0.2014(6) 0.3265(7) -0.1955(3)
H8A H -0.2015 0.2603 -0.2222
C14A C -0.1742(5) 0.6867(6) -0.1896(3)
C15A C -0.3552(5) 0.0956(7) -0.1470(3)
C16A C -0.3814(5) -0.0346(7) -0.1522(3)
H9A H -0.3339 -0.0977 -0.1413
C17A C -0.4828(6) -0.0689(6) -0.1746(4)
H10A H -0.5015 -0.1542 -0.1801
C18A C -0.5506(5) 0.0260(7) -0.1875(3)
C19A C -0.5251(5) 0.1549(7) -0.1817(3)
H11A H -0.5729 0.2178 -0.1919
C20A C -0.4272(5) 0.1881(6) -0.1605(3)
H12A H -0.4099 0.2740 -0.1554
C21A C -0.6564(4) -0.0092(7) -0.2121(3)
O1A O -0.1534(4) 0.1027(5) 0.1762(2)
O2A O 0.0005(3) 0.1233(5) 0.1756(2)
O3A O -0.1852(4) 0.7777(4) -0.1564(2)
O3C O 0.1852(4) 0.2223(4) 0.1564(2)
O3B O -0.1852(4) 0.2223(4) 0.3436(2)
O4A O -0.1527(4) 0.7032(5) -0.2378(2)
O4C O 0.1527(4) 0.2968(5) 0.2378(2)
O4B O -0.1527(4) 0.2968(5) 0.2622(2)
O5A O -0.6791(4) -0.1228(5) -0.2303(2)
O5B O 0.3209(4) 0.1228(5) 0.2697(2)
O5C O -0.3209(4) 0.1228(5) 0.2303(2)
O6A O -0.7199(4) 0.0758(5) -0.2204(2)
O6B O 0.2801(4) -0.0758(5) 0.2796(2)
O6C O -0.2801(4) -0.0758(5) 0.2204(2)
O7A O -0.1680(4) 0.0491(4) -0.1488(2)
O7C O 0.1680(4) -0.0491(4) 0.1488(2)
O7B O -0.1680(4) -0.0491(4) 0.3512(2)
O8A O -0.0716(4) -0.1094(5) 0.2589(3)
P1A P -0.22846(12) 0.13362(16) -0.12249(7)
loop_
_geom_bond_atom_site_label_1
_geom_bond_atom_site_label_2
_geom_bond_site_symmetry_1
_geom_bond_site_symmetry_2
Tm1 O1 1_555 1_555
C1 C2 1_555 1_555
C2 H1 1_555 1_555
C3 C2 1_555 1_555
H2 C3 1_555 1_555
C4 C3 1_555 1_555
C5 C4 1_555 1_555
H3 C5 1_555 1_555
C6 C1 1_555 1_555
H4 C6 1_555 1_555
C7 C4 1_555 1_555
C8 C9 1_555 1_555
C9 H5 1_555 1_555
C10 C9 1_555 1_555
H6 C10 1_555 1_555
C11 C10 1_555 1_555
C12 C11 1_555 1_555
H7 C12 1_555 1_555
C13 C8 1_555 1_555
H8 C13 1_555 1_555
C14 C11 1_555 1_555
C15 C16 1_555 1_555
C16 H9 1_555 1_555
C17 C16 1_555 1_555
H10 C17 1_555 1_555
C18 C17 1_555 1_555
C19 C18 1_555 1_555
H11 C19 1_555 1_555
C20 C15 1_555 1_555
H12 C20 1_555 1_555
C21 C18 1_555 1_555
C22 H13 1_555 1_555
O1 C7 1_555 1_555
O2 C7 1_555 1_555
O3 C14 1_555 1_555
O4 C14 1_555 1_555
O5 C21 1_555 1_555
O6 C21 1_555 1_555
O7 P1 1_555 1_555
O8 Tm1 1_555 1_555
P1 C1 1_555 1_555
Tm1A O2 1_555 1_555
Tm1C O3 1_555 1_555
Tm1B O5 1_555 1_555
Tm1C_2 O7 1_555 1_555
Tm1B_2 O3A 1_555 1_555
Tm1C_3 O5A 1_555 1_555
Tm1B_3 O7A 1_555 1_555
C1A C2A 1_555 1_555
C2A H1A 1_555 1_555
C3A C2A 1_555 1_555
H2A C3A 1_555 1_555
C4A C3A 1_555 1_555
C5A C4A 1_555 1_555
H3A C5A 1_555 1_555
C6A C1A 1_555 1_555
H4A C6A 1_555 1_555
C7A C4A 1_555 1_555
C8A C9A 1_555 1_555
C9A H5A 1_555 1_555
C10A C9A 1_555 1_555
H6A C10A 1_555 1_555
C11A C10A 1_555 1_555
C12A C11A 1_555 1_555
H7A C12A 1_555 1_555
C13A C8A 1_555 1_555
H8A C13A 1_555 1_555
C14A C11A 1_555 1_555
C15A C16A 1_555 1_555
C16A H9A 1_555 1_555
C17A C16A 1_555 1_555
H10A C17A 1_555 1_555
C18A C17A 1_555 1_555
C19A C18A 1_555 1_555
H11A C19A 1_555 1_555
C20A C15A 1_555 1_555
H12A C20A 1_555 1_555
C21A C18A 1_555 1_555
O1A Tm1A 1_555 1_555
O2A Tm1 1_555 1_555
O3A C14A 1_555 1_555
O3C Tm1 1_555 1_555
O3B Tm1A 1_555 1_555
O4A Tm1B_2 1_555 1_555
O4C Tm1 1_555 1_555
O4B Tm1A 1_555 1_555
O5A C21A 1_555 1_555
O5B Tm1 1_555 1_555
O5C Tm1A 1_555 1_555
O6A Tm1C_3 1_555 1_555
O6B Tm1 1_555 1_555
O6C Tm1A 1_555 1_555
O7A P1A 1_555 1_555
O7C Tm1 1_555 1_555
O7B Tm1A 1_555 1_555
O8A C22 1_555 1_555
P1A C1A 1_555 1_555
C5 C6 1_555 1_555
C8 P1 1_555 1_555
C12 C13 1_555 1_555
C15 P1 1_555 1_555
C19 C20 1_555 1_555
C22 O8 1_555 1_555
O4 Tm1C 1_555 1_555
O6 Tm1B 1_555 1_555
Tm1A O8A 1_555 1_555
C5A C6A 1_555 1_555
C7A O1A 1_555 1_555
C7A O2A 1_555 1_555
C8A P1A 1_555 1_555
C12A C13A 1_555 1_555
C14A O4A 1_555 1_555
C15A P1A 1_555 1_555
C19A C20A 1_555 1_555
C21A O6A 1_555 1_555

#END
