
#######################################################################
#
#                 Cambridge Crystallographic Data Centre
#                                CCDC 
#
#######################################################################
#
# If this CIF has been generated from an entry in the Cambridge 
# Structural Database, then it will include bibliographic, chemical, 
# crystal, experimental, refinement or atomic coordinate data resulting 
# from the CCDC's data processing and validation procedures.
#
#######################################################################

data_DAXKIY
_symmetry_cell_setting           tetragonal
_symmetry_space_group_name_H-M   'I 41/a'
_symmetry_Int_Tables_number      88
_space_group_name_Hall           '-I 4ad'
loop_
_symmetry_equiv_pos_site_id
_symmetry_equiv_pos_as_xyz
1 x,y,z
2 -x,1/2-y,z
3 3/4-y,1/4+x,1/4+z
4 1/4+y,1/4-x,1/4+z
5 1/2+x,1/2+y,1/2+z
6 1/2-x,-y,1/2+z
7 1/4-y,3/4+x,3/4+z
8 3/4+y,3/4-x,3/4+z
9 -x,-y,-z
10 x,1/2+y,-z
11 1/4+y,3/4-x,3/4-z
12 3/4-y,3/4+x,3/4-z
13 1/2-x,1/2-y,1/2-z
14 1/2+x,y,1/2-z
15 3/4+y,1/4-x,1/4-z
16 1/4-y,1/4+x,1/4-z
_cell_length_a                   9.159(3)
_cell_length_b                   9.159(3)
_cell_length_c                   24.445(14)
_cell_angle_alpha                90
_cell_angle_beta                 90
_cell_angle_gamma                90
_cell_volume                     2050.62
loop_
_atom_site_label
_atom_site_type_symbol
_atom_site_fract_x
_atom_site_fract_y
_atom_site_fract_z
In1 In 0.0000 0.2500 0.6250
N1 N 0.0147(3) 0.0932(3) 0.54413(10)
C1 C 0.1321(4) 0.0431(3) 0.51775(12)
H1 H 0.2249 0.0709 0.5292
C2 C -0.1169(4) 0.0502(3) 0.52670(12)
C3 C -0.2492(4) 0.1078(4) 0.55761(12)
O1 O -0.2207(2) 0.1935(2) 0.59799(9)
O2 O -0.3708(3) 0.0677(3) 0.54293(10)
In1F In 0.0000 -0.2500 0.3750
In1F_2 In 0.0000 0.7500 0.3750
N1H N -0.0147(3) -0.0932(3) 0.45587(10)
N1A N -0.0147(3) 0.4068(3) 0.54413(10)
N1I N 0.0147(3) 0.5932(3) 0.45587(10)
N1N N -0.1568(3) 0.2353(3) 0.70587(10)
N1O N 0.1568(3) 0.2647(3) 0.70587(10)
C1H C -0.1321(4) -0.0431(3) 0.48225(12)
C1A C -0.1321(4) 0.4569(3) 0.51775(12)
C1I C 0.1321(4) 0.5431(3) 0.48225(12)
H1H H -0.2249 -0.0709 0.4708
H1A H -0.2249 0.4291 0.5292
H1I H 0.2249 0.5709 0.4708
C2H C 0.1169(4) -0.0502(3) 0.47330(12)
C2A C 0.1169(4) 0.4498(3) 0.52670(12)
C2I C -0.1169(4) 0.5502(3) 0.47330(12)
C3H C 0.2492(4) -0.1078(4) 0.44239(12)
C3A C 0.2492(4) 0.3922(4) 0.55761(12)
C3I C -0.2492(4) 0.6078(4) 0.44239(12)
O1H O 0.2207(2) -0.1935(2) 0.40201(9)
O1A O 0.2207(2) 0.3065(2) 0.59799(9)
O1I O -0.2207(2) 0.6935(2) 0.40201(9)
O1N O -0.0565(2) 0.4707(2) 0.65201(9)
O1O O 0.0565(2) 0.0293(2) 0.65201(9)
O2H O 0.3708(3) -0.0677(3) 0.45707(10)
O2A O 0.3708(3) 0.4323(3) 0.54293(10)
O2I O -0.3708(3) 0.5677(3) 0.45707(10)
N2 N -0.5000 0.7500 0.6250
C4 C -0.3810(5) 0.6911(5) 0.58933(17)
H2 H -0.3456 0.7673 0.5658
H3 H -0.4185 0.6124 0.5675
H4 H -0.3025 0.6560 0.6118
C4A C -0.6190(5) 0.8089(5) 0.58933(17)
C4N C -0.5589(5) 0.6310(5) 0.66067(17)
C4O C -0.4411(5) 0.8690(5) 0.66067(17)
H2A H -0.6544 0.7327 0.5658
H2N H -0.4827 0.5956 0.6842
H2O H -0.5173 0.9044 0.6842
H3A H -0.5815 0.8876 0.5675
H3N H -0.6376 0.6685 0.6825
H3O H -0.3624 0.8315 0.6825
H4A H -0.6975 0.8440 0.6118
H4N H -0.5940 0.5525 0.6382
H4O H -0.4060 0.9475 0.6382
O3 O -0.5000 0.2500 0.65895(15)
H5 H -0.4215 0.2323 0.6343
H5A H -0.5785 0.2677 0.6343
loop_
_geom_bond_atom_site_label_1
_geom_bond_atom_site_label_2
_geom_bond_site_symmetry_1
_geom_bond_site_symmetry_2
In1 N1 1_555 1_555
N1 C1 1_555 1_555
C1 H1 1_555 1_555
C2 N1 1_555 1_555
C3 C2 1_555 1_555
O1 In1 1_555 1_555
O2 C3 1_555 1_555
N2 C4 1_555 1_555
C4 H2 1_555 1_555
H3 C4 1_555 1_555
H4 C4 1_555 1_555
O3 H5 1_555 1_555
In1F N1H 1_555 1_555
In1F_2 N1I 1_555 1_555
N1H C1H 1_555 1_555
N1A In1 1_555 1_555
N1I C1I 1_555 1_555
N1N In1 1_555 1_555
N1O In1 1_555 1_555
C1H C2 1_555 1_555
C1A N1A 1_555 1_555
C1I H1I 1_555 1_555
H1H C1H 1_555 1_555
H1A C1A 1_555 1_555
C2H C1 1_555 1_555
C2A N1A 1_555 1_555
C2I N1I 1_555 1_555
C3H C2H 1_555 1_555
C3A C2A 1_555 1_555
C3I C2I 1_555 1_555
O1H In1F 1_555 1_555
O1A In1 1_555 1_555
O1I In1F_2 1_555 1_555
O1N In1 1_555 1_555
O1O In1 1_555 1_555
O2H C3H 1_555 1_555
O2A C3A 1_555 1_555
O2I C3I 1_555 1_555
C4A N2 1_555 1_555
C4N N2 1_555 1_555
C4O N2 1_555 1_555
H2A C4A 1_555 1_555
H2N C4N 1_555 1_555
H2O C4O 1_555 1_555
H3A C4A 1_555 1_555
H3N C4N 1_555 1_555
H3O C4O 1_555 1_555
H4A C4A 1_555 1_555
H4N C4N 1_555 1_555
H4O C4O 1_555 1_555
H5A O3 1_555 1_555
C3 O1 1_555 1_555
N1H C2H 1_555 1_555
C1A C2I 1_555 1_555
C1I C2A 1_555 1_555
C3H O1H 1_555 1_555
C3A O1A 1_555 1_555
C3I O1I 1_555 1_555

#END
