
#######################################################################
#
#                 Cambridge Crystallographic Data Centre
#                                CCDC 
#
#######################################################################
#
# If this CIF has been generated from an entry in the Cambridge 
# Structural Database, then it will include bibliographic, chemical, 
# crystal, experimental, refinement or atomic coordinate data resulting 
# from the CCDC's data processing and validation procedures.
#
#######################################################################

data_DEGBUO
_symmetry_cell_setting           monoclinic
_symmetry_space_group_name_H-M   'P 21/c'
_symmetry_Int_Tables_number      14
_space_group_name_Hall           '-P 2ybc'
loop_
_symmetry_equiv_pos_site_id
_symmetry_equiv_pos_as_xyz
1 x,y,z
2 -x,1/2+y,1/2-z
3 -x,-y,-z
4 x,1/2-y,1/2+z
_cell_length_a                   14.177(6)
_cell_length_b                   15.763(6)
_cell_length_c                   12.768(5)
_cell_angle_alpha                90
_cell_angle_beta                 95.634(8)
_cell_angle_gamma                90
_cell_volume                     2839.51
loop_
_atom_site_label
_atom_site_type_symbol
_atom_site_fract_x
_atom_site_fract_y
_atom_site_fract_z
Y1 Y -0.05991(3) 0.04717(3) 0.18197(3)
Y2 Y -0.55602(3) -0.30008(3) 0.16293(3)
O1 O 0.1264(3) 0.2735(2) 0.1629(3)
O2 O 0.1406(2) -0.2278(2) 0.1204(3)
O3 O 0.2819(2) -0.2926(2) 0.1411(3)
O4 O 0.0855(3) -0.0269(2) 0.1637(3)
N1 N -0.6067(3) -0.4569(3) 0.1246(3)
N2 N -0.1119(3) 0.2034(3) 0.1446(3)
O5 O -0.4162(3) -0.2248(2) 0.1550(3)
O6 O -0.4444(3) -0.6834(2) 0.0167(3)
O7 O -0.2219(2) 0.0394(2) 0.1692(3)
N3 N -0.1285(3) -0.0970(2) 0.1213(3)
O8 O -0.3622(3) -0.0250(2) 0.1421(3)
O9 O -0.4530(3) -0.7071(2) 0.1881(3)
N4 N 0.3737(3) -0.1516(3) 0.1133(3)
O10 O 0.0646(3) 0.1441(2) 0.1776(3)
O11 O -0.5693(3) -0.3728(2) 0.3236(3)
C1 C -0.5347(3) -0.5132(3) 0.1239(3)
C2 C 0.2780(3) -0.1448(3) 0.1099(3)
N5 N -0.2178(3) -0.2530(3) 0.0835(3)
C3 C -0.2231(4) -0.1042(3) 0.1196(4)
N6 N 0.2829(3) 0.0055(3) 0.1007(3)
C4 C -0.4364(4) -0.4765(3) 0.1444(4)
O12 O -0.3671(3) -0.5250(2) 0.1405(3)
C5 C 0.2322(4) -0.0668(3) 0.1003(3)
C6 C 0.0583(4) 0.2235(3) 0.1609(4)
C7 C 0.3775(4) -0.0021(3) 0.1035(4)
H1 H 0.4143 0.0467 0.1021
C8 C 0.0200(4) 0.4098(3) 0.1018(4)
C9 C 0.1263(4) -0.0523(3) 0.0859(4)
C10 C -0.2686(4) -0.1822(3) 0.0972(4)
C11 C -0.2735(4) -0.0239(3) 0.1450(4)
C12 C -0.0400(4) 0.2588(3) 0.1382(4)
C13 C -0.0789(4) -0.1669(3) 0.1028(4)
H2 H -0.0135 -0.1634 0.1013
C14 C -0.4759(4) -0.6678(3) 0.1044(4)
C15 C 0.4218(4) -0.0801(3) 0.1083(4)
H3 H 0.4873 -0.0825 0.1081
C16 C -0.6951(4) -0.4875(3) 0.1109(4)
H4 H -0.7463 -0.4505 0.1082
O13 O -0.4308(3) -0.3977(2) 0.1661(3)
C17 C -0.5527(4) -0.5996(3) 0.1089(4)
O14 O 0.0860(2) -0.0626(2) -0.0050(2)
O15 O 0.0427(3) 0.4555(2) 0.1807(3)
O16 O -0.4135(3) -0.1764(2) -0.0096(3)
O17 O 0.0518(3) 0.4160(2) 0.0146(3)
N7 N -0.6413(3) -0.6309(3) 0.0983(3)
C18 C -0.3756(4) -0.1946(3) 0.0790(4)
C19 C -0.0575(4) 0.3444(3) 0.1149(4)
C20 C -0.2174(4) 0.3201(3) 0.1091(4)
H5 H -0.2796 0.3395 0.1015
C21 C -0.1241(4) -0.2437(3) 0.0859(4)
H6 H -0.0876 -0.2915 0.0757
C22 C -0.1995(4) 0.2345(3) 0.1300(4)
H7 H -0.2504 0.1978 0.1338
C23 C -0.7111(4) -0.5746(3) 0.1005(4)
H8 H -0.7732 -0.5942 0.0949
C24 C 0.2289(4) -0.2282(3) 0.1244(4)
O18 O -0.0715(3) 0.1202(2) 0.3397(3)
N8 N -0.1461(3) 0.3750(3) 0.0998(3)
Y1B Y 0.05991(3) -0.04717(3) -0.18197(3)
Y1A Y 0.05991(3) 0.54717(3) 0.31803(3)
Y2_2 Y 0.44398(3) -0.30008(3) 0.16293(3)
Y2B Y -0.44398(3) -0.69992(3) -0.16293(3)
Y2A Y -0.44398(3) -0.80008(3) 0.33707(3)
O3_2 O -0.7181(2) -0.2926(2) 0.1411(3)
O6B O -0.5556(3) -0.3166(2) -0.0167(3)
O9A O -0.5470(3) -0.2071(2) 0.3119(3)
N4_2 N -0.6263(3) -0.1516(3) 0.1133(3)
O14B O -0.0860(2) 0.0626(2) 0.0050(2)
O15A O -0.0427(3) -0.0445(2) 0.3193(3)
N9 N 0.2967(3) 0.1945(3) 0.1740(3)
N10 N 0.8045(3) -0.4439(3) 0.1461(4)
loop_
_geom_bond_atom_site_label_1
_geom_bond_atom_site_label_2
_geom_bond_site_symmetry_1
_geom_bond_site_symmetry_2
Y1 O4 1_555 1_555
Y2 N1 1_555 1_555
O1 C6 1_555 1_555
O2 C24 1_555 1_555
O3 C24 1_555 1_555
O4 C9 1_555 1_555
N1 C1 1_555 1_555
N2 Y1 1_555 1_555
O5 Y2 1_555 1_555
O6 C14 1_555 1_555
O7 Y1 1_555 1_555
N3 Y1 1_555 1_555
O8 C11 1_555 1_555
O9 C14 1_555 1_555
N4 C2 1_555 1_555
O10 Y1 1_555 1_555
O11 Y2 1_555 1_555
C1 C4 1_555 1_555
C2 C5 1_555 1_555
N5 C10 1_555 1_555
C3 N3 1_555 1_555
N6 C5 1_555 1_555
C4 O12 1_555 1_555
C5 C9 1_555 1_555
C6 O10 1_555 1_555
C7 N6 1_555 1_555
H1 C7 1_555 1_555
C8 O15 1_555 1_555
C9 O14 1_555 1_555
C10 C3 1_555 1_555
C11 O7 1_555 1_555
C12 N2 1_555 1_555
C13 N3 1_555 1_555
H2 C13 1_555 1_555
C14 C17 1_555 1_555
C15 N4 1_555 1_555
H3 C15 1_555 1_555
C16 N1 1_555 1_555
H4 C16 1_555 1_555
O13 Y2 1_555 1_555
C17 C1 1_555 1_555
O14 Y1B 1_555 1_555
O15 Y1A 1_555 1_555
O16 C18 1_555 1_555
O17 C8 1_555 1_555
N7 C17 1_555 1_555
C18 O5 1_555 1_555
C19 C8 1_555 1_555
C20 H5 1_555 1_555
C21 N5 1_555 1_555
H6 C21 1_555 1_555
C22 N2 1_555 1_555
H7 C22 1_555 1_555
C23 C16 1_555 1_555
H8 C23 1_555 1_555
C24 C2 1_555 1_555
O18 Y1 1_555 1_555
N8 C19 1_555 1_555
Y2_2 O3 1_555 1_555
Y2B O6 1_555 1_555
Y2A O9 1_555 1_555
O3_2 Y2 1_555 1_555
O6B Y2 1_555 1_555
O9A Y2 1_555 1_555
N4_2 Y2 1_555 1_555
O14B Y1 1_555 1_555
O15A Y1 1_555 1_555
N4 Y2_2 1_555 1_555
C3 C11 1_555 1_555
C4 O13 1_555 1_555
C6 C12 1_555 1_555
C7 C15 1_555 1_555
C10 C18 1_555 1_555
C12 C19 1_555 1_555
C13 C21 1_555 1_555
N7 C23 1_555 1_555
C20 C22 1_555 1_555
C20 N8 1_555 1_555

#END
