
#######################################################################
#
#                 Cambridge Crystallographic Data Centre
#                                CCDC 
#
#######################################################################
#
# If this CIF has been generated from an entry in the Cambridge 
# Structural Database, then it will include bibliographic, chemical, 
# crystal, experimental, refinement or atomic coordinate data resulting 
# from the CCDC's data processing and validation procedures.
#
#######################################################################

data_DEKPEP
_symmetry_cell_setting           triclinic
_symmetry_space_group_name_H-M   'P -1'
_symmetry_Int_Tables_number      2
_space_group_name_Hall           '-P 1'
loop_
_symmetry_equiv_pos_site_id
_symmetry_equiv_pos_as_xyz
1 x,y,z
2 -x,-y,-z
_cell_length_a                   8.670(4)
_cell_length_b                   9.742(3)
_cell_length_c                   10.406(2)
_cell_angle_alpha                81.44(3)
_cell_angle_beta                 65.83(5)
_cell_angle_gamma                67.16(3)
_cell_volume                     738.946
loop_
_atom_site_label
_atom_site_type_symbol
_atom_site_fract_x
_atom_site_fract_y
_atom_site_fract_z
Ga1 Ga 0.13242(11) 1.14930(9) 0.86246(8)
Ga2 Ga 0.11989(11) 1.54631(9) 0.84910(9)
P1 P 0.2412(3) 0.8029(2) 0.8824(2)
P2 P 0.1994(3) 1.3579(2) 0.5908(2)
P3 P 0.7123(3) 0.7193(2) 0.9901(2)
F1 F 0.0010(6) 1.3928(5) 0.9371(4)
O1 O 0.2400(7) 0.9481(5) 0.8019(5)
O2 O 0.1039(7) 0.8403(6) 1.0365(5)
O3 O 0.2018(7) 0.7082(6) 0.8052(5)
O4 O 0.7146(7) 0.8498(6) 1.0568(6)
O5 O 0.6888(7) 0.5935(6) 1.0965(5)
O6 O 0.8795(7) 0.6653(6) 0.8534(5)
O7 O 0.3623(8) 1.3043(6) 0.4555(6)
O8 O 0.1722(8) 1.2249(6) 0.6872(5)
O9 O 0.2147(7) 1.4743(6) 0.6654(5)
C6 C 0.5133(10) 0.8051(8) 0.9515(8)
H6 H 0.4103 0.8508 1.0397
H7 H 0.5298 0.8870 0.8849
C7 C -0.0043(10) 1.4403(8) 0.5561(8)
H8 H -0.0272 1.3611 0.5255
H9 H -0.1077 1.4848 0.6445
C8 C 0.4586(10) 0.7063(8) 0.8890(8)
H10 H 0.4573 0.6162 0.9472
H11 H 0.5496 0.6738 0.7927
Ga1A Ga -0.13242(11) 0.85070(9) 1.13754(8)
Ga1A_2 Ga 0.86758(11) 0.85070(9) 1.13754(8)
Ga1A_3 Ga -0.13242(11) 1.85070(9) 0.13754(8)
Ga1_2 Ga -0.86758(11) 1.14930(9) 0.86246(8)
Ga1A_4 Ga -0.13242(11) 1.85070(9) 1.13754(8)
Ga2A Ga -0.11989(11) 1.45369(9) 1.15090(9)
Ga2_2 Ga 0.11989(11) 0.54631(9) 0.84910(9)
Ga2A_2 Ga 0.88011(11) 0.45369(9) 1.15090(9)
Ga2_3 Ga 1.11989(11) 0.54631(9) 0.84910(9)
Ga2A_3 Ga -0.11989(11) 1.45369(9) 0.15090(9)
Ga2_4 Ga -0.88011(11) 1.54631(9) 0.84910(9)
Ga2A_4 Ga -1.11989(11) 1.45369(9) 1.15090(9)
P1A P -0.2412(3) 1.1971(2) 1.1176(2)
P2A P -0.1994(3) 1.6421(2) 0.4092(2)
P3A P -0.7123(3) 1.2807(2) 1.0099(2)
F1A F -0.0010(6) 1.6072(5) 1.0629(4)
F1A_2 F -0.0010(6) 0.6072(5) 1.0629(4)
O1A O -0.2400(7) 1.0519(5) 1.1981(5)
O2A O -0.1039(7) 1.1597(6) 0.9635(5)
O3A O -0.2018(7) 1.2918(6) 1.1948(5)
O3_2 O 0.2018(7) 1.7082(6) 0.8052(5)
O4A O -0.7146(7) 1.1502(6) 0.9432(6)
O4A_2 O 0.2854(7) 1.1502(6) 0.9432(6)
O4_2 O -0.2854(7) 0.8498(6) 1.0568(6)
O5A O -0.6888(7) 1.4065(6) 0.9035(5)
O5A_2 O 0.3112(7) 1.4065(6) 0.9035(5)
O5_2 O -0.3112(7) 1.5935(6) 1.0965(5)
O6A O -0.8795(7) 1.3347(6) 1.1466(5)
O6_2 O -0.1205(7) 1.6653(6) 0.8534(5)
O6A_2 O 0.1205(7) 1.3347(6) 1.1466(5)
O7A O -0.3623(8) 1.6957(6) 0.5445(6)
O8A O -0.1722(8) 1.7751(6) 0.3128(5)
O8A_2 O -0.1722(8) 0.7751(6) 1.3128(5)
O9A O -0.2147(7) 1.5257(6) 0.3346(5)
O9A_2 O -0.2147(7) 1.5257(6) 1.3346(5)
C6A C -0.5133(10) 1.1949(8) 1.0485(8)
H6A H -0.4103 1.1492 0.9603
H7A H -0.5298 1.1130 1.1151
C7A C 0.0043(10) 1.5597(8) 0.4439(8)
H8A H 0.0272 1.6389 0.4745
H9A H 0.1077 1.5152 0.3555
C8A C -0.4586(10) 1.2937(8) 1.1110(8)
H10A H -0.4573 1.3838 1.0528
H11A H -0.5496 1.3262 1.2073
C1 C 0.6911(13) 1.0242(10) 0.5482(10)
H1 H 0.6610 0.9693 0.4999
C2 C 0.7908(12) 0.9521(10) 0.6272(9)
H2 H 0.8300 0.8468 0.6352
C3 C 0.8342(12) 1.0341(11) 0.6957(9)
H3 H 0.9031 0.9852 0.7516
C4 C 0.7783(14) 1.1856(11) 0.6832(10)
H4 H 0.8106 1.2425 0.7275
C5 C 0.6743(12) 1.2540(11) 0.6051(9)
H5 H 0.6298 1.3595 0.5985
N1 N 0.6359(10) 1.1730(9) 0.5389(8)
H12 H 0.571(13) 1.217(11) 0.499(10)
loop_
_geom_bond_atom_site_label_1
_geom_bond_atom_site_label_2
_geom_bond_site_symmetry_1
_geom_bond_site_symmetry_2
Ga1 F1 1_555 1_555
Ga2 F1 1_555 1_555
P1 O1 1_555 1_555
P2 O7 1_555 1_555
P3 O4 1_555 1_555
F1 Ga2A 1_555 1_555
O1 Ga1 1_555 1_555
O2 P1 1_555 1_555
O3 P1 1_555 1_555
O4 Ga1A_2 1_555 1_555
O5 P3 1_555 1_555
O6 P3 1_555 1_555
O8 Ga1 1_555 1_555
O9 Ga2 1_555 1_555
C1 H1 1_555 1_555
C2 C1 1_555 1_555
H2 C2 1_555 1_555
C3 C2 1_555 1_555
H3 C3 1_555 1_555
C4 C3 1_555 1_555
H4 C4 1_555 1_555
C5 C4 1_555 1_555
H5 C5 1_555 1_555
C6 P3 1_555 1_555
H6 C6 1_555 1_555
H7 C6 1_555 1_555
C7 P2 1_555 1_555
H8 C7 1_555 1_555
H9 C7 1_555 1_555
C8 P1 1_555 1_555
H10 C8 1_555 1_555
H11 C8 1_555 1_555
N1 C1 1_555 1_555
H12 N1 1_555 1_555
Ga1A O2 1_555 1_555
Ga1A_3 O8A 1_555 1_555
Ga1_2 O4A 1_555 1_555
Ga1A_4 F1A 1_555 1_555
Ga2A F1A 1_555 1_555
Ga2_2 O3 1_555 1_555
Ga2A_2 O5 1_555 1_555
Ga2_3 O6 1_555 1_555
Ga2A_3 O9A 1_555 1_555
Ga2_4 O5A 1_555 1_555
Ga2A_4 O6A 1_555 1_555
P1A O1A 1_555 1_555
P2A O7A 1_555 1_555
P3A O4A 1_555 1_555
F1A Ga2 1_555 1_555
F1A_2 Ga1A 1_555 1_555
O1A Ga1A 1_555 1_555
O2A Ga1 1_555 1_555
O3A Ga2A 1_555 1_555
O3_2 Ga2 1_555 1_555
O4A_2 Ga1 1_555 1_555
O4_2 Ga1A 1_555 1_555
O5A P3A 1_555 1_555
O5A_2 Ga2 1_555 1_555
O5_2 Ga2A 1_555 1_555
O6A P3A 1_555 1_555
O6_2 Ga2 1_555 1_555
O6A_2 Ga2A 1_555 1_555
O8A P2A 1_555 1_555
O8A_2 Ga1A 1_555 1_555
O9A P2A 1_555 1_555
O9A_2 Ga2A 1_555 1_555
C6A P3A 1_555 1_555
H6A C6A 1_555 1_555
H7A C6A 1_555 1_555
C7A C7 1_555 1_555
H8A C7A 1_555 1_555
H9A C7A 1_555 1_555
C8A P1A 1_555 1_555
H10A C8A 1_555 1_555
H11A C8A 1_555 1_555
P2 O8 1_555 1_555
P2 O9 1_555 1_555
C5 N1 1_555 1_555
C6 C8 1_555 1_555
Ga2_2 F1A_2 1_555 1_555
P1A O2A 1_555 1_555
P1A O3A 1_555 1_555
P2A C7A 1_555 1_555
C6A C8A 1_555 1_555

#END
