
#######################################################################
#
#                 Cambridge Crystallographic Data Centre
#                                CCDC 
#
#######################################################################
#
# If this CIF has been generated from an entry in the Cambridge 
# Structural Database, then it will include bibliographic, chemical, 
# crystal, experimental, refinement or atomic coordinate data resulting 
# from the CCDC's data processing and validation procedures.
#
#######################################################################

data_DEYDOA
_symmetry_cell_setting           monoclinic
_symmetry_space_group_name_H-M   'P 2/m'
_symmetry_Int_Tables_number      10
_space_group_name_Hall           '-P 2y'
loop_
_symmetry_equiv_pos_site_id
_symmetry_equiv_pos_as_xyz
1 x,y,z
2 -x,y,-z
3 -x,-y,-z
4 x,-y,z
_cell_length_a                   9.541(2)
_cell_length_b                   7.569(2)
_cell_length_c                   7.199(1)
_cell_angle_alpha                90
_cell_angle_beta                 100.3(1)
_cell_angle_gamma                90
_cell_volume                     511.504
loop_
_atom_site_label
_atom_site_type_symbol
_atom_site_fract_x
_atom_site_fract_y
_atom_site_fract_z
Cd1 Cd 0.00000 0.00000 0.00000
Ni1 Ni 0.00000 0.50000 0.50000
N1 N 0.0636(5) 0.2211(5) 0.2313(5)
N2 N -0.2308(6) 0.00000 0.0594(7)
C1 C 0.0418(4) 0.3268(5) 0.3350(5)
C2 C -0.2523(7) 0.00000 0.2595(9)
C3 C -0.4068(7) 0.00000 0.2786(8)
C4 C -0.4242(7) 0.00000 0.486(1)
H1 H -0.28422 -0.11610 -0.00814
H2 H -0.20155 -0.11610 0.33003
H3 H -0.45835 -0.11610 0.20900
H4 H -0.37177 -0.11610 0.55465
N1B N -0.0636(5) -0.2211(5) -0.2313(5)
N1A N -0.0636(5) 0.2211(5) -0.2313(5)
N1C N 0.0636(5) -0.2211(5) 0.2313(5)
N2B N 0.2308(6) 0.00000 -0.0594(7)
H1C H -0.28422 0.11610 -0.00814
C1B C -0.0418(4) 0.6732(5) 0.6650(5)
C1A C -0.0418(4) 0.3268(5) 0.6650(5)
C1C C 0.0418(4) 0.6732(5) 0.3350(5)
H2C H -0.20155 0.11610 0.33003
H3C H -0.45835 0.11610 0.20900
C4B C -0.5758(7) 0.00000 0.514(1)
H4C H -0.37177 0.11610 0.55465
H1B H 0.28422 0.11610 0.00814
H1A H 0.28422 -0.11610 0.00814
N1B_2 N -0.0636(5) 0.7789(5) 0.7687(5)
N1A_2 N -0.0636(5) 0.2211(5) 0.7687(5)
N1C_2 N 0.0636(5) 0.7789(5) 0.2313(5)
C3B C -0.5932(7) 0.00000 0.7214(8)
H4B H -0.62823 0.11610 0.44535
H4A H -0.62823 -0.11610 0.44535
C2B C -0.7477(7) 0.00000 0.7405(9)
H3B H -0.54165 0.11610 0.79100
H3A H -0.54165 -0.11610 0.79100
Cd1_2 Cd 0.00000 1.00000 1.00000
Cd1_3 Cd 0.00000 0.00000 1.00000
Cd1_4 Cd 0.00000 1.00000 0.00000
N2A N -0.7692(6) 0.00000 0.9406(7)
H2A H -0.79845 -0.11610 0.66997
H2B H -0.79845 0.11610 0.66997
Cd1_5 Cd -1.00000 0.00000 1.00000
H1A_2 H -0.71578 -0.11610 1.00814
H1B_2 H -0.71578 0.11610 1.00814
loop_
_geom_bond_atom_site_label_1
_geom_bond_atom_site_label_2
_geom_bond_site_symmetry_1
_geom_bond_site_symmetry_2
Cd1 N1 1_555 1_555
Ni1 C1 1_555 1_555
N1 C1 1_555 1_555
N2 Cd1 1_555 1_555
C2 N2 1_555 1_555
C3 C2 1_555 1_555
C4 C3 1_555 1_555
H1 N2 1_555 1_555
H2 C2 1_555 1_555
H3 C3 1_555 1_555
H4 C4 1_555 1_555
N1B Cd1 1_555 1_555
N1A Cd1 1_555 1_555
N1C Cd1 1_555 1_555
N2B Cd1 1_555 1_555
H1C N2 1_555 1_555
C1B Ni1 1_555 1_555
C1A Ni1 1_555 1_555
C1C Ni1 1_555 1_555
H2C C2 1_555 1_555
H3C C3 1_555 1_555
C4B C4 1_555 1_555
H4C C4 1_555 1_555
H1B N2B 1_555 1_555
H1A N2B 1_555 1_555
N1B_2 C1B 1_555 1_555
N1A_2 C1A 1_555 1_555
N1C_2 C1C 1_555 1_555
C3B C4B 1_555 1_555
H4B C4B 1_555 1_555
H4A C4B 1_555 1_555
C2B C3B 1_555 1_555
H3B C3B 1_555 1_555
H3A C3B 1_555 1_555
Cd1_2 N1B_2 1_555 1_555
Cd1_3 N1A_2 1_555 1_555
Cd1_4 N1C_2 1_555 1_555
N2A C2B 1_555 1_555
H2A C2B 1_555 1_555
H2B C2B 1_555 1_555
Cd1_5 N2A 1_555 1_555
H1A_2 N2A 1_555 1_555
H1B_2 N2A 1_555 1_555

#END
