
#######################################################################
#
#                 Cambridge Crystallographic Data Centre
#                                CCDC 
#
#######################################################################
#
# If this CIF has been generated from an entry in the Cambridge 
# Structural Database, then it will include bibliographic, chemical, 
# crystal, experimental, refinement or atomic coordinate data resulting 
# from the CCDC's data processing and validation procedures.
#
#######################################################################

data_DEZCER
_symmetry_cell_setting           monoclinic
_symmetry_space_group_name_H-M   'P 21/c'
_symmetry_Int_Tables_number      14
_space_group_name_Hall           '-P 2ybc'
loop_
_symmetry_equiv_pos_site_id
_symmetry_equiv_pos_as_xyz
1 x,y,z
2 -x,1/2+y,1/2-z
3 -x,-y,-z
4 x,1/2-y,1/2+z
_cell_length_a                   10.1273(1)
_cell_length_b                   15.3853(2)
_cell_length_c                   27.6549(3)
_cell_angle_alpha                90
_cell_angle_beta                 92.722(8)
_cell_angle_gamma                90
_cell_volume                     4304.09
loop_
_atom_site_label
_atom_site_type_symbol
_atom_site_fract_x
_atom_site_fract_y
_atom_site_fract_z
Cl1 Cl -0.17859(11) 0.24856(7) 0.51492(4)
O9 O -0.2460(3) 0.3226(2) 0.50469(16)
O10 O -0.2408(3) 0.17109(19) 0.50095(11)
O11 O -0.1755(5) 0.2435(3) 0.56836(14)
O12 O -0.0443(3) 0.2510(2) 0.50635(14)
Mn1 Mn 0.39829(4) 0.18929(3) 0.246939(15)
Mn2 Mn -0.03359(5) 0.01192(3) 0.249405(15)
O1 O 0.1672(2) -0.04378(15) 0.25281(8)
O2 O 0.2636(2) 0.08300(16) 0.24664(8)
O3 O 0.0807(2) 0.37437(15) 0.24486(7)
O4 O 0.2141(2) 0.26024(14) 0.24790(7)
O5 O 0.5866(3) 0.1318(2) 0.24701(9)
O6 O 0.7585(3) 0.04328(18) 0.24739(9)
O7 O 0.5087(2) 0.31496(15) 0.24915(7)
O8 O -0.0077(2) 0.15183(15) 0.24296(8)
N1 N 0.4029(3) 0.18915(19) 0.33024(9)
N2 N 0.3790(3) 0.30630(19) 0.66387(9)
N3 N -0.0243(3) 0.0203(2) 0.33075(9)
N4 N -0.0338(3) -0.00555(19) 0.16827(9)
C1 C 0.2646(3) 0.0045(2) 0.25090(10)
H1 H 0.3471 -0.0222 0.2530
C2 C 0.1882(3) 0.3391(2) 0.24748(10)
H2 H 0.2608 0.3762 0.2494
C3 C 0.6513(5) 0.0723(3) 0.24558(15)
H3 H 0.5943 0.0254 0.2409
C4 C 0.2919(4) 0.1940(3) 0.35444(12)
H4 H 0.2116 0.1873 0.3371
C5 C 0.5146(4) 0.1961(3) 0.35678(12)
H5 H 0.5935 0.1906 0.3412
C6 C 0.2896(4) 0.2085(3) 0.40341(12)
H6 H 0.2095 0.2118 0.4184
C7 C 0.5219(4) 0.2110(3) 0.40574(13)
H7 H 0.6039 0.2162 0.4221
C8 C 0.4087(4) 0.2181(3) 0.43041(12)
C9 C 0.4198(4) 0.2383(3) 0.48289(13)
H8 H 0.5050 0.2375 0.4969
C10 C 0.3297(5) 0.2564(3) 0.51103(14)
H9 H 0.2434 0.2573 0.4979
C11 C 0.3497(4) 0.2765(3) 0.56352(12)
C12 C 0.2421(4) 0.2830(3) 0.59180(13)
H10 H 0.1571 0.2783 0.5778
C13 C 0.4725(4) 0.2892(3) 0.58645(13)
H11 H 0.5482 0.2879 0.5687
C14 C 0.2604(4) 0.2963(3) 0.64072(12)
H12 H 0.1858 0.2986 0.6590
C15 C 0.4825(4) 0.3040(3) 0.63609(12)
H13 H 0.5661 0.3127 0.6507
C16 C -0.0544(4) 0.0917(3) 0.35480(11)
H14 H -0.0816 0.1403 0.3370
C17 C 0.0155(4) -0.0479(3) 0.35755(11)
H15 H 0.0388 -0.0984 0.3416
C18 C -0.0478(4) 0.0982(3) 0.40439(12)
H16 H -0.0703 0.1500 0.4193
C19 C 0.0241(4) -0.0478(3) 0.40703(12)
H17 H 0.0508 -0.0977 0.4238
C20 C -0.0072(4) 0.0266(3) 0.43209(11)
C21 C -0.0029(4) 0.0323(3) 0.48532(11)
H18 H -0.0044 0.0876 0.4988
C22 C -0.0012(4) -0.0315(3) 0.01587(10)
H19 H 0.0064 -0.0879 0.0041
C23 C -0.0147(3) -0.0218(2) 0.06803(11)
C24 C 0.0042(4) -0.0920(2) 0.09906(11)
H20 H 0.0232 -0.1466 0.0867
C25 C -0.0467(4) 0.0560(3) 0.08940(12)
H21 H -0.0623 0.1050 0.0703
C26 C -0.0052(4) -0.0811(2) 0.14759(11)
H22 H 0.0093 -0.1292 0.1675
C27 C -0.0557(4) 0.0614(2) 0.13827(11)
H23 H -0.0782 0.1146 0.1515
H34 H 0.0738(19) 0.181(2) 0.2431(11)
H35 H 0.513(3) 0.345(2) 0.2770(7)
H36 H 0.507(3) 0.346(2) 0.2219(7)
H37 H -0.071(2) 0.1933(19) 0.2453(12)
Mn1C Mn 0.39829(4) 0.31071(3) -0.253061(15)
Mn1C_2 Mn 0.39829(4) 0.31071(3) 0.746939(15)
Mn1A Mn -0.39829(4) -0.31071(3) 0.253061(15)
Mn1_2 Mn -0.60171(4) 0.18929(3) 0.246939(15)
Mn2A Mn 0.03359(5) 0.51192(3) 0.250595(15)
Mn2_2 Mn 0.96641(5) 0.01192(3) 0.249405(15)
Mn2B Mn 0.03359(5) -0.01192(3) 0.750595(15)
Mn2B_2 Mn 0.03359(5) -0.01192(3) -0.249405(15)
Mn2C Mn -0.03359(5) 0.48808(3) -0.250595(15)
O1C O 0.1672(2) 0.54378(15) -0.24719(8)
O1A O -0.1672(2) 0.45622(15) 0.24719(8)
O2C O 0.2636(2) 0.41700(16) -0.25336(8)
O3A O -0.0807(2) -0.12563(15) 0.25514(7)
O4A O -0.2141(2) -0.23976(14) 0.25210(7)
O4C O 0.2141(2) 0.23976(14) -0.25210(7)
O5_2 O -0.4134(3) 0.1318(2) 0.24701(9)
O5C O 0.5866(3) 0.3682(2) -0.25299(9)
O6_2 O -0.2415(3) 0.04328(18) 0.24739(9)
O6A O 0.2415(3) 0.54328(18) 0.25261(9)
O7C O 0.5087(2) 0.18504(15) -0.25085(7)
O8A O 0.0077(2) 0.65183(15) 0.25704(8)
N1C N 0.4029(3) 0.31085(19) -0.16976(9)
N2C N 0.3790(3) 0.19370(19) 0.16387(9)
N2_2 N 0.3790(3) 0.30630(19) -0.33613(9)
N3B N 0.0243(3) -0.0203(2) 0.66925(9)
N3A N 0.0243(3) 0.5203(2) 0.16925(9)
N4B N 0.0338(3) 0.00555(19) -0.16827(9)
N4A N 0.0338(3) 0.49445(19) 0.33173(9)
C1C C 0.2646(3) 0.4955(2) -0.24910(10)
H1C H 0.3471 0.5222 -0.2470
C2A C -0.1882(3) -0.1609(2) 0.25252(10)
H2A H -0.2608 -0.1238 0.2506
C3_2 C -0.3487(5) 0.0723(3) 0.24558(15)
H3_2 H -0.4057 0.0254 0.2409
C4C C 0.2919(4) 0.3060(3) -0.14556(12)
H4C H 0.2116 0.3127 -0.1629
C5C C 0.5146(4) 0.3039(3) -0.14322(12)
H5C H 0.5935 0.3094 -0.1588
C6C C 0.2896(4) 0.2915(3) -0.09659(12)
H6C H 0.2095 0.2882 -0.0816
C7C C 0.5219(4) 0.2890(3) -0.09426(13)
H7C H 0.6039 0.2838 -0.0779
C8C C 0.4087(4) 0.2819(3) -0.06959(12)
C9C C 0.4198(4) 0.2617(3) -0.01711(13)
H8C H 0.5050 0.2625 -0.0031
C10C C 0.3297(5) 0.2436(3) 0.01103(14)
H9C H 0.2434 0.2427 -0.0021
C11C C 0.3497(4) 0.2235(3) 0.06352(12)
C12C C 0.2421(4) 0.2170(3) 0.09180(13)
H10C H 0.1571 0.2217 0.0778
C13C C 0.4725(4) 0.2108(3) 0.08645(13)
H11C H 0.5482 0.2121 0.0687
C14C C 0.2604(4) 0.2037(3) 0.14072(12)
H12C H 0.1858 0.2014 0.1590
C15C C 0.4825(4) 0.1960(3) 0.13609(12)
H13C H 0.5661 0.1873 0.1507
C16B C 0.0544(4) -0.0917(3) 0.64520(11)
H14B H 0.0816 -0.1403 0.6630
C17B C -0.0155(4) 0.0479(3) 0.64245(11)
H15B H -0.0388 0.0984 0.6584
C18B C 0.0478(4) -0.0982(3) 0.59561(12)
H16B H 0.0703 -0.1500 0.5807
C19B C -0.0241(4) 0.0478(3) 0.59297(12)
H17B H -0.0508 0.0977 0.5762
C20B C 0.0072(4) -0.0266(3) 0.56791(11)
C21B C 0.0029(4) -0.0323(3) 0.51468(11)
H18B H 0.0044 -0.0876 0.5012
C22B C 0.0012(4) 0.0315(3) -0.01587(10)
H19B H -0.0064 0.0879 -0.0041
C23B C 0.0147(3) 0.0218(2) -0.06803(11)
C24B C -0.0042(4) 0.0920(2) -0.09906(11)
H20B H -0.0232 0.1466 -0.0867
C25B C 0.0467(4) -0.0560(3) -0.08940(12)
H21B H 0.0623 -0.1050 -0.0703
C26B C 0.0052(4) 0.0811(2) -0.14759(11)
H22B H -0.0093 0.1292 -0.1675
C27B C 0.0557(4) -0.0614(2) -0.13827(11)
H23B H 0.0782 -0.1146 -0.1515
H34A H -0.0738(19) 0.681(2) 0.2569(11)
H35C H 0.513(3) 0.155(2) -0.2230(7)
H36C H 0.507(3) 0.154(2) -0.2781(7)
H37A H 0.071(2) 0.6933(19) 0.2547(12)
N5 N 0.5080(3) 0.4131(2) 0.33596(10)
C28 C 0.4029(5) 0.4321(3) 0.36002(14)
H24 H 0.3210 0.4274 0.3436
C29 C 0.6213(5) 0.4223(3) 0.36181(15)
H25 H 0.6988 0.4096 0.3465
C30 C 0.4045(5) 0.4586(3) 0.40816(15)
H26 H 0.3261 0.4708 0.4230
C31 C 0.6335(5) 0.4489(3) 0.40929(14)
H27 H 0.7167 0.4549 0.4246
C32 C 0.5244(5) 0.4662(3) 0.43335(13)
C33 C 0.5442(6) 0.4916(3) 0.48638(17)
H28 H 0.6307 0.4946 0.4992
N5B N 0.4920(3) 0.5869(2) 0.66404(10)
C28B C 0.5971(5) 0.5679(3) 0.63998(14)
H24B H 0.6790 0.5726 0.6564
C29B C 0.3787(5) 0.5777(3) 0.63819(15)
H25B H 0.3012 0.5904 0.6535
C30B C 0.5955(5) 0.5414(3) 0.59184(15)
H26B H 0.6739 0.5292 0.5770
C31B C 0.3665(5) 0.5511(3) 0.59071(14)
H27B H 0.2833 0.5451 0.5754
C32B C 0.4756(5) 0.5338(3) 0.56665(13)
C33B C 0.4558(6) 0.5084(3) 0.51362(17)
H28B H 0.3693 0.5054 0.5008
N6 N 0.4931(4) 0.4123(2) 0.16330(10)
C34 C 0.5973(5) 0.4161(3) 0.13582(14)
H29 H 0.6787 0.3984 0.1494
C35 C 0.3829(5) 0.4381(3) 0.14201(15)
H30 H 0.3075 0.4373 0.1600
C36 C 0.5918(5) 0.4445(3) 0.08839(14)
H31 H 0.6683 0.4463 0.0711
C37 C 0.3693(5) 0.4671(3) 0.09426(15)
H32 H 0.2869 0.4843 0.0814
C38 C 0.4742(4) 0.4700(3) 0.06691(13)
C39 C 0.4560(5) 0.4997(3) 0.01545(13)
H33 H 0.3724 0.5195 0.0053
N6B N 0.5069(4) 0.5877(2) -0.16330(10)
C34B C 0.4027(5) 0.5839(3) -0.13582(14)
H29B H 0.3213 0.6016 -0.1494
C35B C 0.6171(5) 0.5619(3) -0.14201(15)
H30B H 0.6925 0.5627 -0.1600
C36B C 0.4082(5) 0.5555(3) -0.08839(14)
H31B H 0.3317 0.5537 -0.0711
C37B C 0.6307(5) 0.5329(3) -0.09426(15)
H32B H 0.7131 0.5157 -0.0814
C38B C 0.5258(4) 0.5300(3) -0.06691(13)
C39B C 0.5440(5) 0.5003(3) -0.01545(13)
H33B H 0.6276 0.4805 -0.0053
O13 O -0.1917(3) 0.2725(3) 0.26136(18)
H38 H -0.204(3) 0.274(3) 0.2254(5)
H39 H -0.2795(19) 0.268(2) 0.2704(10)
loop_
_geom_bond_atom_site_label_1
_geom_bond_atom_site_label_2
_geom_bond_site_symmetry_1
_geom_bond_site_symmetry_2
Cl1 O9 1_555 1_555
Mn1 O2 1_555 1_555
Mn2 O1 1_555 1_555
O1 C1 1_555 1_555
O2 C1 1_555 1_555
O3 C2 1_555 1_555
O4 Mn1 1_555 1_555
O5 Mn1 1_555 1_555
O6 C3 1_555 1_555
O7 Mn1 1_555 1_555
O8 Mn2 1_555 1_555
O10 Cl1 1_555 1_555
O11 Cl1 1_555 1_555
O12 Cl1 1_555 1_555
N1 Mn1 1_555 1_555
N2 C14 1_555 1_555
N3 Mn2 1_555 1_555
N4 Mn2 1_555 1_555
N5 C28 1_555 1_555
N6 C34 1_555 1_555
C1 H1 1_555 1_555
C2 O4 1_555 1_555
H2 C2 1_555 1_555
C3 O5 1_555 1_555
H3 C3 1_555 1_555
C4 N1 1_555 1_555
H4 C4 1_555 1_555
C5 N1 1_555 1_555
H5 C5 1_555 1_555
C6 C4 1_555 1_555
H6 C6 1_555 1_555
C7 C5 1_555 1_555
H7 C7 1_555 1_555
C8 C6 1_555 1_555
C9 C8 1_555 1_555
H8 C9 1_555 1_555
C10 C9 1_555 1_555
H9 C10 1_555 1_555
C11 C10 1_555 1_555
C12 C11 1_555 1_555
H10 C12 1_555 1_555
C13 C11 1_555 1_555
H11 C13 1_555 1_555
C14 C12 1_555 1_555
H12 C14 1_555 1_555
C15 N2 1_555 1_555
H13 C15 1_555 1_555
C16 N3 1_555 1_555
H14 C16 1_555 1_555
C17 N3 1_555 1_555
H15 C17 1_555 1_555
C18 C16 1_555 1_555
H16 C18 1_555 1_555
C19 C17 1_555 1_555
H17 C19 1_555 1_555
C20 C18 1_555 1_555
C21 C20 1_555 1_555
H18 C21 1_555 1_555
C22 H19 1_555 1_555
C23 C22 1_555 1_555
C24 C23 1_555 1_555
H20 C24 1_555 1_555
C25 C23 1_555 1_555
H21 C25 1_555 1_555
C26 N4 1_555 1_555
H22 C26 1_555 1_555
C27 N4 1_555 1_555
H23 C27 1_555 1_555
C28 H24 1_555 1_555
C29 N5 1_555 1_555
H25 C29 1_555 1_555
C30 C28 1_555 1_555
H26 C30 1_555 1_555
C31 C29 1_555 1_555
H27 C31 1_555 1_555
C32 C30 1_555 1_555
C33 C32 1_555 1_555
H28 C33 1_555 1_555
C34 H29 1_555 1_555
C35 N6 1_555 1_555
H30 C35 1_555 1_555
C36 C34 1_555 1_555
H31 C36 1_555 1_555
C37 C35 1_555 1_555
H32 C37 1_555 1_555
C38 C36 1_555 1_555
C39 C38 1_555 1_555
H33 C39 1_555 1_555
H34 O8 1_555 1_555
H35 O7 1_555 1_555
H36 O7 1_555 1_555
H37 O8 1_555 1_555
O13 H38 1_555 1_555
H39 O13 1_555 1_555
Mn1C O2C 1_555 1_555
Mn1C_2 N2 1_555 1_555
Mn1A O4A 1_555 1_555
Mn1_2 O5_2 1_555 1_555
Mn2A O3 1_555 1_555
Mn2_2 O6 1_555 1_555
Mn2B N3B 1_555 1_555
Mn2B_2 N4B 1_555 1_555
Mn2C O1C 1_555 1_555
O1C C1C 1_555 1_555
O1A Mn2A 1_555 1_555
O2C C1C 1_555 1_555
O3A Mn2 1_555 1_555
O4A C2A 1_555 1_555
O4C Mn1C 1_555 1_555
O5_2 C3_2 1_555 1_555
O5C Mn1C 1_555 1_555
O6_2 Mn2 1_555 1_555
O6A Mn2A 1_555 1_555
O7C Mn1C 1_555 1_555
O8A Mn2A 1_555 1_555
N1C Mn1C 1_555 1_555
N2C Mn1 1_555 1_555
N2_2 Mn1C 1_555 1_555
N3B C16B 1_555 1_555
N3A Mn2A 1_555 1_555
N4B C26B 1_555 1_555
N4A Mn2A 1_555 1_555
N5B C28B 1_555 1_555
N6B C34B 1_555 1_555
C1C H1C 1_555 1_555
C2A O3A 1_555 1_555
H2A C2A 1_555 1_555
C3_2 O6_2 1_555 1_555
H3_2 C3_2 1_555 1_555
C4C N1C 1_555 1_555
H4C C4C 1_555 1_555
C5C N1C 1_555 1_555
H5C C5C 1_555 1_555
C6C C4C 1_555 1_555
H6C C6C 1_555 1_555
C7C C5C 1_555 1_555
H7C C7C 1_555 1_555
C8C C6C 1_555 1_555
C9C C8C 1_555 1_555
H8C C9C 1_555 1_555
C10C C9C 1_555 1_555
H9C C10C 1_555 1_555
C11C C10C 1_555 1_555
C12C C11C 1_555 1_555
H10C C12C 1_555 1_555
C13C C11C 1_555 1_555
H11C C13C 1_555 1_555
C14C N2C 1_555 1_555
H12C C14C 1_555 1_555
C15C N2C 1_555 1_555
H13C C15C 1_555 1_555
C16B H14B 1_555 1_555
C17B N3B 1_555 1_555
H15B C17B 1_555 1_555
C18B C16B 1_555 1_555
H16B C18B 1_555 1_555
C19B C17B 1_555 1_555
H17B C19B 1_555 1_555
C20B C18B 1_555 1_555
C21B C21 1_555 1_555
H18B C21B 1_555 1_555
C22B C22 1_555 1_555
H19B C22B 1_555 1_555
C23B C22B 1_555 1_555
C24B C23B 1_555 1_555
H20B C24B 1_555 1_555
C25B C23B 1_555 1_555
H21B C25B 1_555 1_555
C26B C24B 1_555 1_555
H22B C26B 1_555 1_555
C27B N4B 1_555 1_555
H23B C27B 1_555 1_555
C28B H24B 1_555 1_555
C29B N5B 1_555 1_555
H25B C29B 1_555 1_555
C30B C28B 1_555 1_555
H26B C30B 1_555 1_555
C31B C29B 1_555 1_555
H27B C31B 1_555 1_555
C32B C30B 1_555 1_555
C33B C33 1_555 1_555
H28B C33B 1_555 1_555
C34B H29B 1_555 1_555
C35B N6B 1_555 1_555
H30B C35B 1_555 1_555
C36B C34B 1_555 1_555
H31B C36B 1_555 1_555
C37B C35B 1_555 1_555
H32B C37B 1_555 1_555
C38B C36B 1_555 1_555
C39B C39 1_555 1_555
H33B C39B 1_555 1_555
H34A O8A 1_555 1_555
H35C O7C 1_555 1_555
H36C O7C 1_555 1_555
H37A O8A 1_555 1_555
C7 C8 1_555 1_555
C13 C15 1_555 1_555
C19 C20 1_555 1_555
C24 C26 1_555 1_555
C25 C27 1_555 1_555
C31 C32 1_555 1_555
C37 C38 1_555 1_555
C7C C8C 1_555 1_555
C12C C14C 1_555 1_555
C13C C15C 1_555 1_555
C19B C20B 1_555 1_555
C20B C21B 1_555 1_555
C25B C27B 1_555 1_555
C31B C32B 1_555 1_555
C32B C33B 1_555 1_555
C37B C38B 1_555 1_555
C38B C39B 1_555 1_555

#END
