
#######################################################################
#
#                 Cambridge Crystallographic Data Centre
#                                CCDC 
#
#######################################################################
#
# If this CIF has been generated from an entry in the Cambridge 
# Structural Database, then it will include bibliographic, chemical, 
# crystal, experimental, refinement or atomic coordinate data resulting 
# from the CCDC's data processing and validation procedures.
#
#######################################################################

data_DIBXIX
_symmetry_cell_setting           triclinic
_symmetry_space_group_name_H-M   'P -1'
_symmetry_Int_Tables_number      2
_space_group_name_Hall           '-P 1'
loop_
_symmetry_equiv_pos_site_id
_symmetry_equiv_pos_as_xyz
1 x,y,z
2 -x,-y,-z
_cell_length_a                   10.7491(16)
_cell_length_b                   10.7585(16)
_cell_length_c                   11.8901(18)
_cell_angle_alpha                70.146(2)
_cell_angle_beta                 78.016(2)
_cell_angle_gamma                61.0300(10)
_cell_volume                     1129.91
loop_
_atom_site_label
_atom_site_type_symbol
_atom_site_fract_x
_atom_site_fract_y
_atom_site_fract_z
C1 C 0.8221(5) 0.0225(5) 0.7168(4)
C2 C 0.8270(5) 0.0116(5) 0.8345(4)
C3 C 0.7177(5) 0.0345(5) 0.6407(5)
C4 C 0.7350(5) -0.0019(5) 0.9453(4)
C5 C 0.0589(7) 0.6868(6) 0.5390(6)
H1 H -0.0045 0.7293 0.4787
C6 C 0.1158(7) 0.5365(6) 0.5901(6)
H2 H 0.0915 0.4794 0.5638
C7 C 0.2088(6) 0.4706(6) 0.6801(5)
C8 C 0.2415(8) 0.5613(7) 0.7139(7)
H3 H 0.3035 0.5218 0.7748
C9 C 0.1823(8) 0.7100(6) 0.6575(6)
H4 H 0.2076 0.7691 0.6801
C10 C 0.2758(5) 0.3071(5) 0.7408(5)
C11 C 0.9226(6) -0.6827(6) 0.8713(5)
H5 H 1.0023 -0.7217 0.8219
C12 C 0.8438(6) -0.5314(6) 0.8454(5)
H6 H 0.8710 -0.4699 0.7806
C13 C 0.7230(5) -0.4716(5) 0.9173(5)
C14 C 0.6891(6) -0.5688(6) 1.0127(5)
H7 H 0.6088 -0.5332 1.0626
C15 C 0.7741(6) -0.7180(6) 1.0336(5)
H8 H 0.7506 -0.7820 1.0989
C16 C 0.6305(6) -0.3070(6) 0.8913(5)
Cu1 Cu 1.0000 0.0000 1.0000
Cu2 Cu 1.0000 0.0000 0.5000
Eu1 Eu 0.45094(2) 0.00069(2) 0.83559(2)
N1 N 0.9445(4) 0.0240(4) 0.6625(4)
N2 N 1.0225(4) 0.0180(4) 0.7389(3)
N3 N 0.9508(4) 0.0108(4) 0.8444(3)
N4 N 0.0906(5) 0.7739(4) 0.5721(4)
N5 N 0.8896(4) -0.7753(4) 0.9638(4)
O1 O 0.7671(4) 0.0085(4) 0.5419(3)
O2 O 0.5894(4) 0.0757(4) 0.6795(3)
O3 O 0.6189(3) -0.0021(4) 0.9429(3)
O4 O 0.7767(4) -0.0129(4) 1.0411(3)
O5 O 0.2615(4) 0.2203(4) 0.7015(4)
O6 O 0.3480(5) 0.2606(4) 0.8300(4)
O7 O 0.5152(4) -0.2591(4) 0.9517(3)
O8 O 0.6687(4) -0.2219(4) 0.8077(4)
O9 O 0.3680(5) -0.0848(5) 0.7159(5)
H9 H 0.288(7) -0.039(8) 0.687(7)
H10 H 0.408(8) -0.150(7) 0.699(8)
C1A C 0.1779(5) -0.0225(5) 1.2832(4)
C2A C 0.1730(5) -0.0116(5) 1.1655(4)
C3A C 0.2823(5) -0.0345(5) 1.3593(5)
C4A C 0.2650(5) 0.0019(5) 1.0547(4)
C5A C 0.9411(7) -0.6868(6) 1.4610(6)
H1A H 1.0045 -0.7293 1.5213
C6A C 0.8842(7) -0.5365(6) 1.4099(6)
H2A H 0.9085 -0.4794 1.4362
C7A C 0.7912(6) -0.4706(6) 1.3199(5)
C8A C 0.7585(8) -0.5613(7) 1.2861(7)
H3A H 0.6965 -0.5218 1.2252
C9A C 0.8177(8) -0.7100(6) 1.3425(6)
H4A H 0.7924 -0.7691 1.3199
C10A C 0.7242(5) -0.3071(5) 1.2592(5)
C11A C 0.0774(6) 0.6827(6) 1.1287(5)
H5A H -0.0023 0.7217 1.1781
C12A C 0.1562(6) 0.5314(6) 1.1546(5)
H6A H 0.1290 0.4699 1.2194
C13A C 0.2770(5) 0.4716(5) 1.0827(5)
C14A C 0.3109(6) 0.5688(6) 0.9873(5)
H7A H 0.3912 0.5332 0.9374
C15A C 0.2259(6) 0.7180(6) 0.9664(5)
H8A H 0.2494 0.7820 0.9011
C16A C 0.3695(6) 0.3070(6) 1.1087(5)
Eu1A Eu 0.54906(2) -0.00069(2) 1.16441(2)
N1A N 0.0555(4) -0.0240(4) 1.3375(4)
N2A N -0.0225(4) -0.0180(4) 1.2611(3)
N3A N 0.0492(4) -0.0108(4) 1.1556(3)
N4A N 0.9094(5) -0.7739(4) 1.4279(4)
N5A N 0.1104(4) 0.7753(4) 1.0362(4)
O1A O 0.2329(4) -0.0085(4) 1.4581(3)
O2A O 0.4106(4) -0.0757(4) 1.3205(3)
O3A O 0.3811(3) 0.0021(4) 1.0571(3)
O4A O 0.2233(4) 0.0129(4) 0.9589(3)
O5A O 0.7385(4) -0.2203(4) 1.2985(4)
O6A O 0.6520(5) -0.2606(4) 1.1700(4)
O7A O 0.4848(4) 0.2591(4) 1.0483(3)
O8A O 0.3313(4) 0.2219(4) 1.1923(4)
O9A O 0.6320(5) 0.0848(5) 1.2841(5)
H9A H 0.712(7) 0.039(8) 1.313(7)
H10A H 0.592(8) 0.150(7) 1.301(8)
Cu1_2 Cu 0.0000 0.0000 1.0000
Cu1_3 Cu 0.0000 1.0000 1.0000
Cu1_4 Cu 1.0000 -1.0000 1.0000
Cu2_2 Cu 0.0000 0.0000 1.5000
Cu2_3 Cu 0.0000 1.0000 0.5000
Cu2_4 Cu 1.0000 -1.0000 1.5000
N1A_2 N 1.0555(4) -0.0240(4) 0.3375(4)
N3A_2 N 1.0492(4) -0.0108(4) 1.1556(3)
N4_2 N 1.0906(5) -0.2261(4) 0.5721(4)
N4A_2 N 0.9094(5) 0.2261(4) 0.4279(4)
N5_2 N 0.8896(4) 0.2247(4) 0.9638(4)
N5A_2 N 1.1104(4) -0.2247(4) 1.0362(4)
O1A_2 O 1.2329(4) -0.0085(4) 0.4581(3)
O4A_2 O 1.2233(4) 0.0129(4) 0.9589(3)
O10 O 0.4112(7) 0.6502(8) 0.1988(7)
H11 H 0.432(11) 0.635(13) 0.267(3)
H12 H 0.471(9) 0.675(13) 0.156(7)
O11 O 0.4765(11) 0.3507(9) 0.3326(7)
H13 H 0.479(17) 0.285(9) 0.395(6)
H14 H 0.448(15) 0.424(8) 0.357(10)
O12 O 0.2697(10) 0.2653(8) 0.4505(8)
H15 H 0.352(4) 0.199(9) 0.462(13)
H16 H 0.223(10) 0.219(11) 0.474(12)
loop_
_geom_bond_atom_site_label_1
_geom_bond_atom_site_label_2
_geom_bond_site_symmetry_1
_geom_bond_site_symmetry_2
C1 C2 1_555 1_555
C2 C4 1_555 1_555
C3 C1 1_555 1_555
C4 O3 1_555 1_555
C5 H1 1_555 1_555
C6 C5 1_555 1_555
H2 C6 1_555 1_555
C7 C6 1_555 1_555
C8 C7 1_555 1_555
H3 C8 1_555 1_555
C9 C8 1_555 1_555
H4 C9 1_555 1_555
C10 C7 1_555 1_555
C11 H5 1_555 1_555
C12 C11 1_555 1_555
H6 C12 1_555 1_555
C13 C12 1_555 1_555
C14 C13 1_555 1_555
H7 C14 1_555 1_555
C15 C14 1_555 1_555
H8 C15 1_555 1_555
C16 C13 1_555 1_555
Cu1 N3 1_555 1_555
Cu2 N1 1_555 1_555
Eu1 O2 1_555 1_555
N1 C1 1_555 1_555
N2 N1 1_555 1_555
N3 C2 1_555 1_555
N4 C5 1_555 1_555
N5 C11 1_555 1_555
O1 C3 1_555 1_555
O2 C3 1_555 1_555
O3 Eu1 1_555 1_555
O4 C4 1_555 1_555
O5 C10 1_555 1_555
O6 C10 1_555 1_555
O7 C16 1_555 1_555
O8 C16 1_555 1_555
O9 Eu1 1_555 1_555
H9 O9 1_555 1_555
H10 O9 1_555 1_555
O10 H11 1_555 1_555
H12 O10 1_555 1_555
O11 H13 1_555 1_555
H14 O11 1_555 1_555
O12 H15 1_555 1_555
H16 O12 1_555 1_555
C1A C2A 1_555 1_555
C2A C4A 1_555 1_555
C3A C1A 1_555 1_555
C4A O3A 1_555 1_555
C5A H1A 1_555 1_555
C6A C5A 1_555 1_555
H2A C6A 1_555 1_555
C7A C6A 1_555 1_555
C8A C7A 1_555 1_555
H3A C8A 1_555 1_555
C9A C8A 1_555 1_555
H4A C9A 1_555 1_555
C10A C7A 1_555 1_555
C11A H5A 1_555 1_555
C12A C11A 1_555 1_555
H6A C12A 1_555 1_555
C13A C12A 1_555 1_555
C14A C13A 1_555 1_555
H7A C14A 1_555 1_555
C15A C14A 1_555 1_555
H8A C15A 1_555 1_555
C16A C13A 1_555 1_555
Eu1A O3 1_555 1_555
N1A C1A 1_555 1_555
N2A N1A 1_555 1_555
N3A C2A 1_555 1_555
N4A C5A 1_555 1_555
N5A C11A 1_555 1_555
O1A C3A 1_555 1_555
O2A C3A 1_555 1_555
O3A Eu1 1_555 1_555
O4A Eu1 1_555 1_555
O5A C10A 1_555 1_555
O6A C10A 1_555 1_555
O7A C16A 1_555 1_555
O8A C16A 1_555 1_555
O9A Eu1A 1_555 1_555
H9A O9A 1_555 1_555
H10A O9A 1_555 1_555
Cu1_2 N3A 1_555 1_555
Cu1_3 N5A 1_555 1_555
Cu1_4 N5 1_555 1_555
Cu2_2 N1A 1_555 1_555
Cu2_3 N4 1_555 1_555
Cu2_4 N4A 1_555 1_555
N1A_2 Cu2 1_555 1_555
N3A_2 Cu1 1_555 1_555
N4_2 Cu2 1_555 1_555
N4A_2 Cu2 1_555 1_555
N5_2 Cu1 1_555 1_555
N5A_2 Cu1 1_555 1_555
O1A_2 Cu2 1_555 1_555
O4A_2 Cu1 1_555 1_555
C9 N4 1_555 1_555
C15 N5 1_555 1_555
Cu1 O4 1_555 1_555
Cu2 O1 1_555 1_555
Eu1 O5 1_555 1_555
Eu1 O6 1_555 1_555
Eu1 O7 1_555 1_555
Eu1 O8 1_555 1_555
N2 N3 1_555 1_555
O4 Eu1A 1_555 1_555
C4A O4A 1_555 1_555
C9A N4A 1_555 1_555
C15A N5A 1_555 1_555
Eu1A O2A 1_555 1_555
Eu1A O3A 1_555 1_555
Eu1A O5A 1_555 1_555
Eu1A O6A 1_555 1_555
Eu1A O7A 1_555 1_555
Eu1A O8A 1_555 1_555
N2A N3A 1_555 1_555
O1A Cu2_2 1_555 1_555
O4A Cu1_2 1_555 1_555

#END
