
#######################################################################
#
#                 Cambridge Crystallographic Data Centre
#                                CCDC 
#
#######################################################################
#
# If this CIF has been generated from an entry in the Cambridge 
# Structural Database, then it will include bibliographic, chemical, 
# crystal, experimental, refinement or atomic coordinate data resulting 
# from the CCDC's data processing and validation procedures.
#
#######################################################################

data_DIDDOK
_symmetry_cell_setting           monoclinic
_symmetry_space_group_name_H-M   'C 2/c'
_symmetry_Int_Tables_number      15
_space_group_name_Hall           '-C 2yn'
loop_
_symmetry_equiv_pos_site_id
_symmetry_equiv_pos_as_xyz
1 x,y,z
2 1/2+x,1/2+y,z
3 -x,y,1/2-z
4 1/2-x,1/2+y,1/2-z
5 -x,-y,-z
6 1/2-x,1/2-y,-z
7 x,-y,1/2+z
8 1/2+x,1/2-y,1/2+z
_cell_length_a                   27.21(2)
_cell_length_b                   17.77(1)
_cell_length_c                   22.99(2)
_cell_angle_alpha                90
_cell_angle_beta                 110.29(1)
_cell_angle_gamma                90
_cell_volume                     10426.4
loop_
_atom_site_label
_atom_site_type_symbol
_atom_site_fract_x
_atom_site_fract_y
_atom_site_fract_z
Zn1 Zn 0.20481(3) 0.19862(4) 0.48728(4)
O1 O 0.1858(2) 0.2909(3) 0.5287(2)
O2 O 0.2530(2) 0.3692(3) 0.5489(2)
O3 O 0.1061(2) 0.5486(4) 0.6620(3)
O4 O 0.1783(2) 0.7465(3) 0.9062(2)
O5 O 0.2459(2) 0.6673(3) 0.9276(2)
N1 N 0.1421(2) 0.1362(3) 0.4847(3)
C1 C 0.2084(3) 0.3513(4) 0.5497(3)
C2 C 0.1826(3) 0.4052(4) 0.5783(3)
C3 C 0.1342(3) 0.3877(5) 0.5860(4)
C4 C 0.1101(3) 0.4326(5) 0.6156(4)
C5 C 0.1325(4) 0.5007(5) 0.6376(4)
C6 C 0.1808(4) 0.5211(5) 0.6322(5)
C7 C 0.2054(3) 0.4719(5) 0.6021(4)
C8 C 0.1328(3) 0.5831(5) 0.7184(4)
C9 C 0.1107(3) 0.6458(5) 0.7311(4)
C10 C 0.1325(3) 0.6816(4) 0.7896(4)
C11 C 0.1768(3) 0.6526(4) 0.8313(3)
C12 C 0.1993(3) 0.5891(5) 0.8187(4)
C13 C 0.1761(3) 0.5534(5) 0.7615(4)
C14 C 0.2029(3) 0.6924(4) 0.8931(3)
C15 C 0.0962(4) 0.1419(6) 0.4419(5)
C16 C 0.0518(4) 0.1081(7) 0.4396(6)
C17 C 0.0534(4) 0.0567(6) 0.4836(5)
C18 C 0.1008(5) 0.0452(9) 0.5281(6)
C19 C 0.1455(4) 0.0815(6) 0.5261(5)
C20 C 0.0035(4) 0.0144(6) 0.4804(5)
H1 H 0.1177 0.3415 0.5693
H2 H 0.0784 0.4173 0.6208
H3 H 0.1968 0.5677 0.6486
H4 H 0.2379 0.4855 0.5985
H5 H 0.0802 0.6662 0.7008
H6 H 0.1165 0.7250 0.7993
H7 H 0.2304 0.5693 0.8484
H8 H 0.1907 0.5081 0.7528
H9 H 0.0940 0.1741 0.4080
H10 H 0.0196 0.1199 0.4077
H11 H 0.1036 0.0117 0.5613
H12 H 0.1789 0.0673 0.5544
H13 H -0.0239 0.0128 0.4412
Zn1E Zn 0.29519(3) 0.30138(4) 0.51272(4)
Zn1F Zn 0.20481(3) 0.80138(4) 0.98728(4)
Zn1C Zn 0.29519(3) 0.69862(4) 1.01272(4)
Zn1D Zn -0.20481(3) -0.19862(4) 0.51272(4)
Zn1C_2 Zn 0.29519(3) -0.30138(4) 0.01272(4)
Zn1F_2 Zn 0.20481(3) -0.19862(4) -0.01272(4)
O1E O 0.3142(2) 0.2091(3) 0.4713(2)
O2E O 0.2470(2) 0.1308(3) 0.4511(2)
O3E O 0.3939(2) -0.0486(4) 0.3380(3)
O4E O 0.3217(2) -0.2465(3) 0.0938(2)
O4F O 0.1783(2) 0.2535(3) 0.4062(2)
O4C O 0.3217(2) 0.2465(3) 0.5938(2)
O5E O 0.2541(2) -0.1673(3) 0.0724(2)
O5C O 0.2541(2) 0.1673(3) 0.5724(2)
O5F O 0.2459(2) 0.3327(3) 0.4276(2)
N1D N -0.1421(2) -0.1362(3) 0.5153(3)
N1E N 0.3579(2) 0.3638(3) 0.5153(3)
C1E C 0.2916(3) 0.1487(4) 0.4503(3)
C2E C 0.3174(3) 0.0948(4) 0.4217(3)
C3E C 0.3658(3) 0.1123(5) 0.4140(4)
C4E C 0.3899(3) 0.0674(5) 0.3844(4)
C5E C 0.3675(4) -0.0007(5) 0.3624(4)
C6E C 0.3192(4) -0.0211(5) 0.3678(5)
C7E C 0.2946(3) 0.0281(5) 0.3979(4)
C8E C 0.3672(3) -0.0831(5) 0.2816(4)
C9E C 0.3893(3) -0.1458(5) 0.2689(4)
C10E C 0.3675(3) -0.1816(4) 0.2104(4)
C11E C 0.3232(3) -0.1526(4) 0.1687(3)
C12E C 0.3007(3) -0.0891(5) 0.1813(4)
C13E C 0.3239(3) -0.0534(5) 0.2385(4)
C14E C 0.2971(3) -0.1924(4) 0.1069(3)
C15D C -0.0962(4) -0.1419(6) 0.5581(5)
C16D C -0.0518(4) -0.1081(7) 0.5604(6)
C17D C -0.0534(4) -0.0567(6) 0.5164(5)
C18D C -0.1008(5) -0.0452(9) 0.4719(6)
C19D C -0.1455(4) -0.0815(6) 0.4739(5)
C20D C -0.0035(4) -0.0144(6) 0.5196(5)
H1E H 0.3823 0.1585 0.4307
H2E H 0.4216 0.0827 0.3792
H3E H 0.3032 -0.0677 0.3514
H4E H 0.2621 0.0145 0.4015
H5E H 0.4198 -0.1662 0.2992
H6E H 0.3835 -0.2250 0.2007
H7E H 0.2696 -0.0693 0.1516
H8E H 0.3093 -0.0081 0.2472
H9D H -0.0940 -0.1741 0.5920
H10D H -0.0196 -0.1199 0.5923
H11D H -0.1036 -0.0117 0.4387
H12D H -0.1789 -0.0673 0.4456
H13D H 0.0239 -0.0128 0.5588
O6 O 0.0253(7) 0.3187(9) 0.3810(9)
N2 N 0.0641(6) 0.4410(9) 0.4201(7)
C21 C 0.0666(6) 0.3656(9) 0.3950(7)
C22 C 0.1117(8) 0.494(1) 0.436(1)
C23 C 0.0138(8) 0.467(1) 0.431(1)
H14 H 0.1026(7) 0.347(1) 0.388(1)
H15 H 0.1436(8) 0.466(2) 0.426(2)
H16 H 0.101(1) 0.546(1) 0.408(1)
H17 H 0.1249(10) 0.508(1) 0.486(1)
H18 H -0.0157(7) 0.422(1) 0.417(1)
H19 H 0.023(1) 0.480(1) 0.480(1)
H20 H -0.0016(9) 0.518(1) 0.403(2)
O7 O 0.263(2) 0.576(3) 0.468(2)
O8 O 0.0056(6) 0.216(1) 0.2941(8)
loop_
_geom_bond_atom_site_label_1
_geom_bond_atom_site_label_2
_geom_bond_site_symmetry_1
_geom_bond_site_symmetry_2
Zn1 O1 1_555 1_555
O1 C1 1_555 1_555
O2 C1 1_555 1_555
O3 C5 1_555 1_555
O4 C14 1_555 1_555
O5 C14 1_555 1_555
O6 C21 1_555 1_555
N1 Zn1 1_555 1_555
N2 C21 1_555 1_555
C1 C2 1_555 1_555
C2 C3 1_555 1_555
C3 C4 1_555 1_555
C4 C5 1_555 1_555
C5 C6 1_555 1_555
C6 C7 1_555 1_555
C7 C2 1_555 1_555
C8 O3 1_555 1_555
C9 C8 1_555 1_555
C10 C9 1_555 1_555
C11 C10 1_555 1_555
C12 C11 1_555 1_555
C13 C8 1_555 1_555
C14 C11 1_555 1_555
C15 N1 1_555 1_555
C16 C15 1_555 1_555
C17 C16 1_555 1_555
C18 C17 1_555 1_555
C19 N1 1_555 1_555
C20 C17 1_555 1_555
C21 H14 1_555 1_555
C22 N2 1_555 1_555
C23 N2 1_555 1_555
H1 C3 1_555 1_555
H2 C4 1_555 1_555
H3 C6 1_555 1_555
H4 C7 1_555 1_555
H5 C9 1_555 1_555
H6 C10 1_555 1_555
H7 C12 1_555 1_555
H8 C13 1_555 1_555
H9 C15 1_555 1_555
H10 C16 1_555 1_555
H11 C18 1_555 1_555
H12 C19 1_555 1_555
H13 C20 1_555 1_555
H15 C22 1_555 1_555
H16 C22 1_555 1_555
H17 C22 1_555 1_555
H18 C23 1_555 1_555
H19 C23 1_555 1_555
H20 C23 1_555 1_555
Zn1E O2 1_555 1_555
Zn1F O4 1_555 1_555
Zn1C O5 1_555 1_555
Zn1D N1D 1_555 1_555
Zn1C_2 O4E 1_555 1_555
Zn1F_2 O5E 1_555 1_555
O1E Zn1E 1_555 1_555
O2E Zn1 1_555 1_555
O3E C5E 1_555 1_555
O4E C14E 1_555 1_555
O4F Zn1 1_555 1_555
O4C Zn1E 1_555 1_555
O5E C14E 1_555 1_555
O5C Zn1 1_555 1_555
O5F Zn1E 1_555 1_555
N1D C15D 1_555 1_555
N1E Zn1E 1_555 1_555
C1E O1E 1_555 1_555
C2E C1E 1_555 1_555
C3E C2E 1_555 1_555
C4E C3E 1_555 1_555
C5E C4E 1_555 1_555
C6E C5E 1_555 1_555
C7E C2E 1_555 1_555
C8E O3E 1_555 1_555
C9E C8E 1_555 1_555
C10E C9E 1_555 1_555
C11E C10E 1_555 1_555
C12E C11E 1_555 1_555
C13E C8E 1_555 1_555
C14E C11E 1_555 1_555
C15D C16D 1_555 1_555
C16D C17D 1_555 1_555
C17D C18D 1_555 1_555
C18D C19D 1_555 1_555
C19D N1D 1_555 1_555
C20D C20 1_555 1_555
H1E C3E 1_555 1_555
H2E C4E 1_555 1_555
H3E C6E 1_555 1_555
H4E C7E 1_555 1_555
H5E C9E 1_555 1_555
H6E C10E 1_555 1_555
H7E C12E 1_555 1_555
H8E C13E 1_555 1_555
H9D C15D 1_555 1_555
H10D C16D 1_555 1_555
H11D C18D 1_555 1_555
H12D C19D 1_555 1_555
H13D C20D 1_555 1_555
C12 C13 1_555 1_555
C18 C19 1_555 1_555
O2E C1E 1_555 1_555
C6E C7E 1_555 1_555
C12E C13E 1_555 1_555
C17D C20D 1_555 1_555

#END
