
#######################################################################
#
#                 Cambridge Crystallographic Data Centre
#                                CCDC 
#
#######################################################################
#
# If this CIF has been generated from an entry in the Cambridge 
# Structural Database, then it will include bibliographic, chemical, 
# crystal, experimental, refinement or atomic coordinate data resulting 
# from the CCDC's data processing and validation procedures.
#
#######################################################################

data_DIRPOL
_symmetry_cell_setting           cubic
_symmetry_space_group_name_H-M   'P a -3'
_symmetry_Int_Tables_number      205
_space_group_name_Hall           '-P 2ac 2ab 3'
loop_
_symmetry_equiv_pos_site_id
_symmetry_equiv_pos_as_xyz
1 x,y,z
2 1/2-x,-y,1/2+z
3 1/2+x,1/2-y,-z
4 -x,1/2+y,1/2-z
5 y,z,x
6 1/2-y,-z,1/2+x
7 1/2+y,1/2-z,-x
8 -y,1/2+z,1/2-x
9 z,x,y
10 -z,1/2+x,1/2-y
11 1/2-z,-x,1/2+y
12 1/2+z,1/2-x,-y
13 -x,-y,-z
14 1/2+x,y,1/2-z
15 1/2-x,1/2+y,z
16 x,1/2-y,1/2+z
17 -y,-z,-x
18 1/2+y,z,1/2-x
19 1/2-y,1/2+z,x
20 y,1/2-z,1/2+x
21 -z,-x,-y
22 z,1/2-x,1/2+y
23 1/2+z,x,1/2-y
24 1/2-z,1/2+x,y
_cell_length_a                   27.3095(6)
_cell_length_b                   27.3095(6)
_cell_length_c                   27.3095(6)
_cell_angle_alpha                90
_cell_angle_beta                 90
_cell_angle_gamma                90
_cell_volume                     20367.7
loop_
_atom_site_label
_atom_site_type_symbol
_atom_site_fract_x
_atom_site_fract_y
_atom_site_fract_z
O1 O 0.26426(13) 0.26819(13) 0.13849(12)
O2 O 0.25303(10) 0.25303(10) 0.25303(10)
C1 C 0.30120(17) 0.50569(19) 0.18527(19)
C2 C 0.28355(19) 0.45771(19) 0.19727(18)
H1 H 0.2502 0.4512 0.1954
C3 C 0.31449(18) 0.42215(18) 0.21107(17)
C4 C 0.28737(18) 0.58928(18) 0.15971(19)
H2 H 0.266 0.6143 0.1509
N1 N 0.35494(16) 0.64506(16) 0.14506(16)
C5 C 0.29538(17) 0.37312(18) 0.22533(18)
C6 C 0.36540(19) 0.43173(19) 0.21494(19)
H3 H 0.3866 0.4074 0.2259
C7 C 0.33809(18) 0.59826(17) 0.16024(17)
C8 C 0.26905(19) 0.54404(17) 0.17205(19)
H4 H 0.2354 0.5387 0.1717
C9 C 0.36921(19) 0.56113(18) 0.17331(19)
H5 H 0.4028 0.5667 0.173
C10 C 0.38308(19) 0.47649(19) 0.2026(2)
H6 H 0.4166 0.4823 0.2042
C11 C 0.35149(18) 0.51425(19) 0.18740(17)
O3 O 0.25399(13) 0.35986(13) 0.20872(13)
O4 O 0.32125(13) 0.34736(13) 0.25370(13)
Zn1 Zn 0.23288(2) 0.29185(2) 0.19780(2)
Zn2 Zn 0.29475(2) 0.29475(2) 0.29475(2)
O5 O 0.28744(13) 0.19300(12) 0.16186(13)
C12 C 0.30140(19) 0.25234(19) 0.04364(18)
H7 H 0.2936 0.2844 0.0523
C13 C 0.29692(17) 0.21444(19) 0.07873(19)
C14 C 0.32737(18) 0.19346(18) -0.01661(19)
C15 C 0.28149(17) 0.22636(19) 0.12989(17)
C16 C 0.3169(2) 0.24241(19) -0.0022(2)
H8 H 0.3208 0.2678 -0.0246
N2 N 0.37585(16) 0.12415(16) -0.12415(16)
C17 C 0.32129(18) 0.15510(18) 0.01761(18)
C18 C 0.30595(18) 0.16686(19) 0.0654(2)
H9 H 0.3019 0.142 0.0883
C19 C 0.34473(18) 0.18145(19) -0.06444(18)
H10 H 0.3494 0.2063 -0.0872
C20 C 0.35455(18) 0.13475(18) -0.07733(17)
C21 C 0.3303(2) 0.1071(2) 0.0026(2)
H11 H 0.3251 0.0817 0.0247
C22 C 0.3464(2) 0.0963(2) -0.04326(19)
H12 H 0.352 0.0639 -0.0523
O1E O 0.23181(13) -0.13849(12) -0.23574(13)
C12E C 0.24766(19) -0.04364(18) -0.19860(19)
H7E H 0.2156 -0.0523 -0.2064
C13E C 0.28556(19) -0.07873(19) -0.20308(17)
C14E C 0.30654(18) 0.01661(19) -0.17263(18)
C15E C 0.27364(19) -0.12989(17) -0.21851(17)
C16E C 0.25759(19) 0.0022(2) -0.1831(2)
H8E H 0.2322 0.0246 -0.1792
C17E C 0.34490(18) -0.01761(18) -0.17871(18)
C18E C 0.33314(19) -0.0654(2) -0.19405(18)
H9E H 0.358 -0.0883 -0.1981
C19E C 0.31855(19) 0.06444(18) -0.15527(18)
H10E H 0.2937 0.0872 -0.1506
C20E C 0.36525(18) 0.07733(17) -0.14545(18)
C21E C 0.3929(2) -0.0026(2) -0.1697(2)
H11E H 0.4183 -0.0247 -0.1749
C22E C 0.4037(2) 0.04326(19) -0.1536(2)
H12E H 0.4361 0.0523 -0.148
O5E O 0.30700(12) -0.16186(13) -0.21256(13)
O1K O 0.63849(12) 0.23574(13) -0.26819(13)
C12K C 0.54364(18) 0.19860(19) -0.25234(19)
H7K H 0.5523 0.2064 -0.2844
C13K C 0.57873(19) 0.20308(17) -0.21444(19)
C14K C 0.48339(19) 0.17263(18) -0.19346(18)
C15K C 0.62989(17) 0.21851(17) -0.22636(19)
C16K C 0.4978(2) 0.1831(2) -0.24241(19)
H8K H 0.4754 0.1792 -0.2678
C17K C 0.51761(18) 0.17871(18) -0.15510(18)
C18K C 0.5654(2) 0.19405(18) -0.16686(19)
H9K H 0.5883 0.1981 -0.142
C19K C 0.43556(18) 0.15527(18) -0.18145(19)
H10K H 0.4128 0.1506 -0.2063
C20K C 0.42267(17) 0.14545(18) -0.13475(18)
C21K C 0.5026(2) 0.1697(2) -0.1071(2)
H11K H 0.5247 0.1749 -0.0817
C22K C 0.45674(19) 0.1536(2) -0.0963(2)
H12K H 0.4477 0.148 -0.0639
O5K O 0.66186(13) 0.21256(13) -0.19300(12)
C1G C 0.49431(19) 0.68527(19) 0.19880(17)
C2G C 0.54229(19) 0.69727(18) 0.21645(19)
H1G H 0.5488 0.6954 0.2498
C3G C 0.57785(18) 0.71107(17) 0.18551(18)
C4G C 0.41072(18) 0.65971(19) 0.21263(18)
H2G H 0.3857 0.6509 0.234
C5G C 0.62688(18) 0.72533(18) 0.20462(17)
C6G C 0.56827(19) 0.71494(19) 0.13460(19)
H3G H 0.5926 0.7259 0.1134
C7G C 0.40174(17) 0.66024(17) 0.16191(18)
C8G C 0.45596(17) 0.67205(19) 0.23095(19)
H4G H 0.4613 0.6717 0.2646
C9G C 0.43887(18) 0.67331(19) 0.13079(19)
H5G H 0.4333 0.673 0.0972
C10G C 0.52351(19) 0.7026(2) 0.11692(19)
H6G H 0.5177 0.7042 0.0834
C11G C 0.48575(19) 0.68740(17) 0.14851(18)
O3G O 0.64014(13) 0.70872(13) 0.24601(13)
O4G O 0.65264(13) 0.75370(13) 0.17875(13)
C1J C 0.31473(19) 0.69880(17) 0.00569(19)
C2J C 0.30273(18) 0.71645(19) -0.04229(19)
H1J H 0.3046 0.7498 -0.0488
C3J C 0.28893(17) 0.68551(18) -0.07785(18)
C4J C 0.34029(19) 0.71263(18) 0.08928(18)
H2J H 0.3491 0.734 0.1143
C5J C 0.27467(18) 0.70462(17) -0.12688(18)
C6J C 0.28506(19) 0.63460(19) -0.06827(19)
H3J H 0.2741 0.6134 -0.0926
C7J C 0.33976(17) 0.66191(18) 0.09826(17)
C8J C 0.32795(19) 0.73095(19) 0.04404(17)
H4J H 0.3283 0.7646 0.0387
C9J C 0.32669(19) 0.63079(19) 0.06113(18)
H5J H 0.327 0.5972 0.0667
C10J C 0.2974(2) 0.61692(19) -0.02351(19)
H6J H 0.2958 0.5834 -0.0177
C11J C 0.31260(17) 0.64851(18) 0.01425(19)
O3J O 0.29128(13) 0.74601(13) -0.14014(13)
O4J O 0.24630(13) 0.67875(13) -0.15264(13)
Zn1D Zn 0.29185(2) 0.19780(2) 0.23288(2)
Zn1H Zn 0.19780(2) 0.23288(2) 0.29185(2)
O1D O 0.26819(13) 0.13849(12) 0.26426(13)
O1H O 0.13849(12) 0.26426(13) 0.26819(13)
O3D O 0.35986(13) 0.20872(13) 0.25399(13)
O3H O 0.20872(13) 0.25399(13) 0.35986(13)
O4D O 0.34736(13) 0.25370(13) 0.32125(13)
O4H O 0.25370(13) 0.32125(13) 0.34736(13)
Zn1B Zn 0.73288(2) 0.20815(2) -0.19780(2)
Zn1E Zn 0.20815(2) -0.19780(2) -0.26712(2)
Zn1G Zn 0.70815(2) 0.69780(2) 0.26712(2)
Zn1J Zn 0.30220(2) -0.23288(2) -0.20815(2)
Zn1J_2 Zn 0.30220(2) 0.76712(2) -0.20815(2)
Zn1K Zn 0.69780(2) 0.26712(2) -0.29185(2)
Zn2A Zn 0.20525(2) 0.70525(2) -0.20525(2)
Zn2C Zn 0.70525(2) 0.79475(2) 0.20525(2)
O5D O 0.19300(12) 0.16186(13) 0.28744(13)
O5H O 0.16186(13) 0.28744(13) 0.19300(12)
loop_
_geom_bond_atom_site_label_1
_geom_bond_atom_site_label_2
_geom_bond_site_symmetry_1
_geom_bond_site_symmetry_2
O1 Zn1 1_555 1_555
O2 Zn1 1_555 1_555
C1 C2 1_555 1_555
C2 H1 1_555 1_555
C3 C2 1_555 1_555
C4 H2 1_555 1_555
N1 C7 1_555 1_555
C5 C3 1_555 1_555
C6 C3 1_555 1_555
H3 C6 1_555 1_555
C7 C4 1_555 1_555
C8 C1 1_555 1_555
H4 C8 1_555 1_555
C9 C7 1_555 1_555
H5 C9 1_555 1_555
C10 C6 1_555 1_555
H6 C10 1_555 1_555
C11 C1 1_555 1_555
O3 C5 1_555 1_555
O4 C5 1_555 1_555
Zn1 O3 1_555 1_555
Zn2 O2 1_555 1_555
O5 C15 1_555 1_555
C12 H7 1_555 1_555
C13 C12 1_555 1_555
C14 C16 1_555 1_555
C15 O1 1_555 1_555
C16 C12 1_555 1_555
H8 C16 1_555 1_555
N2 C20 1_555 1_555
C17 C14 1_555 1_555
C18 C13 1_555 1_555
H9 C18 1_555 1_555
C19 C14 1_555 1_555
H10 C19 1_555 1_555
C20 C19 1_555 1_555
C21 C17 1_555 1_555
H11 C21 1_555 1_555
C22 C20 1_555 1_555
H12 C22 1_555 1_555
O1E C15E 1_555 1_555
C12E H7E 1_555 1_555
C13E C12E 1_555 1_555
C14E C16E 1_555 1_555
C15E C13E 1_555 1_555
C16E C12E 1_555 1_555
H8E C16E 1_555 1_555
C17E C14E 1_555 1_555
C18E C13E 1_555 1_555
H9E C18E 1_555 1_555
C19E C14E 1_555 1_555
H10E C19E 1_555 1_555
C20E N2 1_555 1_555
C21E C17E 1_555 1_555
H11E C21E 1_555 1_555
C22E C20E 1_555 1_555
H12E C22E 1_555 1_555
O5E C15E 1_555 1_555
O1K C15K 1_555 1_555
C12K H7K 1_555 1_555
C13K C12K 1_555 1_555
C14K C16K 1_555 1_555
C15K C13K 1_555 1_555
C16K C12K 1_555 1_555
H8K C16K 1_555 1_555
C17K C14K 1_555 1_555
C18K C13K 1_555 1_555
H9K C18K 1_555 1_555
C19K C14K 1_555 1_555
H10K C19K 1_555 1_555
C20K N2 1_555 1_555
C21K C17K 1_555 1_555
H11K C21K 1_555 1_555
C22K C20K 1_555 1_555
H12K C22K 1_555 1_555
O5K C15K 1_555 1_555
C1G C2G 1_555 1_555
C2G H1G 1_555 1_555
C3G C2G 1_555 1_555
C4G H2G 1_555 1_555
C5G C3G 1_555 1_555
C6G C3G 1_555 1_555
H3G C6G 1_555 1_555
C7G N1 1_555 1_555
C8G C1G 1_555 1_555
H4G C8G 1_555 1_555
C9G C7G 1_555 1_555
H5G C9G 1_555 1_555
C10G C6G 1_555 1_555
H6G C10G 1_555 1_555
C11G C1G 1_555 1_555
O3G C5G 1_555 1_555
O4G C5G 1_555 1_555
C1J C2J 1_555 1_555
C2J H1J 1_555 1_555
C3J C2J 1_555 1_555
C4J H2J 1_555 1_555
C5J C3J 1_555 1_555
C6J C3J 1_555 1_555
H3J C6J 1_555 1_555
C7J N1 1_555 1_555
C8J C1J 1_555 1_555
H4J C8J 1_555 1_555
C9J C7J 1_555 1_555
H5J C9J 1_555 1_555
C10J C6J 1_555 1_555
H6J C10J 1_555 1_555
C11J C1J 1_555 1_555
O3J C5J 1_555 1_555
O4J C5J 1_555 1_555
Zn1D O2 1_555 1_555
Zn1H O2 1_555 1_555
O1D Zn1D 1_555 1_555
O1H Zn1H 1_555 1_555
O3D Zn1D 1_555 1_555
O3H Zn1H 1_555 1_555
O4D Zn2 1_555 1_555
O4H Zn2 1_555 1_555
Zn1B O5K 1_555 1_555
Zn1E O1E 1_555 1_555
Zn1G O3G 1_555 1_555
Zn1J O5E 1_555 1_555
Zn1J_2 O3J 1_555 1_555
Zn1K O1K 1_555 1_555
Zn2A O4J 1_555 1_555
Zn2C O4G 1_555 1_555
O5D Zn1H 1_555 1_555
O5H Zn1 1_555 1_555
C4 C8 1_555 1_555
C9 C11 1_555 1_555
C10 C11 1_555 1_555
O4 Zn2 1_555 1_555
O5 Zn1D 1_555 1_555
C13 C15 1_555 1_555
C17 C18 1_555 1_555
C21 C22 1_555 1_555
C17E C18E 1_555 1_555
C19E C20E 1_555 1_555
C21E C22E 1_555 1_555
C17K C18K 1_555 1_555
C19K C20K 1_555 1_555
C21K C22K 1_555 1_555
C4G C7G 1_555 1_555
C4G C8G 1_555 1_555
C9G C11G 1_555 1_555
C10G C11G 1_555 1_555
C4J C7J 1_555 1_555
C4J C8J 1_555 1_555
C9J C11J 1_555 1_555
C10J C11J 1_555 1_555

#END
