
#######################################################################
#
#                 Cambridge Crystallographic Data Centre
#                                CCDC 
#
#######################################################################
#
# If this CIF has been generated from an entry in the Cambridge 
# Structural Database, then it will include bibliographic, chemical, 
# crystal, experimental, refinement or atomic coordinate data resulting 
# from the CCDC's data processing and validation procedures.
#
#######################################################################

data_DIRPIF
_symmetry_cell_setting           triclinic
_symmetry_space_group_name_H-M   'P -1'
_symmetry_Int_Tables_number      2
_space_group_name_Hall           '-P 1'
loop_
_symmetry_equiv_pos_site_id
_symmetry_equiv_pos_as_xyz
1 x,y,z
2 -x,-y,-z
_cell_length_a                   16.158(3)
_cell_length_b                   18.171(4)
_cell_length_c                   18.955(4)
_cell_angle_alpha                99.19(3)
_cell_angle_beta                 106.28(3)
_cell_angle_gamma                116.34(3)
_cell_volume                     4518.93
loop_
_atom_site_label
_atom_site_type_symbol
_atom_site_fract_x
_atom_site_fract_y
_atom_site_fract_z
O1 O 0.3152(2) 0.86159(17) 0.10803(17)
O2 O 1.1180(3) 0.8543(2) 0.1008(2)
O3 O 0.1922(3) 0.77144(19) -0.00602(19)
O4 O 0.9487(3) 0.8660(2) 0.93638(17)
O5 O 1.1597(2) 0.79779(19) 0.1882(2)
O6 O 0.3591(3) 0.0047(2) 0.2328(2)
O7 O 1.0370(3) 0.8054(2) 0.91172(19)
O8 O 0.3578(3) 0.8168(2) 0.26639(19)
O9 O 0.1493(3) 0.0112(2) 0.0452(2)
O10 O 0.5062(3) 0.9268(3) 0.2881(2)
O11 O 0.2550(3) -0.0233(2) 0.0199(2)
C1 C 0.9647(3) 0.8208(3) 0.8923(3)
C2 C 0.2696(3) 0.7908(3) 0.0512(2)
O12 O 0.3277(3) -0.0203(3) 0.3336(3)
C3 C 0.3630(4) 0.0289(3) 0.2988(3)
C4 C 0.2290(4) 0.0313(3) 0.0346(3)
Zn1 Zn 0.30431(3) 0.87873(3) 0.21282(3)
Zn2 Zn 0.15344(3) 0.86212(3) 0.01036(2)
N1 N 0.5584(2) 0.5390(2) 0.1427(2)
C5 C 0.6858(3) 0.6229(2) 0.0999(2)
H1 H 0.6395 0.6312 0.0655
C6 C 0.4040(3) 0.7613(2) 0.1087(2)
H2 H 0.4429 0.819 0.1412
C7 C 0.9582(3) 0.6953(3) 0.1652(2)
H3 H 1.0054 0.6878 0.1994
C8 C 0.4440(4) 0.7214(3) 0.3146(2)
H4 H 0.3747 0.693 0.2876
C9 C 0.3831(3) 0.6180(2) 0.0664(2)
C10 C 0.8555(3) 0.6492(2) 0.1567(2)
C11 C 0.7866(3) 0.6637(2) 0.1054(2)
C12 C 0.6557(3) 0.5723(2) 0.1434(2)
C13 C 0.4230(3) 0.5624(2) 0.0759(2)
H5 H 0.385 0.5047 0.0435
C14 C 0.5113(3) 0.3063(3) 0.4121(2)
C15 C 0.4420(3) 0.7055(2) 0.1164(2)
C16 C 0.5398(3) 0.7356(2) 0.1737(2)
H6 H 0.5799 0.7935 0.2057
C17 C 0.2895(3) 0.5902(3) 0.0088(2)
H7 H 0.2515 0.5334 -0.0256
N2 N 0.6276(3) 0.5455(2) 0.4442(2)
C18 C 0.5156(3) 0.5922(2) 0.1316(2)
C19 C 0.8194(3) 0.7187(3) 0.0629(2)
H8 H 0.7732 0.7264 0.0277
C20 C 0.5574(3) 0.3984(3) 0.4487(2)
H9 H 0.5686 0.42 0.5005
C21 C 0.4946(3) 0.4494(2) 0.1266(2)
C22 C 0.9876(3) 0.7496(2) 0.1244(2)
C23 C 0.6893(3) 0.6474(3) 0.5719(2)
H10 H 0.6405 0.6612 0.5521
C24 C 1.0959(3) 0.8029(3) 0.1375(3)
C25 C 0.4144(3) 0.4236(3) 0.1531(2)
H11 H 0.407 0.4658 0.1807
C26 C 0.4941(3) 0.2741(3) 0.3347(2)
C27 C 0.4553(5) 0.8561(4) 0.2933(3)
C28 C 0.8975(3) 0.7125(3) 0.7612(2)
H12 H 0.9454 0.6982 0.782
C29 C 0.7579(3) 0.6915(3) 0.6511(2)
C30 C 0.5844(3) 0.4537(3) 0.4088(2)
C31 C 0.9163(3) 0.7609(3) 0.0717(2)
H13 H 0.9364 0.7975 0.0431
C32 C 0.8212(3) 0.5925(3) 0.1973(3)
H14 H 0.8656 0.5802 0.2289
C33 C 0.4313(3) 0.5856(3) 0.3329(2)
H15 H 0.3619 0.5559 0.3053
C34 C 0.3594(3) 0.2752(3) 0.0989(2)
C35 C 0.4760(4) 0.2459(3) 0.4511(3)
H16 H 0.4851 0.2665 0.5025
C36 C 0.3504(3) 0.3401(3) 0.1387(3)
H17 H 0.2983 0.325 0.1558
C37 C 0.8945(3) 0.7754(3) 0.8068(2)
C38 C 0.2524(3) 0.6447(3) 0.0017(2)
H18 H 0.1898 0.6247 -0.037
C39 C 0.5077(3) 0.3875(2) 0.0887(2)
H19 H 0.5603 0.4042 0.0721
C40 C 0.4421(3) 0.2982(2) 0.0744(2)
C41 C 0.6930(3) 0.5862(3) 0.5250(2)
C42 C 0.7567(3) 0.7576(3) 0.7002(2)
H20 H 0.7092 0.7729 0.6808
C43 C 0.8290(3) 0.6676(3) 0.6818(2)
C44 C 0.3097(3) 0.7317(2) 0.0535(2)
C45 C 0.5740(3) 0.6807(3) 0.1816(2)
H21 H 0.6367 0.7008 0.2202
C46 C 0.4447(3) 0.1814(3) 0.2987(2)
H22 H 0.4348 0.1596 0.2473
C47 C 0.2901(3) 0.1873(3) 0.0827(2)
H23 H 0.2349 0.1717 0.096
C48 C 0.4999(4) 0.8071(3) 0.3263(2)
C49 C 0.7250(3) 0.5548(3) 0.1920(3)
H24 H 0.7042 0.5175 0.2199
C50 C 0.4289(4) 0.1582(3) 0.4149(3)
H25 H 0.4079 0.1203 0.4424
C51 C 0.4119(3) 0.1248(3) 0.3371(3)
C52 C 0.3040(4) 0.1246(3) 0.0474(3)
C53 C 0.8249(3) 0.7999(3) 0.7762(2)
H26 H 0.8248 0.8449 0.8074
C54 C 0.5683(4) 0.4222(3) 0.3298(2)
H27 H 0.5872 0.4606 0.3024
C55 C 0.4751(3) 0.5418(3) 0.3634(2)
H28 H 0.4357 0.483 0.3563
C56 C 0.6375(3) 0.6723(3) 0.4130(2)
H29 H 0.7071 0.7008 0.4382
C57 C 0.8299(4) 0.6018(3) 0.6307(3)
H30 H 0.8769 0.5858 0.6496
C58 C 0.5943(3) 0.7195(3) 0.3835(2)
C59 C 0.5251(4) 0.3353(3) 0.2945(2)
H31 H 0.5153 0.315 0.2429
C60 C 0.5818(3) 0.5870(3) 0.4064(2)
C61 C 0.7646(4) 0.5622(3) 0.5555(3)
H32 H 0.7663 0.5189 0.5236
C62 C 0.4877(3) 0.6730(3) 0.3420(2)
C63 C 0.6522(4) 0.8077(3) 0.3949(3)
H33 H 0.7219 0.8364 0.4203
C64 C 0.3812(5) 0.1450(3) 0.0241(3)
H34 H 0.3882 0.1005 0.000
C65 C 0.6069(4) 0.8532(3) 0.3686(3)
H35 H 0.6454 0.9127 0.3784
C66 C 0.4506(4) 0.2311(3) 0.0354(3)
H36 H 0.5015 0.2438 0.0173
O13 O 0.9718(4) 0.9729(3) 1.0964(3)
C67 C 1.0263(5) 0.9679(4) 1.1535(5)
H37 H 1.0835 0.9691 1.1508
N3 N 1.0125(6) 0.9611(4) 1.2154(5)
C68 C 1.0751(9) 0.9495(8) 1.2805(6)
H38 H 1.121 0.9378 1.264
H39 H 1.0314 0.898 1.2897
C69 C 0.9214(11) 0.9684(10) 1.2200(10)
H40 H 0.9376 0.9955 1.2743
H41 H 0.9148 1.0075 1.1927
C70 C 1.1359(13) 1.0225(8) 1.3563(8)
H42 H 1.1692 1.0052 1.3947
H43 H 1.0923 1.0367 1.373
H44 H 1.1852 1.0725 1.3499
C71 C 0.8221(16) 0.8871(10) 1.1887(9)
H45 H 0.7736 0.8997 1.198
H46 H 0.8271 0.8466 1.214
H47 H 0.8011 0.8622 1.1337
Zn3 Zn 1.00000 1.00000 1.00000
O1A O 0.6848(2) 0.13841(17) 0.89197(17)
O2A O -0.1180(3) 0.1457(2) 0.8992(2)
O3A O 0.8078(3) 0.22856(19) 1.00602(19)
O4A O 0.0513(3) 0.1340(2) 0.06362(17)
O5A O -0.1597(2) 0.20221(19) 0.8118(2)
O6A O 0.6409(3) 0.9953(2) 0.7672(2)
O7A O -0.0370(3) 0.1946(2) 0.08828(19)
O8A O 0.6422(3) 0.1832(2) 0.73361(19)
O9A O 0.8507(3) 0.9888(2) 0.9548(2)
O10A O 0.4938(3) 0.0732(3) 0.7119(2)
O11A O 0.7450(3) 1.0233(2) 0.9801(2)
C1A C 0.0353(3) 0.1792(3) 0.1077(3)
C2A C 0.7304(3) 0.2092(3) 0.9488(2)
O12A O 0.6723(3) 1.0203(3) 0.6664(3)
C3A C 0.6370(4) 0.9711(3) 0.7012(3)
C4A C 0.7710(4) 0.9687(3) 0.9654(3)
Zn1A Zn 0.69569(3) 0.12127(3) 0.78718(3)
Zn2A Zn 0.84656(3) 0.13788(3) 0.98964(2)
N1A N 0.4416(2) 0.4610(2) 0.8573(2)
C5A C 0.3142(3) 0.3771(2) 0.9001(2)
H1A H 0.3605 0.3688 0.9345
C6A C 0.5960(3) 0.2387(2) 0.8913(2)
H2A H 0.5571 0.181 0.8588
C7A C 0.0418(3) 0.3047(3) 0.8348(2)
H3A H -0.0054 0.3122 0.8006
C8A C 0.5560(4) 0.2786(3) 0.6854(2)
H4A H 0.6253 0.307 0.7124
C9A C 0.6169(3) 0.3820(2) 0.9336(2)
C10A C 0.1445(3) 0.3508(2) 0.8433(2)
C11A C 0.2134(3) 0.3363(2) 0.8946(2)
C12A C 0.3443(3) 0.4277(2) 0.8566(2)
C13A C 0.5770(3) 0.4376(2) 0.9241(2)
H5A H 0.615 0.4953 0.9565
C14A C 0.4887(3) 0.6937(3) 0.5879(2)
C15A C 0.5580(3) 0.2945(2) 0.8836(2)
C16A C 0.4602(3) 0.2644(2) 0.8263(2)
H6A H 0.4201 0.2065 0.7943
C17A C 0.7105(3) 0.4098(3) 0.9912(2)
H7A H 0.7485 0.4666 1.0256
N2A N 0.3724(3) 0.4545(2) 0.5558(2)
C18A C 0.4844(3) 0.4078(2) 0.8684(2)
C19A C 0.1806(3) 0.2813(3) 0.9371(2)
H8A H 0.2268 0.2736 0.9723
C20A C 0.4426(3) 0.6016(3) 0.5513(2)
H9A H 0.4314 0.58 0.4995
C21A C 0.5054(3) 0.5506(2) 0.8734(2)
C22A C 0.0124(3) 0.2504(2) 0.8756(2)
C23A C 0.3107(3) 0.3526(3) 0.4281(2)
H10A H 0.3595 0.3388 0.4479
C24A C -0.0959(3) 0.1971(3) 0.8625(3)
C25A C 0.5856(3) 0.5764(3) 0.8469(2)
H11A H 0.593 0.5342 0.8193
C26A C 0.5059(3) 0.7259(3) 0.6653(2)
C27A C 0.5447(5) 0.1439(4) 0.7067(3)
C28A C 0.1025(3) 0.2875(3) 0.2388(2)
H12A H 0.0546 0.3018 0.218
C29A C 0.2421(3) 0.3085(3) 0.3489(2)
C30A C 0.4156(3) 0.5463(3) 0.5912(2)
C31A C 0.0837(3) 0.2391(3) 0.9283(2)
H13A H 0.0636 0.2025 0.9569
C32A C 0.1788(3) 0.4075(3) 0.8027(3)
H14A H 0.1344 0.4198 0.7711
C33A C 0.5687(3) 0.4144(3) 0.6671(2)
H15A H 0.6381 0.4441 0.6947
C34A C 0.6406(3) 0.7248(3) 0.9011(2)
C35A C 0.5240(4) 0.7541(3) 0.5489(3)
H16A H 0.5149 0.7335 0.4975
C36A C 0.6496(3) 0.6599(3) 0.8613(3)
H17A H 0.7017 0.675 0.8442
C37A C 0.1055(3) 0.2246(3) 0.1932(2)
C38A C 0.7476(3) 0.3553(3) 0.9983(2)
H18A H 0.8102 0.3753 1.037
C39A C 0.4923(3) 0.6125(2) 0.9113(2)
H19A H 0.4397 0.5958 0.9279
C40A C 0.5579(3) 0.7018(2) 0.9256(2)
C41A C 0.3070(3) 0.4138(3) 0.4750(2)
C42A C 0.2433(3) 0.2424(3) 0.2998(2)
H20A H 0.2908 0.2271 0.3192
C43A C 0.1710(3) 0.3324(3) 0.3182(2)
C44A C 0.6903(3) 0.2683(2) 0.9465(2)
C45A C 0.4260(3) 0.3193(3) 0.8184(2)
H21A H 0.3633 0.2992 0.7798
C46A C 0.5553(3) 0.8186(3) 0.7013(2)
H22A H 0.5652 0.8404 0.7527
C47A C 0.7099(3) 0.8127(3) 0.9173(2)
H23A H 0.7651 0.8283 0.904
C48A C 0.5001(4) 0.1929(3) 0.6737(2)
C49A C 0.2750(3) 0.4452(3) 0.8080(3)
H24A H 0.2958 0.4825 0.7801
C50A C 0.5711(4) 0.8418(3) 0.5851(3)
H25A H 0.5921 0.8797 0.5576
C51A C 0.5881(3) 0.8752(3) 0.6629(3)
C52A C 0.6960(4) 0.8754(3) 0.9526(3)
C53A C 0.1751(3) 0.2001(3) 0.2238(2)
H26A H 0.1752 0.1551 0.1926
C54A C 0.4317(4) 0.5778(3) 0.6702(2)
H27A H 0.4128 0.5394 0.6976
C55A C 0.5249(3) 0.4582(3) 0.6366(2)
H28A H 0.5643 0.517 0.6437
C56A C 0.3625(3) 0.3277(3) 0.5870(2)
H29A H 0.2929 0.2992 0.5618
C57A C 0.1701(4) 0.3982(3) 0.3693(3)
H30A H 0.1231 0.4142 0.3504
C58A C 0.4057(3) 0.2805(3) 0.6165(2)
C59A C 0.4749(4) 0.6647(3) 0.7055(2)
H31A H 0.4847 0.685 0.7571
C60A C 0.4182(3) 0.4130(3) 0.5936(2)
C61A C 0.2354(4) 0.4378(3) 0.4445(3)
H32A H 0.2337 0.4811 0.4764
C62A C 0.5123(3) 0.3270(3) 0.6580(2)
C63A C 0.3478(4) 0.1923(3) 0.6051(3)
H33A H 0.2781 0.1636 0.5797
C64A C 0.6188(5) 0.8550(3) 0.9759(3)
H34A H 0.6118 0.8995 1.000
C65A C 0.3931(4) 0.1468(3) 0.6314(3)
H35A H 0.3546 0.0873 0.6216
C66A C 0.5494(4) 0.7689(3) 0.9646(3)
H36A H 0.4985 0.7562 0.9827
O13A O 1.0282(4) 1.0271(3) 0.9036(3)
C67A C 0.9737(5) 1.0321(4) 0.8465(5)
H37A H 0.9165 1.0309 0.8492
N3A N 0.9875(6) 1.0389(4) 0.7846(5)
C68A C 0.9249(9) 1.0505(8) 0.7195(6)
H38A H 0.879 1.0622 0.736
H39A H 0.9686 1.102 0.7103
C69A C 1.0786(11) 1.0316(10) 0.7800(10)
H40A H 1.0624 1.0045 0.7257
H41A H 1.0852 0.9925 0.8073
C70A C 0.8641(13) 0.9775(8) 0.6437(8)
H42A H 0.8308 0.9948 0.6053
H43A H 0.9077 0.9633 0.627
H44A H 0.8148 0.9275 0.6501
C71A C 1.1779(16) 1.1129(10) 0.8113(9)
H45A H 1.2264 1.1003 0.802
H46A H 1.1729 1.1534 0.786
H47A H 1.1989 1.1378 0.8663
O2_2 O 0.1180(3) 0.8543(2) 0.1008(2)
O2A_2 O 0.8820(3) 0.1457(2) 0.8992(2)
O4A_2 O 1.0513(3) 1.1340(2) 1.06362(17)
O5_2 O 0.1597(2) 0.79779(19) 0.1882(2)
O5A_2 O 0.8403(2) 0.20221(19) 0.8118(2)
O6_2 O 0.3591(3) 1.0047(2) 0.2328(2)
O6A_2 O 0.6409(3) -0.0047(2) 0.7672(2)
O7_2 O 0.0370(3) 0.8054(2) -0.08828(19)
O7A_2 O 0.9630(3) 0.1946(2) 1.08828(19)
O9_2 O 1.1493(3) 1.0112(2) 1.0452(2)
O11_2 O 0.2550(3) 0.9767(2) 0.0199(2)
O11A_2 O 0.7450(3) 0.0233(2) 0.9801(2)
O12_2 O 0.3277(3) 0.9797(3) 0.3336(3)
O12A_2 O 0.6723(3) 0.0203(3) 0.6664(3)
Zn1_2 Zn 0.30431(3) -0.12127(3) 0.21282(3)
Zn1_3 Zn 1.30431(3) 0.87873(3) 0.21282(3)
Zn1A_2 Zn -0.30431(3) 0.12127(3) 0.78718(3)
Zn1A_3 Zn 0.69569(3) 1.12127(3) 0.78718(3)
Zn2_2 Zn 0.15344(3) -0.13788(3) 0.01036(2)
Zn2_3 Zn 1.15344(3) 0.86212(3) 0.01036(2)
Zn2_4 Zn 1.15344(3) 0.86212(3) 1.01036(2)
Zn2A_2 Zn -0.15344(3) 0.13788(3) -0.01036(2)
Zn2A_3 Zn -0.15344(3) 0.13788(3) 0.98964(2)
Zn2A_4 Zn 0.84656(3) 1.13788(3) 0.98964(2)
Zn3_2 Zn 0.00000 0.00000 0.00000
loop_
_geom_bond_atom_site_label_1
_geom_bond_atom_site_label_2
_geom_bond_site_symmetry_1
_geom_bond_site_symmetry_2
O1 C2 1_555 1_555
O2 C24 1_555 1_555
O3 C2 1_555 1_555
O4 C1 1_555 1_555
O5 C24 1_555 1_555
O6 C3 1_555 1_555
O7 C1 1_555 1_555
O8 Zn1 1_555 1_555
O9 C4 1_555 1_555
O10 C27 1_555 1_555
O11 C4 1_555 1_555
C1 C37 1_555 1_555
C2 C44 1_555 1_555
O12 C3 1_555 1_555
C3 C51 1_555 1_555
C4 C52 1_555 1_555
Zn1 O1 1_555 1_555
Zn2 O3 1_555 1_555
N1 C12 1_555 1_555
C5 H1 1_555 1_555
C6 H2 1_555 1_555
C7 H3 1_555 1_555
C8 H4 1_555 1_555
C9 C13 1_555 1_555
C10 C7 1_555 1_555
C11 C5 1_555 1_555
C12 C5 1_555 1_555
C13 H5 1_555 1_555
C14 C20 1_555 1_555
C15 C6 1_555 1_555
C16 C15 1_555 1_555
H6 C16 1_555 1_555
C17 C9 1_555 1_555
H7 C17 1_555 1_555
N2 C30 1_555 1_555
C18 N1 1_555 1_555
C19 C11 1_555 1_555
H8 C19 1_555 1_555
C20 H9 1_555 1_555
C21 N1 1_555 1_555
C22 C7 1_555 1_555
C23 H10 1_555 1_555
C24 C22 1_555 1_555
C25 C21 1_555 1_555
H11 C25 1_555 1_555
C26 C14 1_555 1_555
C27 O8 1_555 1_555
C28 H12 1_555 1_555
C29 C23 1_555 1_555
C30 C20 1_555 1_555
C31 C19 1_555 1_555
H13 C31 1_555 1_555
C32 C10 1_555 1_555
H14 C32 1_555 1_555
C33 H15 1_555 1_555
C34 C36 1_555 1_555
C35 C14 1_555 1_555
H16 C35 1_555 1_555
C36 C25 1_555 1_555
H17 C36 1_555 1_555
C37 C28 1_555 1_555
C38 C17 1_555 1_555
H18 C38 1_555 1_555
C39 C21 1_555 1_555
H19 C39 1_555 1_555
C40 C34 1_555 1_555
C41 N2 1_555 1_555
C42 C29 1_555 1_555
H20 C42 1_555 1_555
C43 C28 1_555 1_555
C44 C6 1_555 1_555
C45 C16 1_555 1_555
H21 C45 1_555 1_555
C46 C26 1_555 1_555
H22 C46 1_555 1_555
C47 C34 1_555 1_555
H23 C47 1_555 1_555
C48 C8 1_555 1_555
C49 C12 1_555 1_555
H24 C49 1_555 1_555
C50 C35 1_555 1_555
H25 C50 1_555 1_555
C51 C46 1_555 1_555
C52 C47 1_555 1_555
C53 C37 1_555 1_555
H26 C53 1_555 1_555
C54 C30 1_555 1_555
H27 C54 1_555 1_555
C55 C33 1_555 1_555
H28 C55 1_555 1_555
C56 H29 1_555 1_555
C57 C43 1_555 1_555
H30 C57 1_555 1_555
C58 C56 1_555 1_555
C59 C26 1_555 1_555
H31 C59 1_555 1_555
C60 N2 1_555 1_555
C61 C41 1_555 1_555
H32 C61 1_555 1_555
C62 C8 1_555 1_555
C63 C58 1_555 1_555
H33 C63 1_555 1_555
C64 C52 1_555 1_555
H34 C64 1_555 1_555
C65 C48 1_555 1_555
H35 C65 1_555 1_555
C66 C40 1_555 1_555
H36 C66 1_555 1_555
O13 C67 1_555 1_555
C67 H37 1_555 1_555
N3 C67 1_555 1_555
C68 N3 1_555 1_555
H38 C68 1_555 1_555
H39 C68 1_555 1_555
C69 N3 1_555 1_555
H40 C69 1_555 1_555
H41 C69 1_555 1_555
C70 C68 1_555 1_555
H42 C70 1_555 1_555
H43 C70 1_555 1_555
H44 C70 1_555 1_555
C71 C69 1_555 1_555
H45 C71 1_555 1_555
H46 C71 1_555 1_555
H47 C71 1_555 1_555
Zn3 O4 1_555 1_555
O1A C2A 1_555 1_555
O2A C24A 1_555 1_555
O3A C2A 1_555 1_555
O4A C1A 1_555 1_555
O5A C24A 1_555 1_555
O6A C3A 1_555 1_555
O7A C1A 1_555 1_555
O8A Zn1A 1_555 1_555
O9A Zn3 1_555 1_555
O10A C27A 1_555 1_555
O11A C4A 1_555 1_555
C1A C37A 1_555 1_555
C2A C44A 1_555 1_555
O12A C3A 1_555 1_555
C3A C51A 1_555 1_555
C4A O9A 1_555 1_555
Zn1A O1A 1_555 1_555
Zn2A O3A 1_555 1_555
N1A C12A 1_555 1_555
C5A H1A 1_555 1_555
C6A H2A 1_555 1_555
C7A H3A 1_555 1_555
C8A H4A 1_555 1_555
C9A C13A 1_555 1_555
C10A C7A 1_555 1_555
C11A C5A 1_555 1_555
C12A C5A 1_555 1_555
C13A H5A 1_555 1_555
C14A C20A 1_555 1_555
C15A C6A 1_555 1_555
C16A C15A 1_555 1_555
H6A C16A 1_555 1_555
C17A C9A 1_555 1_555
H7A C17A 1_555 1_555
N2A C30A 1_555 1_555
C18A N1A 1_555 1_555
C19A C11A 1_555 1_555
H8A C19A 1_555 1_555
C20A H9A 1_555 1_555
C21A N1A 1_555 1_555
C22A C7A 1_555 1_555
C23A H10A 1_555 1_555
C24A C22A 1_555 1_555
C25A C21A 1_555 1_555
H11A C25A 1_555 1_555
C26A C14A 1_555 1_555
C27A O8A 1_555 1_555
C28A H12A 1_555 1_555
C29A C23A 1_555 1_555
C30A C20A 1_555 1_555
C31A C19A 1_555 1_555
H13A C31A 1_555 1_555
C32A C10A 1_555 1_555
H14A C32A 1_555 1_555
C33A H15A 1_555 1_555
C34A C36A 1_555 1_555
C35A C14A 1_555 1_555
H16A C35A 1_555 1_555
C36A C25A 1_555 1_555
H17A C36A 1_555 1_555
C37A C28A 1_555 1_555
C38A C17A 1_555 1_555
H18A C38A 1_555 1_555
C39A C21A 1_555 1_555
H19A C39A 1_555 1_555
C40A C34A 1_555 1_555
C41A N2A 1_555 1_555
C42A C29A 1_555 1_555
H20A C42A 1_555 1_555
C43A C28A 1_555 1_555
C44A C6A 1_555 1_555
C45A C16A 1_555 1_555
H21A C45A 1_555 1_555
C46A C26A 1_555 1_555
H22A C46A 1_555 1_555
C47A C34A 1_555 1_555
H23A C47A 1_555 1_555
C48A C8A 1_555 1_555
C49A C12A 1_555 1_555
H24A C49A 1_555 1_555
C50A C35A 1_555 1_555
H25A C50A 1_555 1_555
C51A C46A 1_555 1_555
C52A C4A 1_555 1_555
C53A C37A 1_555 1_555
H26A C53A 1_555 1_555
C54A C30A 1_555 1_555
H27A C54A 1_555 1_555
C55A C33A 1_555 1_555
H28A C55A 1_555 1_555
C56A H29A 1_555 1_555
C57A C43A 1_555 1_555
H30A C57A 1_555 1_555
C58A C56A 1_555 1_555
C59A C26A 1_555 1_555
H31A C59A 1_555 1_555
C60A N2A 1_555 1_555
C61A C41A 1_555 1_555
H32A C61A 1_555 1_555
C62A C8A 1_555 1_555
C63A C58A 1_555 1_555
H33A C63A 1_555 1_555
C64A C52A 1_555 1_555
H34A C64A 1_555 1_555
C65A C48A 1_555 1_555
H35A C65A 1_555 1_555
C66A C40A 1_555 1_555
H36A C66A 1_555 1_555
O13A Zn3 1_555 1_555
C67A O13A 1_555 1_555
H37A C67A 1_555 1_555
N3A C67A 1_555 1_555
C68A N3A 1_555 1_555
H38A C68A 1_555 1_555
H39A C68A 1_555 1_555
C69A N3A 1_555 1_555
H40A C69A 1_555 1_555
H41A C69A 1_555 1_555
C70A C68A 1_555 1_555
H42A C70A 1_555 1_555
H43A C70A 1_555 1_555
H44A C70A 1_555 1_555
C71A C69A 1_555 1_555
H45A C71A 1_555 1_555
H46A C71A 1_555 1_555
H47A C71A 1_555 1_555
O2_2 Zn2 1_555 1_555
O2A_2 Zn2A 1_555 1_555
O4A_2 Zn3 1_555 1_555
O5_2 Zn1 1_555 1_555
O5A_2 Zn1A 1_555 1_555
O6_2 Zn1 1_555 1_555
O6A_2 Zn1A 1_555 1_555
O7_2 Zn2 1_555 1_555
O7A_2 Zn2A 1_555 1_555
O9_2 Zn3 1_555 1_555
O11_2 Zn2 1_555 1_555
O11A_2 Zn2A 1_555 1_555
O12_2 Zn1 1_555 1_555
O12A_2 Zn1A 1_555 1_555
Zn1_2 O6 1_555 1_555
Zn1_3 O5 1_555 1_555
Zn1A_2 O5A 1_555 1_555
Zn1A_3 O6A 1_555 1_555
Zn2_2 O11 1_555 1_555
Zn2_3 O2 1_555 1_555
Zn2_4 O7 1_555 1_555
Zn2A_2 O7A 1_555 1_555
Zn2A_3 O2A 1_555 1_555
Zn2A_4 O11A 1_555 1_555
Zn3_2 O9 1_555 1_555
O12 Zn1_2 1_555 1_555
C9 C15 1_555 1_555
C10 C11 1_555 1_555
C13 C18 1_555 1_555
C18 C45 1_555 1_555
C22 C31 1_555 1_555
C23 C41 1_555 1_555
C27 C48 1_555 1_555
C29 C43 1_555 1_555
C32 C49 1_555 1_555
C33 C62 1_555 1_555
C38 C44 1_555 1_555
C39 C40 1_555 1_555
C42 C53 1_555 1_555
C50 C51 1_555 1_555
C54 C59 1_555 1_555
C55 C60 1_555 1_555
C56 C60 1_555 1_555
C57 C61 1_555 1_555
C58 C62 1_555 1_555
C63 C65 1_555 1_555
C64 C66 1_555 1_555
O13 Zn3 1_555 1_555
O4A Zn3_2 1_555 1_555
O12A Zn1A_3 1_555 1_555
C9A C15A 1_555 1_555
C10A C11A 1_555 1_555
C13A C18A 1_555 1_555
C18A C45A 1_555 1_555
C22A C31A 1_555 1_555
C23A C41A 1_555 1_555
C27A C48A 1_555 1_555
C29A C43A 1_555 1_555
C32A C49A 1_555 1_555
C33A C62A 1_555 1_555
C38A C44A 1_555 1_555
C39A C40A 1_555 1_555
C42A C53A 1_555 1_555
C47A C52A 1_555 1_555
C50A C51A 1_555 1_555
C54A C59A 1_555 1_555
C55A C60A 1_555 1_555
C56A C60A 1_555 1_555
C57A C61A 1_555 1_555
C58A C62A 1_555 1_555
C63A C65A 1_555 1_555
C64A C66A 1_555 1_555

#END
