
#######################################################################
#
#                 Cambridge Crystallographic Data Centre
#                                CCDC 
#
#######################################################################
#
# If this CIF has been generated from an entry in the Cambridge 
# Structural Database, then it will include bibliographic, chemical, 
# crystal, experimental, refinement or atomic coordinate data resulting 
# from the CCDC's data processing and validation procedures.
#
#######################################################################

data_DIVNAY
_symmetry_cell_setting           monoclinic
_symmetry_space_group_name_H-M   'P 21/n'
_symmetry_Int_Tables_number      14
_space_group_name_Hall           '-P 2yn'
loop_
_symmetry_equiv_pos_site_id
_symmetry_equiv_pos_as_xyz
1 x,y,z
2 1/2-x,1/2+y,1/2-z
3 -x,-y,-z
4 1/2+x,1/2-y,1/2+z
_cell_length_a                   8.7749(10)
_cell_length_b                   15.8803(17)
_cell_length_c                   9.5077(9)
_cell_angle_alpha                90
_cell_angle_beta                 99.855(6)
_cell_angle_gamma                90
_cell_volume                     1305.33
loop_
_atom_site_label
_atom_site_type_symbol
_atom_site_fract_x
_atom_site_fract_y
_atom_site_fract_z
Y1 Y 0.02877(4) 0.19556(2) 0.52519(3)
Se1 Se -0.27814(4) 0.27879(2) 0.70901(4)
C5 C -0.2304(4) 0.2035(2) 0.2500(4)
C6 C -0.2076(4) 0.2957(2) 0.2985(4)
C7 C 0.0682(4) -0.0012(2) 0.4589(3)
O1 O -0.2599(4) 0.37790(18) 0.6735(3)
O2 O -0.1179(3) 0.22826(19) 0.6966(3)
O3 O -0.3031(3) 0.26640(19) 0.8753(3)
O4 O -0.4244(4) 0.2409(2) 0.5982(4)
O5 O -0.1467(3) 0.15041(17) 0.3260(3)
O6 O -0.3292(3) 0.18921(16) 0.1417(3)
O7 O -0.2895(3) 0.34969(17) 0.2218(3)
O8 O -0.1124(3) 0.31045(16) 0.4082(3)
O9 O 0.1401(3) 0.06716(16) 0.4555(3)
O10 O 0.0957(3) -0.06903(16) 0.4026(3)
Y1C Y 0.52877(4) 0.30444(2) 0.02519(3)
Y1C_2 Y -0.47123(4) 0.30444(2) 1.02519(3)
Y1C_3 Y -0.47123(4) 0.30444(2) 0.02519(3)
Y1B Y -0.02877(4) -0.19556(2) 0.47481(3)
Y1C_4 Y 0.52877(4) 0.30444(2) 1.02519(3)
Se1C Se 0.22186(4) 0.22121(2) 0.20901(4)
C5C C 0.2696(4) 0.2965(2) 0.7500(4)
C6C C 0.2924(4) 0.2043(2) 0.7985(4)
C7B C -0.0682(4) 0.0012(2) 0.5411(3)
O1C O 0.2401(4) 0.12210(18) 0.1735(3)
O2C O 0.3821(3) 0.27174(19) 0.1966(3)
O3C O 0.1969(3) 0.23360(19) 0.3753(3)
O3_2 O 0.6969(3) 0.26640(19) -0.1247(3)
O4C O 0.0756(4) 0.2591(2) 0.0982(4)
O5C O 0.3533(3) 0.34959(17) 0.8260(3)
O5C_2 O 0.3533(3) 0.34959(17) -0.1740(3)
O6C O 0.1708(3) 0.31079(16) 0.6417(3)
O6_2 O 0.6708(3) 0.18921(16) 0.1417(3)
O7C O 0.2105(3) 0.15031(17) 0.7218(3)
O7_2 O 0.7105(3) 0.34969(17) 0.2218(3)
O8C O 0.3876(3) 0.18955(16) 0.9082(3)
O8C_2 O 0.3876(3) 0.18955(16) -0.0918(3)
O9B O -0.1401(3) -0.06716(16) 0.5445(3)
O9C O 0.6401(3) 0.43284(16) -0.0445(3)
O10B O -0.0957(3) 0.06903(16) 0.5974(3)
O10A O 0.4043(3) 0.43097(16) 0.0974(3)
N1 N -0.4647(5) 0.0525(3) 0.3857(6)
H1 H -0.3610 0.0560 0.4070
H2 H -0.4964 0.0823 0.3055
C1 C -0.5127(5) -0.0384(3) 0.3620(5)
H5 H -0.4643 -0.0620 0.2864
H6 H -0.6239 -0.0416 0.3324
C2 C -0.5340(4) 0.0881(2) 0.5042(5)
H7 H -0.6459 0.0878 0.4781
H8 H -0.5008 0.1460 0.5206
N1B N -0.5353(5) -0.0525(3) 0.6143(6)
H1B H -0.6390 -0.0560 0.5930
H2B H -0.5036 -0.0823 0.6945
C1B C -0.4873(5) 0.0384(3) 0.6380(5)
H5B H -0.5357 0.0620 0.7136
H6B H -0.3761 0.0416 0.6676
C2B C -0.4660(4) -0.0881(2) 0.4958(5)
H7B H -0.3541 -0.0878 0.5219
H8B H -0.4992 -0.1460 0.4794
N2 N -0.1062(6) 0.0114(3) 1.0965(6)
H3 H -0.0464 0.0366 1.1710
H4 H -0.2017 0.0053 1.1176
C3 C -0.0416(6) -0.0721(2) 1.0714(4)
H9 H -0.1094 -0.1001 0.9942
H10 H -0.0368 -0.1063 1.1566
C4 C -0.1133(7) 0.0650(3) 0.9649(6)
H11 H -0.1831 0.0396 0.8861
H12 H -0.1524 0.1205 0.9822
N2B N 0.1062(6) -0.0114(3) 0.9035(6)
H3B H 0.0464 -0.0366 0.8290
H4B H 0.2017 -0.0053 0.8824
C3B C 0.0416(6) 0.0721(2) 0.9286(4)
H9B H 0.1094 0.1001 1.0058
H10B H 0.0368 0.1063 0.8434
C4B C 0.1133(7) -0.0650(3) 1.0351(6)
H11B H 0.1831 -0.0396 1.1139
H12B H 0.1524 -0.1205 1.0178
O11 O 0.5000 0.0000 1.0000
loop_
_geom_bond_atom_site_label_1
_geom_bond_atom_site_label_2
_geom_bond_site_symmetry_1
_geom_bond_site_symmetry_2
Y1 O2 1_555 1_555
Se1 O1 1_555 1_555
N1 H1 1_555 1_555
H2 N1 1_555 1_555
N2 H3 1_555 1_555
H4 N2 1_555 1_555
C1 N1 1_555 1_555
H5 C1 1_555 1_555
H6 C1 1_555 1_555
C2 N1 1_555 1_555
H7 C2 1_555 1_555
H8 C2 1_555 1_555
C3 N2 1_555 1_555
H9 C3 1_555 1_555
H10 C3 1_555 1_555
C4 N2 1_555 1_555
H11 C4 1_555 1_555
H12 C4 1_555 1_555
C5 C6 1_555 1_555
C6 O7 1_555 1_555
C7 O9 1_555 1_555
O2 Se1 1_555 1_555
O3 Se1 1_555 1_555
O4 Se1 1_555 1_555
O5 Y1 1_555 1_555
O6 C5 1_555 1_555
O7 Y1C_3 1_555 1_555
O8 Y1 1_555 1_555
O9 Y1 1_555 1_555
O10 C7 1_555 1_555
Y1C O2C 1_555 1_555
Y1C_2 O3 1_555 1_555
Y1C_3 O6 1_555 1_555
Y1B O10 1_555 1_555
Y1C_4 O5C 1_555 1_555
Se1C O1C 1_555 1_555
N1B H1B 1_555 1_555
H2B N1B 1_555 1_555
N2B H3B 1_555 1_555
H4B N2B 1_555 1_555
C1B C2 1_555 1_555
H5B C1B 1_555 1_555
H6B C1B 1_555 1_555
C2B C1 1_555 1_555
H7B C2B 1_555 1_555
H8B C2B 1_555 1_555
C3B C4 1_555 1_555
H9B C3B 1_555 1_555
H10B C3B 1_555 1_555
C4B C3 1_555 1_555
H11B C4B 1_555 1_555
H12B C4B 1_555 1_555
C5C C6C 1_555 1_555
C6C O7C 1_555 1_555
C7B C7 1_555 1_555
O2C Se1C 1_555 1_555
O3C Y1 1_555 1_555
O3_2 Y1C 1_555 1_555
O4C Se1C 1_555 1_555
O5C C5C 1_555 1_555
O5C_2 Y1C 1_555 1_555
O6C Y1 1_555 1_555
O6_2 Y1C 1_555 1_555
O7C Y1 1_555 1_555
O7_2 Y1C 1_555 1_555
O8C Y1C_4 1_555 1_555
O8C_2 Y1C 1_555 1_555
O9B Y1B 1_555 1_555
O9C Y1C 1_555 1_555
O10B Y1 1_555 1_555
O10A Y1C 1_555 1_555
C5 O5 1_555 1_555
C6 O8 1_555 1_555
Se1C O3C 1_555 1_555
N1B C1B 1_555 1_555
N1B C2B 1_555 1_555
N2B C3B 1_555 1_555
N2B C4B 1_555 1_555
C5C O6C 1_555 1_555
C6C O8C 1_555 1_555
C7B O9B 1_555 1_555
C7B O10B 1_555 1_555

#END
