
#######################################################################
#
#                 Cambridge Crystallographic Data Centre
#                                CCDC 
#
#######################################################################
#
# If this CIF has been generated from an entry in the Cambridge 
# Structural Database, then it will include bibliographic, chemical, 
# crystal, experimental, refinement or atomic coordinate data resulting 
# from the CCDC's data processing and validation procedures.
#
#######################################################################

data_DIVNIH
_symmetry_cell_setting           triclinic
_symmetry_space_group_name_H-M   'P -1'
_symmetry_Int_Tables_number      2
_space_group_name_Hall           '-P 1'
loop_
_symmetry_equiv_pos_site_id
_symmetry_equiv_pos_as_xyz
1 x,y,z
2 -x,-y,-z
_cell_length_a                   7.0649(3)
_cell_length_b                   11.2771(6)
_cell_length_c                   11.8318(5)
_cell_angle_alpha                67.370(4)
_cell_angle_beta                 80.035(4)
_cell_angle_gamma                82.821(4)
_cell_volume                     855.186
loop_
_atom_site_label
_atom_site_type_symbol
_atom_site_fract_x
_atom_site_fract_y
_atom_site_fract_z
Nd1 Nd 0.22242(3) 0.54693(2) 0.57401(2)
Nd2 Nd 0.28686(4) 1.01011(2) 0.75214(2)
S1 S 0.28932(16) 0.32141(11) 0.46149(11)
S2 S 0.44432(16) 0.71615(11) 0.25258(11)
O1 O 0.4409(4) 0.3979(3) 0.4694(3)
O2 O 0.1065(4) 0.3939(3) 0.4896(3)
O3 O 0.2990(5) 0.1929(3) 0.5568(3)
O4 O 0.3058(5) 0.3167(4) 0.3404(3)
O5 O 0.2860(4) 0.6599(3) 0.3512(3)
O6 O 0.4716(5) 0.8454(3) 0.2449(3)
O7 O 0.6226(5) 0.6348(3) 0.2757(3)
O8 O 0.3909(5) 0.7219(4) 0.1360(3)
O9 O 0.1698(5) 0.7782(3) 0.5309(3)
O10 O 0.2379(5) 0.6096(3) 0.7505(3)
O11 O 0.2286(6) 0.9392(3) 0.5832(3)
O12 O 0.3007(5) 0.7695(3) 0.8042(3)
O13 O 0.0649(6) 0.8856(4) 0.9354(4)
O14 O -0.1252(6) 0.8711(4) 1.1116(4)
O15 O -0.0031(5) 0.4065(4) 0.7526(3)
O16 O -0.0496(5) 1.0712(4) 0.7015(4)
O17 O 0.4787(6) 0.9121(4) 0.9279(4)
O18 O 0.6141(5) 0.9363(4) 0.6642(4)
C1 C 0.2132(7) 0.8232(5) 0.6037(5)
C2 C 0.2554(7) 0.7265(5) 0.7318(4)
C3 C -0.0196(8) 0.9310(5) 1.0135(5)
O13A O -0.0649(6) 1.1144(4) 1.0646(4)
O14A O 0.1252(6) 1.1289(4) 0.8884(4)
C3A C 0.0196(8) 1.0690(5) 0.9865(5)
Nd1A Nd -0.22242(3) 0.45307(2) 0.42599(2)
Nd2A Nd -0.28686(4) -0.01011(2) 0.24786(2)
S1A S -0.28932(16) 0.67859(11) 0.53851(11)
S2A S -0.44432(16) 0.28385(11) 0.74742(11)
O1A O -0.4409(4) 0.6021(3) 0.5306(3)
O2A O -0.1065(4) 0.6061(3) 0.5104(3)
O3A O -0.2990(5) 0.8071(3) 0.4432(3)
O4A O -0.3058(5) 0.6833(4) 0.6596(3)
O5A O -0.2860(4) 0.3401(3) 0.6488(3)
O6A O -0.4716(5) 0.1546(3) 0.7551(3)
O7A O -0.6226(5) 0.3652(3) 0.7243(3)
O8A O -0.3909(5) 0.2781(4) 0.8640(3)
O9A O -0.1698(5) 0.2218(3) 0.4691(3)
O10A O -0.2379(5) 0.3904(3) 0.2495(3)
O11A O -0.2286(6) 0.0608(3) 0.4168(3)
O12A O -0.3007(5) 0.2305(3) 0.1958(3)
O15A O 0.0031(5) 0.5935(4) 0.2474(3)
O16A O 0.0496(5) -0.0712(4) 0.2985(4)
O17A O -0.4787(6) 0.0879(4) 0.0721(4)
O18A O -0.6141(5) 0.0637(4) 0.3358(4)
C1A C -0.2132(7) 0.1768(5) 0.3963(5)
C2A C -0.2554(7) 0.2735(5) 0.2682(4)
Nd1_2 Nd -0.77758(3) 0.54693(2) 0.57401(2)
Nd1A_2 Nd 0.77758(3) 0.45307(2) 0.42599(2)
Nd2_2 Nd -0.71314(4) 0.01011(2) 0.75214(2)
Nd2_3 Nd 0.28686(4) 0.01011(2) 0.75214(2)
Nd2A_2 Nd -0.28686(4) 0.98989(2) 0.24786(2)
Nd2A_3 Nd -0.28686(4) 0.98989(2) 1.24786(2)
Nd2A_4 Nd 0.71314(4) 0.98989(2) 0.24786(2)
O1_2 O -0.5591(4) 0.3979(3) 0.4694(3)
O1A_2 O 0.5591(4) 0.6021(3) 0.5306(3)
O3_2 O 0.2990(5) 1.1929(3) 0.5568(3)
O3A_2 O -0.2990(5) -0.1929(3) 0.4432(3)
O6_2 O -0.5284(5) -0.1546(3) 0.2449(3)
O6A_2 O 0.5284(5) 1.1546(3) 0.7551(3)
O7_2 O -0.3774(5) 0.6348(3) 0.2757(3)
O7A_2 O 0.3774(5) 0.3652(3) 0.7243(3)
O13A_2 O -0.0649(6) 0.1144(4) 0.0646(4)
O14_2 O -0.1252(6) -0.1289(4) 0.1116(4)
N1 N 0.3127(7) 0.4140(5) 0.9754(4)
H1 H 0.3998 0.3594 0.9522
H2 H 0.2730 0.4745 0.9067
C4 C 0.1464(10) 0.3424(7) 1.0542(6)
H3 H 0.0912 0.3036 1.0091
H4 H 0.0516 0.4005 1.0777
H5 H 0.1883 0.2765 1.1269
C5 C 0.4056(8) 0.4761(6) 1.0381(5)
H6 H 0.4278 0.4149 1.1194
H7 H 0.3224 0.5476 1.0481
N1A N 0.6873(7) 0.5860(5) 1.0246(4)
H1A H 0.6002 0.6406 1.0478
H2A H 0.7270 0.5255 1.0933
C4A C 0.8536(10) 0.6576(7) 0.9458(6)
H3A H 0.9088 0.6964 0.9909
H4A H 0.9484 0.5995 0.9223
H5A H 0.8117 0.7235 0.8731
C5A C 0.5944(8) 0.5239(6) 0.9619(5)
H6A H 0.5722 0.5851 0.8806
H7A H 0.6776 0.4524 0.9519
loop_
_geom_bond_atom_site_label_1
_geom_bond_atom_site_label_2
_geom_bond_site_symmetry_1
_geom_bond_site_symmetry_2
Nd1 O1 1_555 1_555
Nd2 O11 1_555 1_555
S1 O1 1_555 1_555
S2 O5 1_555 1_555
O1 Nd1A_2 1_555 1_555
O2 Nd1 1_555 1_555
O3 S1 1_555 1_555
O4 S1 1_555 1_555
O5 Nd1 1_555 1_555
O6 S2 1_555 1_555
O7 S2 1_555 1_555
O8 S2 1_555 1_555
O9 Nd1 1_555 1_555
O10 Nd1 1_555 1_555
O11 C1 1_555 1_555
O12 Nd2 1_555 1_555
O13 Nd2 1_555 1_555
O14 C3 1_555 1_555
O15 Nd1 1_555 1_555
O16 Nd2 1_555 1_555
O17 Nd2 1_555 1_555
O18 Nd2 1_555 1_555
C1 O9 1_555 1_555
C2 O10 1_555 1_555
C3 O13 1_555 1_555
N1 H1 1_555 1_555
H2 N1 1_555 1_555
C4 N1 1_555 1_555
H3 C4 1_555 1_555
H4 C4 1_555 1_555
H5 C4 1_555 1_555
C5 N1 1_555 1_555
H6 C5 1_555 1_555
H7 C5 1_555 1_555
O13A C3A 1_555 1_555
O14A Nd2 1_555 1_555
C3A C3 1_555 1_555
Nd1A O2 1_555 1_555
Nd2A O11A 1_555 1_555
S1A O1A 1_555 1_555
S2A O5A 1_555 1_555
O1A Nd1A 1_555 1_555
O2A Nd1 1_555 1_555
O3A S1A 1_555 1_555
O4A S1A 1_555 1_555
O5A Nd1A 1_555 1_555
O6A S2A 1_555 1_555
O7A S2A 1_555 1_555
O8A S2A 1_555 1_555
O9A Nd1A 1_555 1_555
O10A Nd1A 1_555 1_555
O11A C1A 1_555 1_555
O12A Nd2A 1_555 1_555
O15A Nd1A 1_555 1_555
O16A Nd2A 1_555 1_555
O17A Nd2A 1_555 1_555
O18A Nd2A 1_555 1_555
C1A O9A 1_555 1_555
C2A O10A 1_555 1_555
Nd1_2 O1A 1_555 1_555
Nd1A_2 O7 1_555 1_555
Nd2_2 O6A 1_555 1_555
Nd2_3 O3 1_555 1_555
Nd2A_2 O3A 1_555 1_555
Nd2A_3 O14 1_555 1_555
Nd2A_4 O6 1_555 1_555
O1_2 Nd1A 1_555 1_555
O1A_2 Nd1 1_555 1_555
O3_2 Nd2 1_555 1_555
O3A_2 Nd2A 1_555 1_555
O6_2 Nd2A 1_555 1_555
O6A_2 Nd2 1_555 1_555
O7_2 Nd1A 1_555 1_555
O7A_2 Nd1 1_555 1_555
O13A_2 Nd2A 1_555 1_555
O14_2 Nd2A 1_555 1_555
N1A H1A 1_555 1_555
H2A N1A 1_555 1_555
C4A N1A 1_555 1_555
H3A C4A 1_555 1_555
H4A C4A 1_555 1_555
H5A C4A 1_555 1_555
C5A C5 1_555 1_555
H6A C5A 1_555 1_555
H7A C5A 1_555 1_555
S1 O2 1_555 1_555
O12 C2 1_555 1_555
C1 C2 1_555 1_555
O13A Nd2A_3 1_555 1_555
O14A C3A 1_555 1_555
Nd1A O2A 1_555 1_555
S1A O2A 1_555 1_555
O7A Nd1_2 1_555 1_555
O12A C2A 1_555 1_555
C1A C2A 1_555 1_555
Nd1_2 O1_2 1_555 1_555
Nd1A_2 O1A_2 1_555 1_555
N1A C5A 1_555 1_555

#END
