
#######################################################################
#
#                 Cambridge Crystallographic Data Centre
#                                CCDC 
#
#######################################################################
#
# If this CIF has been generated from an entry in the Cambridge 
# Structural Database, then it will include bibliographic, chemical, 
# crystal, experimental, refinement or atomic coordinate data resulting 
# from the CCDC's data processing and validation procedures.
#
#######################################################################

data_DIXKOL
_symmetry_cell_setting           triclinic
_symmetry_space_group_name_H-M   'P -1'
_symmetry_Int_Tables_number      2
_space_group_name_Hall           '-P 1'
loop_
_symmetry_equiv_pos_site_id
_symmetry_equiv_pos_as_xyz
1 x,y,z
2 -x,-y,-z
_cell_length_a                   11.1575(8)
_cell_length_b                   11.2606(8)
_cell_length_c                   11.4240(9)
_cell_angle_alpha                76.7620(10)
_cell_angle_beta                 65.8140(10)
_cell_angle_gamma                80.6800(10)
_cell_volume                     1270.77
loop_
_atom_site_label
_atom_site_type_symbol
_atom_site_fract_x
_atom_site_fract_y
_atom_site_fract_z
Co1 Co 0.10282(2) 0.39292(2) 0.49932(2)
Co2 Co 0.02916(2) 0.57180(2) 0.71023(2)
Co3 Co -0.00718(2) 0.35928(2) 1.00867(2)
O1 O 0.03904(14) 0.38043(11) 0.70146(12)
O2 O -0.04994(14) 0.25945(12) 0.89608(12)
O3 O 0.03856(15) -0.24233(12) 0.68297(13)
O4 O -0.02686(15) -0.19396(12) 0.88146(13)
O5 O 0.15894(13) 0.40662(13) 0.30093(12)
O6 O 0.32358(15) 0.43219(17) 0.10489(13)
O7 O 0.79104(13) 0.35872(13) 0.13605(13)
O8 O 0.77736(13) 0.44887(13) 0.29853(13)
O9 O -0.04948(12) 0.52990(11) 0.90626(12)
H1 H -0.1268 0.5239 0.9219
O10 O -0.08278(12) 0.42420(11) 0.48836(11)
H2 H -0.1466 0.3725 0.5390
O11 O 0.19388(15) 0.32915(14) 0.87197(14)
N1 N 0.09289(16) 0.20295(14) 0.57214(15)
N2 N 0.31226(16) 0.37644(14) 0.42741(15)
C1 C 0.00346(19) 0.27884(17) 0.77458(18)
C2 C 0.03406(19) 0.17282(17) 0.70372(18)
C3 C 0.0090(2) 0.05381(17) 0.76818(18)
H3 H -0.0319 0.0356 0.8607
C4 C 0.04506(19) -0.03848(17) 0.69473(18)
C5 C 0.1071(2) -0.00831(18) 0.56071(19)
H4 H 0.1341 -0.0700 0.5086
C6 C 0.1297(2) 0.11353(18) 0.50273(18)
H5 H 0.1729 0.1335 0.4105
C7 C 0.01670(19) -0.16916(17) 0.75850(18)
C8 C 0.2804(2) 0.41387(19) 0.22474(19)
C9 C 0.37248(19) 0.39606(18) 0.29585(18)
C10 C 0.5068(2) 0.40140(19) 0.23157(19)
H6 H 0.5465 0.4142 0.1390
C11 C 0.58373(19) 0.38769(18) 0.30505(19)
C12 C 0.5218(2) 0.36624(19) 0.44043(19)
H7 H 0.5716 0.3558 0.4929
C13 C 0.3867(2) 0.36027(19) 0.49749(19)
H8 H 0.3451 0.3441 0.5900
C14 C 0.73019(19) 0.39787(17) 0.24035(18)
Co1A Co -0.10282(2) 0.60708(2) 0.50068(2)
Co2_2 Co 0.02916(2) -0.42820(2) 0.71023(2)
Co2A Co -0.02916(2) 0.42820(2) 0.28977(2)
Co2A_2 Co 0.97084(2) 0.42820(2) 0.28977(2)
Co3A Co 0.00718(2) -0.35928(2) 0.99133(2)
Co3_2 Co 0.99282(2) 0.35928(2) 0.00867(2)
Co3A_2 Co 0.00718(2) 0.64072(2) 0.99133(2)
O3_2 O 0.03856(15) 0.75767(12) 0.68297(13)
O4A O 0.02686(15) 0.19396(12) 1.11854(13)
O5A O -0.15894(13) 0.59338(13) 0.69907(12)
O7_2 O -0.20896(13) 0.35872(13) 1.13605(13)
O8A O 0.22264(13) 0.55113(13) 0.70147(13)
O9A O 0.04948(12) 0.47010(11) 1.09374(12)
H1A H 0.1268 0.4761 1.0781
O10A O 0.08278(12) 0.57580(11) 0.51164(11)
H2A H 0.1466 0.6275 0.4610
loop_
_geom_bond_atom_site_label_1
_geom_bond_atom_site_label_2
_geom_bond_site_symmetry_1
_geom_bond_site_symmetry_2
Co1 O1 1_555 1_555
Co2 O1 1_555 1_555
Co3 O2 1_555 1_555
O1 C1 1_555 1_555
O2 C1 1_555 1_555
O3 C7 1_555 1_555
O4 C7 1_555 1_555
O5 Co1 1_555 1_555
O6 C8 1_555 1_555
O7 C14 1_555 1_555
O8 C14 1_555 1_555
O9 Co2 1_555 1_555
H1 O9 1_555 1_555
O10 Co1 1_555 1_555
H2 O10 1_555 1_555
O11 Co3 1_555 1_555
N1 Co1 1_555 1_555
N2 Co1 1_555 1_555
C1 C2 1_555 1_555
C2 N1 1_555 1_555
C3 C2 1_555 1_555
H3 C3 1_555 1_555
C4 C3 1_555 1_555
C5 C4 1_555 1_555
H4 C5 1_555 1_555
C6 N1 1_555 1_555
H5 C6 1_555 1_555
C7 C4 1_555 1_555
C8 O5 1_555 1_555
C9 N2 1_555 1_555
C10 C9 1_555 1_555
H6 C10 1_555 1_555
C11 C10 1_555 1_555
C12 C11 1_555 1_555
H7 C12 1_555 1_555
C13 N2 1_555 1_555
H8 C13 1_555 1_555
C14 C11 1_555 1_555
Co1A O10 1_555 1_555
Co2_2 O3 1_555 1_555
Co2A O5 1_555 1_555
Co2A_2 O8 1_555 1_555
Co3A O4 1_555 1_555
Co3_2 O7 1_555 1_555
Co3A_2 O9 1_555 1_555
O3_2 Co2 1_555 1_555
O4A Co3 1_555 1_555
O5A Co2 1_555 1_555
O7_2 Co3 1_555 1_555
O8A Co2 1_555 1_555
O9A Co3 1_555 1_555
H1A O9A 1_555 1_555
O10A Co1 1_555 1_555
H2A O10A 1_555 1_555
Co2 O10A 1_555 1_555
Co3 O9 1_555 1_555
O10 Co2A 1_555 1_555
C5 C6 1_555 1_555
C8 C9 1_555 1_555
C12 C13 1_555 1_555
Co1A O5A 1_555 1_555
Co1A O10A 1_555 1_555
Co3A_2 O9A 1_555 1_555

#END
