
#######################################################################
#
#                 Cambridge Crystallographic Data Centre
#                                CCDC 
#
#######################################################################
#
# If this CIF has been generated from an entry in the Cambridge 
# Structural Database, then it will include bibliographic, chemical, 
# crystal, experimental, refinement or atomic coordinate data resulting 
# from the CCDC's data processing and validation procedures.
#
#######################################################################

data_DOKHIV
_symmetry_cell_setting           monoclinic
_symmetry_space_group_name_H-M   'C 2/c'
_symmetry_Int_Tables_number      15
_space_group_name_Hall           '-C 2yn'
loop_
_symmetry_equiv_pos_site_id
_symmetry_equiv_pos_as_xyz
1 x,y,z
2 1/2+x,1/2+y,z
3 -x,y,1/2-z
4 1/2-x,1/2+y,1/2-z
5 -x,-y,-z
6 1/2-x,1/2-y,-z
7 x,-y,1/2+z
8 1/2+x,1/2-y,1/2+z
_cell_length_a                   33.5656(8)
_cell_length_b                   6.6676(2)
_cell_length_c                   21.2236(5)
_cell_angle_alpha                90
_cell_angle_beta                 126.7420(10)
_cell_angle_gamma                90
_cell_volume                     3806.26
loop_
_atom_site_label
_atom_site_type_symbol
_atom_site_fract_x
_atom_site_fract_y
_atom_site_fract_z
S1 S 1.0000 0.9738(4) 0.7500
Cu1 Cu 0.89735(3) 0.65965(14) 0.64687(5)
Cu2 Cu 1.00132(3) 0.51301(14) 0.81957(5)
O1 O 0.8841(2) 0.6532(9) 0.7244(3)
O2 O 0.95322(19) 0.5546(10) 0.8394(3)
O3 O 0.95108(19) 0.5176(8) 1.0688(3)
O4 O 0.87856(19) 0.4384(9) 1.0458(3)
O5 O 0.7224(2) 0.5927(12) 0.7855(3)
O6 O 0.7249(2) 0.5857(10) 0.6827(3)
O7 O 0.95150(17) 0.4680(7) 0.7054(3)
O8 O 0.9664(2) 0.8439(8) 0.6805(3)
O9 O 0.9707(3) 1.0966(9) 0.7647(4)
C1 C 0.8793(3) 0.5857(12) 0.8282(4)
C2 C 0.9046(3) 0.5530(11) 0.9090(4)
H1 H 0.9391 0.5430 0.9422
C3 C 0.8776(3) 0.5356(11) 0.9389(4)
C4 C 0.8261(3) 0.5542(12) 0.8890(4)
H2 H 0.8083 0.5464 0.9095
C5 C 0.8015(3) 0.5836(12) 0.8101(4)
C6 C 0.8278(3) 0.6004(12) 0.7796(4)
H3 H 0.8110 0.6219 0.7260
C7 C 0.9087(3) 0.6000(12) 0.7958(4)
C8 C 0.9045(3) 0.4976(11) 1.0246(4)
C9 C 0.7452(3) 0.5902(13) 0.7582(5)
C10 C 0.8433(4) 1.0244(15) 0.6325(5)
H4 H 0.8678 1.0280 0.6865
C11 C 0.8077(4) 1.1693(16) 0.5994(5)
H5 H 0.8086 1.2680 0.6312
C12 C 0.7699(3) 1.1729(13) 0.5190(5)
C13 C 0.7721(4) 1.0225(16) 0.4761(5)
H6 H 0.7486 1.0189 0.4217
C14 C 0.8083(4) 0.8799(16) 0.5131(5)
H7 H 0.8076 0.7788 0.4823
N1 N 0.8448(3) 0.8747(11) 0.5906(4)
Cu1F Cu 0.89735(3) 0.34035(14) 0.14687(5)
Cu1F_2 Cu 0.89735(3) 0.34035(14) 1.14687(5)
Cu1B Cu 1.10265(3) 0.65965(14) 0.85313(5)
Cu1E Cu 0.60265(3) 1.84035(14) 0.35313(5)
Cu2F Cu 1.00132(3) 0.48699(14) 0.31957(5)
Cu2D Cu 0.99868(3) 0.48699(14) 1.18043(5)
Cu2B Cu 0.99868(3) 0.51301(14) 0.68043(5)
O1F O 0.8841(2) 0.3468(9) 0.2244(3)
O2F O 0.95322(19) 0.4454(10) 0.3394(3)
O3F O 0.95108(19) 0.4824(8) 0.5688(3)
O3D O 1.04892(19) 0.4824(8) 0.9312(3)
O3B O 1.04892(19) 0.5176(8) 0.4312(3)
O4F O 0.87856(19) 0.5616(9) 0.5458(3)
O4_2 O 0.87856(19) 0.4384(9) 0.0458(3)
O5F O 0.7224(2) 0.4073(12) 0.2855(3)
O6F O 0.7249(2) 0.4143(10) 0.1827(3)
O7B O 1.04850(17) 0.4680(7) 0.7946(3)
O7F O 0.95150(17) 0.5320(7) 0.2054(3)
O7D O 1.04850(17) 0.5320(7) 0.2946(3)
O8B O 1.0336(2) 0.8439(8) 0.8195(3)
O8F O 0.9664(2) 0.1561(8) 0.1805(3)
O9B O 1.0293(3) 1.0966(9) 0.7353(4)
C1F C 0.8793(3) 0.4143(12) 0.3282(4)
C2F C 0.9046(3) 0.4470(11) 0.4090(4)
H1F H 0.9391 0.4570 0.4422
C3F C 0.8776(3) 0.4644(11) 0.4389(4)
C4F C 0.8261(3) 0.4458(12) 0.3890(4)
H2F H 0.8083 0.4536 0.4095
C5F C 0.8015(3) 0.4164(12) 0.3101(4)
C6F C 0.8278(3) 0.3996(12) 0.2796(4)
H3F H 0.8110 0.3781 0.2260
C7F C 0.9087(3) 0.4000(12) 0.2958(4)
C8F C 0.9045(3) 0.5024(11) 0.5246(4)
C9F C 0.7452(3) 0.4098(13) 0.2582(5)
C10E C 0.6567(4) 1.4756(15) 0.3675(5)
H4E H 0.6322 1.4720 0.3135
C11E C 0.6923(4) 1.3307(16) 0.4006(5)
H5E H 0.6914 1.2320 0.3688
C12E C 0.7301(3) 1.3271(13) 0.4810(5)
C13E C 0.7279(4) 1.4775(16) 0.5239(5)
H6E H 0.7514 1.4811 0.5783
C14E C 0.6917(4) 1.6201(16) 0.4869(5)
H7E H 0.6924 1.7212 0.5177
N1E N 0.6552(3) 1.6253(11) 0.4094(4)
N1F N 0.8448(3) 0.1253(11) 0.0906(4)
C15 C 0.8905(3) 0.0709(14) 0.8605(5)
H8 H 0.8697 0.0959 0.8067
C16 C 0.9415(3) 0.0508(14) 0.8976(5)
H9 H 0.9543 0.0626 0.8693
C17 C 0.9727(3) 0.0125(11) 0.9785(4)
C18 C 0.9510(3) 0.0026(13) 1.0171(5)
H10 H 0.9708 -0.0165 1.0713
C19 C 0.9003(3) 0.0207(13) 0.9758(5)
H11 H 0.8864 0.0080 1.0027
N2 N 0.8702(2) 0.0559(11) 0.8984(4)
C15D C 1.1095(3) -0.0709(14) 1.1395(5)
H8D H 1.1303 -0.0959 1.1933
C16D C 1.0585(3) -0.0508(14) 1.1024(5)
H9D H 1.0457 -0.0626 1.1307
C17D C 1.0273(3) -0.0125(11) 1.0215(4)
C18D C 1.0490(3) -0.0026(13) 0.9829(5)
H10D H 1.0292 0.0165 0.9287
C19D C 1.0997(3) -0.0207(13) 1.0242(5)
H11D H 1.1136 -0.0080 0.9973
N2D N 1.1298(2) -0.0559(11) 1.1016(4)
loop_
_geom_bond_atom_site_label_1
_geom_bond_atom_site_label_2
_geom_bond_site_symmetry_1
_geom_bond_site_symmetry_2
S1 O8 1_555 1_555
Cu1 O1 1_555 1_555
Cu2 O2 1_555 1_555
O1 C7 1_555 1_555
O2 C7 1_555 1_555
O3 C8 1_555 1_555
O4 C8 1_555 1_555
O5 C9 1_555 1_555
O6 C9 1_555 1_555
O7 Cu1 1_555 1_555
O8 Cu1 1_555 1_555
O9 S1 1_555 1_555
C1 C2 1_555 1_555
C2 H1 1_555 1_555
C3 C2 1_555 1_555
C4 C3 1_555 1_555
H2 C4 1_555 1_555
C5 C4 1_555 1_555
C6 C1 1_555 1_555
H3 C6 1_555 1_555
C7 C1 1_555 1_555
C8 C3 1_555 1_555
C9 C5 1_555 1_555
C10 H4 1_555 1_555
C11 C10 1_555 1_555
H5 C11 1_555 1_555
C12 C11 1_555 1_555
C13 C12 1_555 1_555
H6 C13 1_555 1_555
C14 C13 1_555 1_555
H7 C14 1_555 1_555
C15 H8 1_555 1_555
C16 C15 1_555 1_555
H9 C16 1_555 1_555
C17 C16 1_555 1_555
C18 C17 1_555 1_555
H10 C18 1_555 1_555
C19 C18 1_555 1_555
H11 C19 1_555 1_555
N1 Cu1 1_555 1_555
N2 C15 1_555 1_555
Cu1F O1F 1_555 1_555
Cu1F_2 O4 1_555 1_555
Cu1B O7B 1_555 1_555
Cu1E N1E 1_555 1_555
Cu2F O2F 1_555 1_555
Cu2D O3 1_555 1_555
Cu2B O7 1_555 1_555
O1F C7F 1_555 1_555
O2F C7F 1_555 1_555
O3F Cu2B 1_555 1_555
O3D Cu2 1_555 1_555
O3B Cu2F 1_555 1_555
O4F Cu1 1_555 1_555
O4_2 Cu1F 1_555 1_555
O5F C9F 1_555 1_555
O6F C9F 1_555 1_555
O7B Cu2 1_555 1_555
O7F Cu1F 1_555 1_555
O7D Cu2F 1_555 1_555
O8B S1 1_555 1_555
O8F Cu1F 1_555 1_555
O9B S1 1_555 1_555
C1F C2F 1_555 1_555
C2F H1F 1_555 1_555
C3F C2F 1_555 1_555
C4F C3F 1_555 1_555
H2F C4F 1_555 1_555
C5F C4F 1_555 1_555
C6F C1F 1_555 1_555
H3F C6F 1_555 1_555
C7F C1F 1_555 1_555
C8F O3F 1_555 1_555
C9F C5F 1_555 1_555
C10E H4E 1_555 1_555
C11E C10E 1_555 1_555
H5E C11E 1_555 1_555
C12E C12 1_555 1_555
C13E C12E 1_555 1_555
H6E C13E 1_555 1_555
C14E C13E 1_555 1_555
H7E C14E 1_555 1_555
C15D H8D 1_555 1_555
C16D C15D 1_555 1_555
H9D C16D 1_555 1_555
C17D C17 1_555 1_555
C18D C17D 1_555 1_555
H10D C18D 1_555 1_555
C19D C18D 1_555 1_555
H11D C19D 1_555 1_555
N1E C10E 1_555 1_555
N1F Cu1F 1_555 1_555
N2D C15D 1_555 1_555
Cu2 O7 1_555 1_555
C5 C6 1_555 1_555
C10 N1 1_555 1_555
C14 N1 1_555 1_555
C19 N2 1_555 1_555
Cu1B O8B 1_555 1_555
Cu2F O7F 1_555 1_555
Cu2B O7B 1_555 1_555
O4F C8F 1_555 1_555
C3F C8F 1_555 1_555
C5F C6F 1_555 1_555
C11E C12E 1_555 1_555
C14E N1E 1_555 1_555
C16D C17D 1_555 1_555
C19D N2D 1_555 1_555

#END
