
#######################################################################
#
#                 Cambridge Crystallographic Data Centre
#                                CCDC 
#
#######################################################################
#
# If this CIF has been generated from an entry in the Cambridge 
# Structural Database, then it will include bibliographic, chemical, 
# crystal, experimental, refinement or atomic coordinate data resulting 
# from the CCDC's data processing and validation procedures.
#
#######################################################################

data_DOLFIV
_symmetry_cell_setting           orthorhombic
_symmetry_space_group_name_H-M   'P b c a'
_symmetry_Int_Tables_number      61
_space_group_name_Hall           '-P 2ac 2ab'
loop_
_symmetry_equiv_pos_site_id
_symmetry_equiv_pos_as_xyz
1 x,y,z
2 1/2-x,-y,1/2+z
3 -x,1/2+y,1/2-z
4 1/2+x,1/2-y,-z
5 -x,-y,-z
6 1/2+x,y,1/2-z
7 x,1/2-y,1/2+z
8 1/2-x,1/2+y,z
_cell_length_a                   15.432(4)
_cell_length_b                   9.771(3)
_cell_length_c                   16.690(4)
_cell_angle_alpha                90
_cell_angle_beta                 90
_cell_angle_gamma                90
_cell_volume                     2516.62
loop_
_atom_site_label
_atom_site_type_symbol
_atom_site_fract_x
_atom_site_fract_y
_atom_site_fract_z
Cu1 Cu 0.174768(16) -0.00528(2) 0.497926(13)
O1 O 0.17132(10) 0.18129(19) 0.56232(10)
O2 O 0.26772(11) 0.10422(17) 0.43548(10)
O3 O 0.33232(10) 0.30802(19) 0.43600(10)
O4 O 0.23132(10) 0.38896(17) 0.55771(9)
O5 O 0.07309(11) 0.06626(16) 0.43037(10)
O6 O -0.07093(12) 0.07541(17) 0.43172(10)
C1 C 0.22217(13) 0.2688(2) 0.53386(12)
C2 C 0.27874(13) 0.2225(2) 0.46213(12)
C3 C 0.00082(12) 0.0411(2) 0.45991(13)
O5D O -0.07309(11) -0.06626(16) 0.56963(10)
C3D C -0.00082(12) -0.0411(2) 0.54009(13)
O6D O 0.07093(12) -0.07541(17) 0.56828(10)
Cu1D Cu -0.174768(16) 0.00528(2) 0.502074(13)
O1D O -0.17132(10) -0.18129(19) 0.43768(10)
O2D O -0.26772(11) -0.10422(17) 0.56452(10)
O3D O -0.33232(10) -0.30802(19) 0.56400(10)
O4D O -0.23132(10) -0.38896(17) 0.44229(9)
C1D C -0.22217(13) -0.2688(2) 0.46614(12)
C2D C -0.27874(13) -0.2225(2) 0.53787(12)
Cu1C Cu -0.325232(16) -0.49472(2) 0.502074(13)
Cu1G Cu 0.325232(16) 0.49472(2) 0.497926(13)
O3C O -0.16768(10) 0.19198(19) 0.56400(10)
O3G O 0.16768(10) -0.19198(19) 0.43600(10)
O4C O -0.26868(10) 0.11104(17) 0.44229(9)
O4G O 0.26868(10) -0.11104(17) 0.55771(9)
O7 O -0.00405(11) 0.7480(2) 0.36278(11)
H1 H -0.0446(19) 0.766(3) 0.3864(18)
H2 H 0.0355(19) 0.762(3) 0.3897(19)
N1 N 0.02189(12) 0.78556(18) 0.19849(11)
C4 C 0.11729(14) 0.8188(2) 0.18905(13)
C5 C 0.13857(16) 0.9546(2) 0.22763(16)
C6 C 0.16792(15) 0.7006(3) 0.22492(14)
C7 C -0.04306(14) 0.8912(2) 0.17193(13)
C8 C -0.03346(17) 0.9193(3) 0.08328(14)
C9 C -0.13225(15) 0.8394(3) 0.19435(15)
H3 H 0.0120(17) 0.768(3) 0.251(2)
H4 H 0.0125(16) 0.718(4) 0.168(2)
H5 H 0.1278(17) 0.821(3) 0.1294(16)
H6 H 0.1244(18) 0.958(3) 0.2805(17)
H7 H 0.2014(19) 0.966(3) 0.2261(16)
H8 H 0.1075(18) 1.034(3) 0.2026(16)
H9 H 0.2313(19) 0.715(3) 0.2126(16)
H10 H 0.1642(17) 0.696(3) 0.2821(17)
H11 H 0.1492(18) 0.616(3) 0.2041(16)
H12 H -0.031(2) 0.970(3) 0.2027(17)
H13 H 0.027(2) 0.959(3) 0.0703(17)
H14 H -0.0460(18) 0.835(3) 0.0520(16)
H15 H -0.0762(19) 0.983(3) 0.0694(16)
H16 H -0.1410(18) 0.826(3) 0.2537(17)
H17 H -0.1482(18) 0.753(3) 0.1672(17)
H18 H -0.1741(17) 0.901(3) 0.1778(17)
loop_
_geom_bond_atom_site_label_1
_geom_bond_atom_site_label_2
_geom_bond_site_symmetry_1
_geom_bond_site_symmetry_2
Cu1 O1 1_555 1_555
O1 C1 1_555 1_555
O2 Cu1 1_555 1_555
O3 C2 1_555 1_555
O4 C1 1_555 1_555
O5 Cu1 1_555 1_555
O6 C3 1_555 1_555
C1 C2 1_555 1_555
C2 O2 1_555 1_555
C3 O5 1_555 1_555
O7 H1 1_555 1_555
H2 O7 1_555 1_555
N1 C4 1_555 1_555
C4 C5 1_555 1_555
C5 H6 1_555 1_555
C6 C4 1_555 1_555
C7 N1 1_555 1_555
C8 C7 1_555 1_555
C9 C7 1_555 1_555
H3 N1 1_555 1_555
H4 N1 1_555 1_555
H5 C4 1_555 1_555
H7 C5 1_555 1_555
H8 C5 1_555 1_555
H9 C6 1_555 1_555
H10 C6 1_555 1_555
H11 C6 1_555 1_555
H12 C7 1_555 1_555
H13 C8 1_555 1_555
H14 C8 1_555 1_555
H15 C8 1_555 1_555
H16 C9 1_555 1_555
H17 C9 1_555 1_555
H18 C9 1_555 1_555
O5D C3D 1_555 1_555
C3D C3 1_555 1_555
O6D Cu1 1_555 1_555
Cu1D O6 1_555 1_555
O1D Cu1D 1_555 1_555
O2D Cu1D 1_555 1_555
O3D C2D 1_555 1_555
O4D C1D 1_555 1_555
C1D O1D 1_555 1_555
C2D O2D 1_555 1_555
Cu1C O3D 1_555 1_555
Cu1G O3 1_555 1_555
O3C Cu1D 1_555 1_555
O3G Cu1 1_555 1_555
O4C Cu1D 1_555 1_555
O4G Cu1 1_555 1_555
O4 Cu1G 1_555 1_555
O5D Cu1D 1_555 1_555
C3D O6D 1_555 1_555
O4D Cu1C 1_555 1_555
C1D C2D 1_555 1_555

#END
