
#######################################################################
#
#                 Cambridge Crystallographic Data Centre
#                                CCDC 
#
#######################################################################
#
# If this CIF has been generated from an entry in the Cambridge 
# Structural Database, then it will include bibliographic, chemical, 
# crystal, experimental, refinement or atomic coordinate data resulting 
# from the CCDC's data processing and validation procedures.
#
#######################################################################

data_DOMGAP
_symmetry_cell_setting           monoclinic
_symmetry_space_group_name_H-M   'C 2/m'
_symmetry_Int_Tables_number      12
_space_group_name_Hall           '-C 2y'
loop_
_symmetry_equiv_pos_site_id
_symmetry_equiv_pos_as_xyz
1 x,y,z
2 -x,y,-z
3 1/2+x,1/2+y,z
4 1/2-x,1/2+y,-z
5 -x,-y,-z
6 x,-y,z
7 1/2-x,1/2-y,-z
8 1/2+x,1/2-y,z
_cell_length_a                   32.9116(9)
_cell_length_b                   34.7726(9)
_cell_length_c                   11.5106(3)
_cell_angle_alpha                90
_cell_angle_beta                 109.958(2)
_cell_angle_gamma                90
_cell_volume                     12381.9
loop_
_atom_site_label
_atom_site_type_symbol
_atom_site_fract_x
_atom_site_fract_y
_atom_site_fract_z
Na1 Na -0.25183(3) -0.07780(3) 0.98761(9)
Na2 Na -0.23424(5) 0.0000 0.49117(14)
Na3 Na -0.17558(5) -0.5000 1.00719(15)
O13 O -0.31514(11) 0.0000 0.4422(3)
H25 H -0.3232 -0.0213 0.4813
H25E H -0.3232 0.0213 0.4813
O14 O -0.15757(12) 0.0000 0.5319(4)
H26 H -0.1536 -0.0183 0.5825
H26E H -0.1536 0.0183 0.5825
O15 O -0.26000(10) -0.14124(7) 0.9933(3)
O16 O -0.10897(10) -0.5000 1.0089(3)
H27 H -0.0953 -0.5000 1.0961
H28 H -0.0872 -0.5000 0.9718
Gd1 Gd 0.207680(5) 0.0000 0.793156(16)
Gd2 Gd 0.263052(5) 0.0000 1.232439(16)
Zn1 Zn -0.036038(9) -0.261577(8) 0.70641(3)
O1 O -0.26048(6) -0.45865(5) 0.66902(17)
O2 O -0.22326(6) -0.45777(5) 0.86859(17)
O3 O 0.22880(8) 0.0000 1.0122(2)
O4 O 0.17596(6) -0.45816(6) 0.64657(18)
O5 O 0.18470(8) 0.0000 1.1204(2)
O6 O -0.23442(6) -0.04144(5) 0.64115(17)
O7 O 0.15816(8) 0.0000 0.9119(2)
O8 O 0.19310(6) -0.06861(5) 0.83912(17)
O9 O -0.23639(6) -0.06834(5) 0.81197(17)
O10 O 0.18782(6) -0.45887(5) 0.84682(17)
O11 O 0.14907(6) -0.04165(5) 0.67022(18)
N1 N -0.03960(7) -0.20302(6) 0.6716(2)
N2 N -0.10204(7) -0.26166(6) 0.6708(2)
N3 N 0.02178(7) -0.26247(6) 0.6739(2)
N4 N -0.03854(7) -0.32067(6) 0.6911(2)
C1 C -0.22966(8) -0.44588(7) 0.7595(2)
C2 C -0.19998(8) -0.41630(7) 0.7378(2)
C3 C 0.16718(8) -0.44664(7) 0.7386(2)
C4 C -0.22488(8) -0.06885(7) 0.7181(2)
C5 C 0.15939(8) -0.06945(7) 0.7456(3)
N5 N 0.18855(11) 0.0000 1.0155(3)
C6 C 0.13205(8) -0.41768(7) 0.7223(2)
C7 C -0.19884(9) -0.10183(8) 0.6989(3)
C8 C -0.00441(9) -0.17993(7) 0.6854(3)
C9 C 0.12941(8) -0.10319(8) 0.7243(3)
C10 C -0.11296(8) -0.33127(7) 0.6872(2)
C11 C -0.07222(9) -0.17942(7) 0.6765(3)
C12 C 0.03443(8) -0.33233(8) 0.6849(3)
C13 C -0.12750(8) -0.29313(8) 0.6662(3)
C14 C 0.04495(8) -0.29436(8) 0.6656(3)
C15 C -0.11399(9) -0.19148(8) 0.6661(3)
C16 C 0.06821(8) -0.36239(7) 0.6965(3)
C17 C -0.14389(8) -0.36080(7) 0.7022(3)
C18 C -0.20301(10) -0.40545(9) 0.6207(3)
H1 H -0.2243 -0.4167 0.5512
C19 C -0.07111(8) -0.34376(7) 0.7008(3)
C20 C -0.00436(8) -0.34431(7) 0.6988(2)
C21 C 0.09204(9) -0.10369(8) 0.6232(3)
H2 H 0.0865 -0.0837 0.5637
C22 C 0.03549(8) -0.19263(8) 0.6804(3)
C23 C 0.06937(9) -0.16288(8) 0.6929(3)
C24 C -0.18719(11) -0.13139(9) 0.7844(3)
H3 H -0.1972 -0.1314 0.8525
C25 C -0.12798(9) -0.23004(8) 0.6571(3)
C26 C -0.05667(9) -0.38321(8) 0.7167(3)
H4 H -0.0730 -0.4048 0.7258
C27 C -0.18484(9) -0.10249(8) 0.5976(3)
H5 H -0.1935 -0.0827 0.5371
C28 C -0.17489(10) -0.37791(10) 0.6038(3)
H6 H -0.1772 -0.3707 0.5221
C29 C 0.04590(8) -0.23121(8) 0.6662(3)
C30 C 0.08406(9) -0.28248(9) 0.6433(3)
H7 H 0.1052 -0.2989 0.6304
C31 C -0.14527(9) -0.16125(8) 0.6725(3)
C32 C -0.16082(11) -0.16103(9) 0.7709(3)
H8 H -0.1533 -0.1814 0.8295
C33 C -0.05669(10) -0.14004(8) 0.6964(3)
H9 H -0.0728 -0.1181 0.7034
C34 C -0.01558(9) -0.38366(8) 0.7163(3)
H10 H 0.0025 -0.4056 0.7257
C35 C 0.08445(9) -0.24376(9) 0.6444(3)
H11 H 0.1061 -0.2277 0.6330
C36 C 0.13800(10) -0.13357(9) 0.8077(3)
H12 H 0.1643 -0.1340 0.8761
C37 C -0.01514(9) -0.14062(8) 0.7030(3)
H13 H 0.0037 -0.1191 0.7167
C38 C -0.17187(10) -0.24221(9) 0.6381(3)
H14 H -0.1963 -0.2260 0.6240
C39 C -0.15826(9) -0.13200(8) 0.5849(3)
H15 H -0.1488 -0.1322 0.5156
C40 C 0.06237(9) -0.13327(9) 0.6077(3)
H16 H 0.0367 -0.1332 0.5373
C41 C 0.11113(13) -0.40124(12) 0.6106(3)
H17 H 0.1180 -0.4089 0.5403
C42 C -0.17001(14) -0.39847(14) 0.8367(3)
H18 H -0.1683 -0.4050 0.9183
C43 C 0.10841(10) -0.16328(9) 0.7915(3)
H19 H 0.1148 -0.1841 0.8483
C44 C -0.14222(13) -0.37102(14) 0.8188(3)
H20 H -0.1217 -0.3591 0.8885
C45 C -0.17150(9) -0.28097(9) 0.6444(3)
H21 H -0.1956 -0.2972 0.6361
O12 O -0.00373(19) -0.2579(2) 0.8970(6)
C46 C 0.07959(10) -0.3733(3) 0.5984(3)
H22 H 0.0658 -0.3616 0.5202
C47 C 0.11984(14) -0.40808(14) 0.8218(3)
H23 H 0.1328 -0.4205 0.8992
C48 C 0.08840(15) -0.38003(15) 0.8082(4)
H24 H 0.0807 -0.3729 0.8777
C49 C 0.0000 -0.26286(15) 1.0000
O12A O 0.00373(19) -0.2579(2) 1.1030(6)
Zn1A Zn 0.036038(9) -0.261577(8) 1.29359(3)
O1A O 0.26048(6) -0.45865(5) 1.33098(17)
O2A O 0.22326(6) -0.45777(5) 1.13141(17)
O4A O -0.17596(6) -0.45816(6) 1.35343(18)
O6A O 0.23442(6) -0.04144(5) 1.35885(17)
O8A O -0.19310(6) -0.06861(5) 1.16088(17)
O9A O 0.23639(6) -0.06834(5) 1.18803(17)
O10A O -0.18782(6) -0.45887(5) 1.15318(17)
O11A O -0.14907(6) -0.04165(5) 1.32978(18)
N1A N 0.03960(7) -0.20302(6) 1.3284(2)
N2A N 0.10204(7) -0.26166(6) 1.3292(2)
N3A N -0.02178(7) -0.26247(6) 1.3261(2)
N4A N 0.03854(7) -0.32067(6) 1.3089(2)
C1A C 0.22966(8) -0.44588(7) 1.2405(2)
C2A C 0.19998(8) -0.41630(7) 1.2622(2)
C3A C -0.16718(8) -0.44664(7) 1.2614(2)
C4A C 0.22488(8) -0.06885(7) 1.2819(2)
C5A C -0.15939(8) -0.06945(7) 1.2544(3)
C6A C -0.13205(8) -0.41768(7) 1.2777(2)
C7A C 0.19884(9) -0.10183(8) 1.3011(3)
C8A C 0.00441(9) -0.17993(7) 1.3146(3)
C9A C -0.12941(8) -0.10319(8) 1.2757(3)
C10A C 0.11296(8) -0.33127(7) 1.3128(2)
C11A C 0.07222(9) -0.17942(7) 1.3235(3)
C12A C -0.03443(8) -0.33233(8) 1.3151(3)
C13A C 0.12750(8) -0.29313(8) 1.3338(3)
C14A C -0.04495(8) -0.29436(8) 1.3344(3)
C15A C 0.11399(9) -0.19148(8) 1.3339(3)
C16A C -0.06821(8) -0.36239(7) 1.3035(3)
C17A C 0.14389(8) -0.36080(7) 1.2978(3)
C18A C 0.20301(10) -0.40545(9) 1.3793(3)
H1A H 0.2243 -0.4167 1.4488
C19A C 0.07111(8) -0.34376(7) 1.2992(3)
C20A C 0.00436(8) -0.34431(7) 1.3012(2)
C21A C -0.09204(9) -0.10369(8) 1.3768(3)
H2A H -0.0865 -0.0837 1.4363
C22A C -0.03549(8) -0.19263(8) 1.3196(3)
C23A C -0.06937(9) -0.16288(8) 1.3071(3)
C24A C 0.18719(11) -0.13139(9) 1.2156(3)
H3A H 0.1972 -0.1314 1.1475
C25A C 0.12798(9) -0.23004(8) 1.3429(3)
C26A C 0.05667(9) -0.38321(8) 1.2833(3)
H4A H 0.0730 -0.4048 1.2742
C27A C 0.18484(9) -0.10249(8) 1.4024(3)
H5A H 0.1935 -0.0827 1.4629
C28A C 0.17489(10) -0.37791(10) 1.3962(3)
H6A H 0.1772 -0.3707 1.4779
C29A C -0.04590(8) -0.23121(8) 1.3338(3)
C30A C -0.08406(9) -0.28248(9) 1.3567(3)
H7A H -0.1052 -0.2989 1.3696
C31A C 0.14527(9) -0.16125(8) 1.3275(3)
C32A C 0.16082(11) -0.16103(9) 1.2291(3)
H8A H 0.1533 -0.1814 1.1705
C33A C 0.05669(10) -0.14004(8) 1.3036(3)
H9A H 0.0728 -0.1181 1.2966
C34A C 0.01558(9) -0.38366(8) 1.2837(3)
H10A H -0.0025 -0.4056 1.2743
C35A C -0.08445(9) -0.24376(9) 1.3556(3)
H11A H -0.1061 -0.2277 1.3670
C36A C -0.13800(10) -0.13357(9) 1.1923(3)
H12A H -0.1643 -0.1340 1.1239
C37A C 0.01514(9) -0.14062(8) 1.2970(3)
H13A H -0.0037 -0.1191 1.2833
C38A C 0.17187(10) -0.24221(9) 1.3619(3)
H14A H 0.1963 -0.2260 1.3760
C39A C 0.15826(9) -0.13200(8) 1.4151(3)
H15A H 0.1488 -0.1322 1.4844
C40A C -0.06237(9) -0.13327(9) 1.3923(3)
H16A H -0.0367 -0.1332 1.4627
C41A C -0.11113(13) -0.40124(12) 1.3894(3)
H17A H -0.1180 -0.4089 1.4597
C42A C 0.17001(14) -0.39847(14) 1.1633(3)
H18A H 0.1683 -0.4050 1.0817
C43A C -0.10841(10) -0.16328(9) 1.2085(3)
H19A H -0.1148 -0.1841 1.1517
C44A C 0.14222(13) -0.37102(14) 1.1812(3)
H20A H 0.1217 -0.3591 1.1115
C45A C 0.17150(9) -0.28097(9) 1.3556(3)
H21A H 0.1956 -0.2972 1.3639
C46A C -0.07959(10) -0.3733(3) 1.4016(3)
H22A H -0.0658 -0.3616 1.4798
C47A C -0.11984(14) -0.40808(14) 1.1782(3)
H23A H -0.1328 -0.4205 1.1008
C48A C -0.08840(15) -0.38003(15) 1.1918(4)
H24A H -0.0807 -0.3729 1.1223
Gd1A Gd -0.207680(5) 0.0000 1.206844(16)
Gd1B Gd -0.292320(5) -0.5000 0.793156(16)
Gd1C Gd 0.292320(5) -0.5000 1.206844(16)
Gd2A Gd -0.263052(5) 0.0000 0.767561(16)
Gd2B Gd -0.236948(5) -0.5000 1.232439(16)
Gd2C Gd 0.236948(5) -0.5000 0.767561(16)
O1B O 0.23952(6) 0.04135(5) 0.66902(17)
O1G O 0.23952(6) -0.04135(5) 0.66902(17)
O2B O 0.27674(6) 0.04223(5) 0.86859(17)
O2G O 0.27674(6) -0.04223(5) 0.86859(17)
O4C O 0.32404(6) 0.04184(6) 1.35343(18)
O4F O 0.32404(6) -0.04184(6) 1.35343(18)
O6D O 0.23442(6) 0.04144(5) 1.35885(17)
O8E O 0.19310(6) 0.06861(5) 0.83912(17)
O9D O 0.23639(6) 0.06834(5) 1.18803(17)
O10C O 0.31218(6) 0.04113(5) 1.15318(17)
O10F O 0.31218(6) -0.04113(5) 1.15318(17)
O11E O 0.14907(6) 0.04165(5) 0.67022(18)
O17? O -0.02260(18) -0.2583(2) 0.8978(6)
loop_
_geom_bond_atom_site_label_1
_geom_bond_atom_site_label_2
_geom_bond_site_symmetry_1
_geom_bond_site_symmetry_2
Gd1 O3 1_555 1_555
Gd2 O3 1_555 1_555
Zn1 N1 1_555 1_555
O1 C1 1_555 1_555
O2 C1 1_555 1_555
O3 N5 1_555 1_555
O4 C3 1_555 1_555
O5 Gd2 1_555 1_555
O6 C4 1_555 1_555
O7 Gd1 1_555 1_555
O8 Gd1 1_555 1_555
O9 C4 1_555 1_555
O10 C3 1_555 1_555
O11 Gd1 1_555 1_555
N1 C8 1_555 1_555
N2 Zn1 1_555 1_555
N3 Zn1 1_555 1_555
N4 Zn1 1_555 1_555
C1 C2 1_555 1_555
C2 C18 1_555 1_555
C3 C6 1_555 1_555
C4 C7 1_555 1_555
C5 O8 1_555 1_555
N5 O5 1_555 1_555
C6 C41 1_555 1_555
C7 C24 1_555 1_555
C8 C22 1_555 1_555
C9 C5 1_555 1_555
C10 C13 1_555 1_555
C11 N1 1_555 1_555
C12 C14 1_555 1_555
C13 N2 1_555 1_555
C14 N3 1_555 1_555
C15 C11 1_555 1_555
C16 C12 1_555 1_555
C17 C10 1_555 1_555
C18 H1 1_555 1_555
C19 N4 1_555 1_555
C20 N4 1_555 1_555
C21 C9 1_555 1_555
H2 C21 1_555 1_555
C22 C23 1_555 1_555
C23 C40 1_555 1_555
C24 H3 1_555 1_555
C25 N2 1_555 1_555
C26 C19 1_555 1_555
H4 C26 1_555 1_555
C27 C7 1_555 1_555
H5 C27 1_555 1_555
C28 C17 1_555 1_555
H6 C28 1_555 1_555
C29 N3 1_555 1_555
C30 C14 1_555 1_555
H7 C30 1_555 1_555
C31 C15 1_555 1_555
C32 C24 1_555 1_555
H8 C32 1_555 1_555
C33 C11 1_555 1_555
H9 C33 1_555 1_555
C34 C20 1_555 1_555
H10 C34 1_555 1_555
C35 C29 1_555 1_555
H11 C35 1_555 1_555
C36 C9 1_555 1_555
H12 C36 1_555 1_555
C37 C8 1_555 1_555
H13 C37 1_555 1_555
C38 C25 1_555 1_555
H14 C38 1_555 1_555
C39 C27 1_555 1_555
H15 C39 1_555 1_555
C40 C21 1_555 1_555
H16 C40 1_555 1_555
C41 H17 1_555 1_555
C42 C2 1_555 1_555
H18 C42 1_555 1_555
C43 C23 1_555 1_555
H19 C43 1_555 1_555
C44 C17 1_555 1_555
H20 C44 1_555 1_555
C45 C13 1_555 1_555
H21 C45 1_555 1_555
O12 Zn1 1_555 1_555
C46 C16 1_555 1_555
H22 C46 1_555 1_555
C47 C6 1_555 1_555
H23 C47 1_555 1_555
C48 C16 1_555 1_555
H24 C48 1_555 1_555
C49 O12 1_555 1_555
O13 H25 1_555 1_555
O14 H26 1_555 1_555
O16 H27 1_555 1_555
H28 O16 1_555 1_555
O12A C49 1_555 1_555
Zn1A O12A 1_555 1_555
O1A C1A 1_555 1_555
O2A C1A 1_555 1_555
O4A C3A 1_555 1_555
O6A Gd2 1_555 1_555
O8A C5A 1_555 1_555
O9A Gd2 1_555 1_555
O10A C3A 1_555 1_555
O11A C5A 1_555 1_555
N1A Zn1A 1_555 1_555
N2A Zn1A 1_555 1_555
N3A Zn1A 1_555 1_555
N4A Zn1A 1_555 1_555
C1A C2A 1_555 1_555
C2A C18A 1_555 1_555
C3A C6A 1_555 1_555
C4A O6A 1_555 1_555
C5A C9A 1_555 1_555
C6A C41A 1_555 1_555
C7A C4A 1_555 1_555
C8A N1A 1_555 1_555
C9A C21A 1_555 1_555
C10A C13A 1_555 1_555
C11A N1A 1_555 1_555
C12A C14A 1_555 1_555
C13A N2A 1_555 1_555
C14A N3A 1_555 1_555
C15A C11A 1_555 1_555
C16A C12A 1_555 1_555
C17A C10A 1_555 1_555
C18A H1A 1_555 1_555
C19A N4A 1_555 1_555
C20A N4A 1_555 1_555
C21A H2A 1_555 1_555
C22A C8A 1_555 1_555
C23A C22A 1_555 1_555
C24A C7A 1_555 1_555
H3A C24A 1_555 1_555
C25A N2A 1_555 1_555
C26A C19A 1_555 1_555
H4A C26A 1_555 1_555
C27A C7A 1_555 1_555
H5A C27A 1_555 1_555
C28A C17A 1_555 1_555
H6A C28A 1_555 1_555
C29A N3A 1_555 1_555
C30A C14A 1_555 1_555
H7A C30A 1_555 1_555
C31A C15A 1_555 1_555
C32A C24A 1_555 1_555
H8A C32A 1_555 1_555
C33A C11A 1_555 1_555
H9A C33A 1_555 1_555
C34A C20A 1_555 1_555
H10A C34A 1_555 1_555
C35A C29A 1_555 1_555
H11A C35A 1_555 1_555
C36A C9A 1_555 1_555
H12A C36A 1_555 1_555
C37A C8A 1_555 1_555
H13A C37A 1_555 1_555
C38A C25A 1_555 1_555
H14A C38A 1_555 1_555
C39A C27A 1_555 1_555
H15A C39A 1_555 1_555
C40A C21A 1_555 1_555
H16A C40A 1_555 1_555
C41A H17A 1_555 1_555
C42A C2A 1_555 1_555
H18A C42A 1_555 1_555
C43A C23A 1_555 1_555
H19A C43A 1_555 1_555
C44A C17A 1_555 1_555
H20A C44A 1_555 1_555
C45A C13A 1_555 1_555
H21A C45A 1_555 1_555
C46A C16A 1_555 1_555
H22A C46A 1_555 1_555
C47A C6A 1_555 1_555
H23A C47A 1_555 1_555
C48A C16A 1_555 1_555
H24A C48A 1_555 1_555
Gd1A O8A 1_555 1_555
Gd1B O1 1_555 1_555
Gd1C O1A 1_555 1_555
Gd2A O6 1_555 1_555
Gd2B O4A 1_555 1_555
Gd2C O4 1_555 1_555
O1B Gd1 1_555 1_555
O1G Gd1 1_555 1_555
O2B Gd1 1_555 1_555
O2G Gd1 1_555 1_555
O4C Gd2 1_555 1_555
O4F Gd2 1_555 1_555
O6D Gd2 1_555 1_555
O8E Gd1 1_555 1_555
O9D Gd2 1_555 1_555
O10C Gd2 1_555 1_555
O10F Gd2 1_555 1_555
O11E Gd1 1_555 1_555
H25E O13 1_555 1_555
H26E O14 1_555 1_555
O2 Gd1B 1_555 1_555
O7 N5 1_555 1_555
O9 Gd2A 1_555 1_555
O10 Gd2C 1_555 1_555
O11 C5 1_555 1_555
C10 C19 1_555 1_555
C12 C20 1_555 1_555
C15 C25 1_555 1_555
C18 C28 1_555 1_555
C22 C29 1_555 1_555
C26 C34 1_555 1_555
C30 C35 1_555 1_555
C31 C32 1_555 1_555
C31 C39 1_555 1_555
C33 C37 1_555 1_555
C36 C43 1_555 1_555
C38 C45 1_555 1_555
C41 C46 1_555 1_555
C42 C44 1_555 1_555
C47 C48 1_555 1_555
O2A Gd1C 1_555 1_555
O9A C4A 1_555 1_555
O10A Gd2B 1_555 1_555
O11A Gd1A 1_555 1_555
C10A C19A 1_555 1_555
C12A C20A 1_555 1_555
C15A C25A 1_555 1_555
C18A C28A 1_555 1_555
C22A C29A 1_555 1_555
C23A C40A 1_555 1_555
C26A C34A 1_555 1_555
C30A C35A 1_555 1_555
C31A C32A 1_555 1_555
C31A C39A 1_555 1_555
C33A C37A 1_555 1_555
C36A C43A 1_555 1_555
C38A C45A 1_555 1_555
C41A C46A 1_555 1_555
C42A C44A 1_555 1_555
C47A C48A 1_555 1_555

#END
