
#######################################################################
#
#                 Cambridge Crystallographic Data Centre
#                                CCDC 
#
#######################################################################
#
# If this CIF has been generated from an entry in the Cambridge 
# Structural Database, then it will include bibliographic, chemical, 
# crystal, experimental, refinement or atomic coordinate data resulting 
# from the CCDC's data processing and validation procedures.
#
#######################################################################

data_DONXUB
_symmetry_cell_setting           orthorhombic
_symmetry_space_group_name_H-M   'P 21 21 21'
_symmetry_Int_Tables_number      19
_space_group_name_Hall           'P 2ac 2ab'
loop_
_symmetry_equiv_pos_site_id
_symmetry_equiv_pos_as_xyz
1 x,y,z
2 1/2-x,-y,1/2+z
3 -x,1/2+y,1/2-z
4 1/2+x,1/2-y,-z
_cell_length_a                   16.842(3)
_cell_length_b                   16.835(3)
_cell_length_c                   20.258(4)
_cell_angle_alpha                90
_cell_angle_beta                 90
_cell_angle_gamma                90
_cell_volume                     5743.85
loop_
_atom_site_label
_atom_site_type_symbol
_atom_site_fract_x
_atom_site_fract_y
_atom_site_fract_z
Co1 Co 1.14628(8) 0.69805(9) -0.49930(8)
Co2 Co 1.05003(9) 0.61359(9) -0.24015(7)
Co3 Co 1.13006(9) 0.74491(9) 0.00155(8)
Co4 Co 1.03779(10) 0.63205(10) 0.24236(7)
N1 N 1.0826(6) 0.8038(6) -0.4833(4)
N2 N 1.0150(7) 0.9161(7) -0.5100(5)
H1 H 0.9919 0.9515 -0.5346
N3 N 0.9955(6) 0.9994(7) -0.2741(5)
N4 N 1.0526(7) 0.8811(7) -0.2455(5)
H2 H 1.0708 0.8432 -0.2206
N5 N 0.9515(6) 0.6818(6) -0.2189(4)
N6 N 0.8405(6) 0.7476(7) -0.2448(5)
H3 H 0.8048 0.7714 -0.2687
N7 N 0.7402(6) 0.7217(6) -0.0130(5)
N8 N 0.8560(6) 0.6673(7) 0.0149(4)
H4 H 0.8923 0.6459 0.0397
N9 N 0.9469(6) 0.7066(6) 0.2572(4)
N10 N 0.8321(6) 0.7614(7) 0.2348(5)
H5 H 0.7932 0.7811 0.2118
N11 N 0.7625(6) 0.7695(7) 0.4756(4)
N12 N 0.8809(6) 0.7163(6) 0.4979(5)
H6 H 0.9200 0.6964 0.5206
N13 N 0.9985(6) 0.5201(7) 0.2539(5)
N14 N 0.9311(7) 0.4096(7) 0.2347(5)
H7 H 0.9058 0.3729 0.2130
N15 N 0.9423(7) 0.3306(6) 0.4735(5)
N16 N 1.0113(7) 0.4412(7) 0.4914(5)
H8 H 1.0377 0.4770 0.5132
C1 C 1.0512(8) 0.8467(8) -0.5308(5)
H9 H 1.0532 0.8315 -0.5754
C2 C 1.0213(8) 0.9522(8) -0.2245(6)
H10 H 1.0182 0.9667 -0.1798
C3 C 0.9089(7) 0.7208(8) -0.2661(6)
H11 H 0.9269 0.7277 -0.3096
C4 C 0.7847(8) 0.6907(8) 0.0337(5)
H12 H 0.7670 0.6856 0.0775
C5 C 0.8981(8) 0.7323(8) 0.2107(6)
H13 H 0.9096 0.7299 0.1654
C6 C 0.8118(7) 0.7443(9) 0.5228(5)
H14 H 0.7999 0.7459 0.5681
C7 C 0.9574(9) 0.4769(8) 0.2090(6)
H15 H 0.9486 0.4928 0.1651
C8 C 0.9766(7) 0.3739(8) 0.5189(6)
H16 H 0.9777 0.3613 0.5641
C9 C 1.0232(8) 0.9178(8) -0.4419(5)
C10 C 1.0621(8) 0.8449(7) -0.4246(5)
C11 C 1.0759(8) 0.8262(8) -0.3589(5)
H17 H 1.1014 0.7791 -0.3460
C12 C 1.0495(7) 0.8817(7) -0.3141(5)
C13 C 1.0133(7) 0.9544(7) -0.3316(5)
C14 C 0.9953(7) 0.9731(8) -0.3969(5)
H18 H 0.9669 1.0189 -0.4093
C15 C 0.8348(7) 0.7320(8) -0.1791(6)
C16 C 0.9068(7) 0.6922(7) -0.1627(5)
C17 C 0.9223(7) 0.6718(7) -0.0976(6)
H19 H 0.9717 0.6509 -0.0846
C18 C 0.8618(7) 0.6837(7) -0.0529(5)
C19 C 0.7879(7) 0.7202(8) -0.0703(6)
C20 C 0.7734(7) 0.7469(8) -0.1338(5)
H20 H 0.7262 0.7729 -0.1457
C21 C 0.8345(7) 0.7556(8) 0.3036(5)
C22 C 0.9084(7) 0.7190(7) 0.3172(5)
C23 C 0.9324(8) 0.7053(7) 0.3820(5)
H21 H 0.9825 0.6840 0.3924
C24 C 0.8781(8) 0.7250(8) 0.4297(6)
C25 C 0.8025(7) 0.7608(7) 0.4159(5)
C26 C 0.7801(7) 0.7772(8) 0.3525(6)
H22 H 0.7313 0.8014 0.3424
C27 C 0.9922(8) 0.4774(7) 0.3141(5)
C28 C 0.9495(8) 0.4060(7) 0.3005(5)
C29 C 0.9293(8) 0.3493(8) 0.3479(6)
H23 H 0.8999 0.3031 0.3387
C30 C 0.9577(7) 0.3691(8) 0.4110(5)
C31 C 0.9972(8) 0.4425(8) 0.4239(6)
C32 C 1.0181(7) 0.4959(8) 0.3763(5)
H24 H 1.0480 0.5417 0.3855
C33 C 1.2112(9) 0.4343(8) -0.4934(8)
H25 H 1.2044 0.4152 -0.4486
H26 H 1.2540 0.4054 -0.5145
H27 H 1.1624 0.4263 -0.5179
C34 C 1.3166(9) 0.5315(10) -0.5446(8)
H28 H 1.3644 0.5444 -0.5201
H29 H 1.3099 0.5693 -0.5803
H30 H 1.3211 0.4784 -0.5626
C35 C 1.2215(11) 0.4461(11) -0.3130(9)
H31 H 1.1728 0.4300 -0.3348
H32 H 1.2514 0.3994 -0.3001
H33 H 1.2530 0.4781 -0.3430
C36 C 1.2903(9) 0.5292(9) -0.2175(7)
H34 H 1.2867 0.5705 -0.1843
H35 H 1.3199 0.5489 -0.2552
H36 H 1.3173 0.4834 -0.1991
S1 S 1.05316(17) 0.60506(17) -0.40102(12)
S2 S 1.14197(17) 0.70217(18) -0.14691(11)
S3 S 1.16410(17) 0.70492(18) 0.33603(12)
S4 S 1.06397(19) 0.60658(19) 0.09428(14)
S5 S 1.23440(19) 0.5362(2) -0.49179(15)
S6 S 1.1981(2) 0.5028(2) -0.24178(14)
O1 O 1.1263(5) 0.6535(5) -0.4072(4)
O2 O 1.0160(5) 0.6233(6) -0.3374(4)
O3 O 1.0011(5) 0.6262(5) -0.4561(4)
O4 O 1.0718(5) 0.5180(5) -0.4027(4)
O5 O 1.0989(5) 0.6237(5) -0.1436(4)
O6 O 1.1114(5) 0.7567(5) -0.0946(3)
O7 O 1.1265(5) 0.7385(5) -0.2112(4)
O8 O 1.2259(5) 0.6894(6) -0.1368(4)
O9 O 1.1130(6) 0.6424(6) 0.0401(4)
O10 O 1.0944(5) 0.6395(5) 0.1581(4)
O11 O 1.0752(7) 0.5198(5) 0.0935(4)
O12 O 0.9799(6) 0.6291(8) 0.0916(5)
O13 O 1.1125(5) 0.6365(5) 0.3139(4)
O14 O 1.1392(6) 0.7292(5) 0.4033(3)
O15 O 1.2471(5) 0.6805(6) 0.3364(4)
O16 O 1.1526(6) 0.7717(5) 0.2901(4)
O17 O 1.1682(5) 0.5821(5) -0.5308(4)
O18 O 1.1617(5) 0.5783(5) -0.2693(4)
Co1_2 Co 1.14628(8) 0.69805(9) 0.50070(8)
Co1C Co 0.64628(8) 0.80195(9) 0.49930(8)
Co2B Co 0.94997(9) 1.11359(9) -0.25985(7)
Co3B Co 0.86994(9) 0.24491(9) 0.49845(8)
Co3C Co 0.63006(9) 0.75509(9) -0.00155(8)
N3B N 1.0045(6) 0.4994(7) -0.2259(5)
N7C N 1.2402(6) 0.7783(6) 0.0130(5)
N11C N 1.2625(6) 0.7305(7) -0.4756(4)
N15B N 1.0577(7) 0.8306(6) 0.0265(5)
O14_2 O 1.1392(6) 0.7292(5) -0.5967(3)
loop_
_geom_bond_atom_site_label_1
_geom_bond_atom_site_label_2
_geom_bond_site_symmetry_1
_geom_bond_site_symmetry_2
Co1 N1 1_555 1_555
Co2 N5 1_555 1_555
Co3 O6 1_555 1_555
Co4 N9 1_555 1_555
N1 C1 1_555 1_555
N2 H1 1_555 1_555
N3 C2 1_555 1_555
N4 H2 1_555 1_555
N5 C3 1_555 1_555
N6 H3 1_555 1_555
N7 C4 1_555 1_555
N8 H4 1_555 1_555
N9 C5 1_555 1_555
N10 H5 1_555 1_555
N11 C6 1_555 1_555
N12 H6 1_555 1_555
N13 Co4 1_555 1_555
N14 H7 1_555 1_555
N15 C8 1_555 1_555
N16 H8 1_555 1_555
C1 N2 1_555 1_555
H9 C1 1_555 1_555
C2 N4 1_555 1_555
H10 C2 1_555 1_555
C3 N6 1_555 1_555
H11 C3 1_555 1_555
C4 N8 1_555 1_555
H12 C4 1_555 1_555
C5 N10 1_555 1_555
H13 C5 1_555 1_555
C6 N12 1_555 1_555
H14 C6 1_555 1_555
C7 N13 1_555 1_555
H15 C7 1_555 1_555
C8 N16 1_555 1_555
H16 C8 1_555 1_555
C9 N2 1_555 1_555
C10 N1 1_555 1_555
C11 C10 1_555 1_555
H17 C11 1_555 1_555
C12 N4 1_555 1_555
C13 N3 1_555 1_555
C14 C9 1_555 1_555
H18 C14 1_555 1_555
C15 N6 1_555 1_555
C16 N5 1_555 1_555
C17 C16 1_555 1_555
H19 C17 1_555 1_555
C18 N8 1_555 1_555
C19 N7 1_555 1_555
C20 C15 1_555 1_555
H20 C20 1_555 1_555
C21 N10 1_555 1_555
C22 N9 1_555 1_555
C23 C22 1_555 1_555
H21 C23 1_555 1_555
C24 N12 1_555 1_555
C25 N11 1_555 1_555
C26 C21 1_555 1_555
H22 C26 1_555 1_555
C27 N13 1_555 1_555
C28 N14 1_555 1_555
C29 C28 1_555 1_555
H23 C29 1_555 1_555
C30 N15 1_555 1_555
C31 N16 1_555 1_555
C32 C27 1_555 1_555
H24 C32 1_555 1_555
C33 H25 1_555 1_555
H26 C33 1_555 1_555
H27 C33 1_555 1_555
C34 H28 1_555 1_555
H29 C34 1_555 1_555
H30 C34 1_555 1_555
C35 H31 1_555 1_555
H32 C35 1_555 1_555
H33 C35 1_555 1_555
C36 H34 1_555 1_555
H35 C36 1_555 1_555
H36 C36 1_555 1_555
S1 O1 1_555 1_555
S2 O5 1_555 1_555
S3 O13 1_555 1_555
S4 O9 1_555 1_555
S5 C33 1_555 1_555
S6 C35 1_555 1_555
O1 Co1 1_555 1_555
O2 Co2 1_555 1_555
O3 S1 1_555 1_555
O4 S1 1_555 1_555
O5 Co2 1_555 1_555
O6 S2 1_555 1_555
O7 S2 1_555 1_555
O8 S2 1_555 1_555
O9 Co3 1_555 1_555
O10 Co4 1_555 1_555
O11 S4 1_555 1_555
O12 S4 1_555 1_555
O13 Co4 1_555 1_555
O14 S3 1_555 1_555
O15 S3 1_555 1_555
O16 S3 1_555 1_555
O17 Co1 1_555 1_555
O18 Co2 1_555 1_555
Co1_2 O14 1_555 1_555
Co1C N11 1_555 1_555
Co2B N3 1_555 1_555
Co3B N15 1_555 1_555
Co3C N7 1_555 1_555
N3B Co2 1_555 1_555
N7C Co3 1_555 1_555
N11C Co1 1_555 1_555
N15B Co3 1_555 1_555
O14_2 Co1 1_555 1_555
N14 C7 1_555 1_555
C9 C10 1_555 1_555
C11 C12 1_555 1_555
C12 C13 1_555 1_555
C13 C14 1_555 1_555
C15 C16 1_555 1_555
C17 C18 1_555 1_555
C18 C19 1_555 1_555
C19 C20 1_555 1_555
C21 C22 1_555 1_555
C23 C24 1_555 1_555
C24 C25 1_555 1_555
C25 C26 1_555 1_555
C27 C28 1_555 1_555
C29 C30 1_555 1_555
C30 C31 1_555 1_555
C31 C32 1_555 1_555
C34 S5 1_555 1_555
C36 S6 1_555 1_555
S1 O2 1_555 1_555
S4 O10 1_555 1_555
S5 O17 1_555 1_555
S6 O18 1_555 1_555

#END
