
#######################################################################
#
#                 Cambridge Crystallographic Data Centre
#                                CCDC 
#
#######################################################################
#
# If this CIF has been generated from an entry in the Cambridge 
# Structural Database, then it will include bibliographic, chemical, 
# crystal, experimental, refinement or atomic coordinate data resulting 
# from the CCDC's data processing and validation procedures.
#
#######################################################################

data_DOYHUW
_symmetry_cell_setting           triclinic
_symmetry_space_group_name_H-M   'P -1'
_symmetry_Int_Tables_number      2
_space_group_name_Hall           '-P 1'
loop_
_symmetry_equiv_pos_site_id
_symmetry_equiv_pos_as_xyz
1 x,y,z
2 -x,-y,-z
_cell_length_a                   9.5137(3)
_cell_length_b                   16.1134(4)
_cell_length_c                   27.5845(7)
_cell_angle_alpha                91.802(2)
_cell_angle_beta                 91.489(2)
_cell_angle_gamma                94.441(2)
_cell_volume                     4212.16
loop_
_atom_site_label
_atom_site_type_symbol
_atom_site_fract_x
_atom_site_fract_y
_atom_site_fract_z
Zn1 Zn 0.97161(5) 1.01331(3) 0.15163(2)
Zn2 Zn 0.37893(5) 0.46171(3) 0.03075(2)
Zn3 Zn 0.12525(5) 1.04650(3) 0.47407(2)
Zn4 Zn 0.52723(5) 0.53236(3) 0.34459(2)
O1 O 0.4043(3) 0.59245(15) 0.30059(9)
O2 O 0.3014(3) 0.09479(15) 0.44689(9)
O3 O 0.5758(3) 0.63457(15) 0.01718(9)
O4 O 0.9463(3) 0.09313(16) 0.20771(10)
O5 O 1.2019(3) 0.41608(15) 0.05759(9)
O6 O 0.5432(3) 0.42824(16) 0.07127(9)
O7 O 0.4099(3) 0.57762(15) 0.06478(10)
O8 O 0.1036(3) 0.94803(17) 0.19152(10)
O9 O 0.5494(3) 0.42708(15) 0.30686(9)
O10 O 0.6968(3) 0.39143(16) 0.36534(9)
O11 O 0.8422(3) 0.14432(16) 0.14463(9)
O12 O 0.7154(3) 0.48034(16) 0.02428(9)
O13 O 0.2605(3) 0.20671(16) 0.40403(10)
O14 O -0.0926(4) 0.87055(19) 0.46977(11)
O15 O 0.41472(11) 0.49200(7) 0.40214(4)
H1 H 0.4705 0.4774 0.4256
H2 H 0.3571 0.4487 0.3937
O16 O 0.78377(16) 0.02565(9) 0.47753(6)
O17 O 0.79182(13) 0.94879(6) 0.14784(4)
O18 O 0.95853(16) 0.09179(9) 0.43989(6)
O19 O 1.12139(13) 1.03816(7) 0.10511(4)
H3 H 1.2027 1.0137 0.1033
H4 H 1.1200 1.0759 0.0820
O20 O -0.33693(10) 0.61560(7) 0.38321(4)
O21 O 0.23804(11) 0.90137(7) 0.13301(4)
O22 O 0.83805(12) 0.90373(6) 0.07329(4)
C1 C 0.08975(12) 0.81644(6) 0.36212(4)
H5 H 0.1632 0.8600 0.3639
C2 C 0.8152(4) 0.2098(2) 0.22308(12)
O23 O -0.2681(3) 0.58713(19) 0.30955(11)
C3 C 0.8702(4) 0.1462(2) 0.18901(13)
C4 C 0.1609(4) 0.8249(2) 0.25139(14)
H6 H 0.0867 0.8598 0.2573
O24 O 0.3307(3) 0.67635(19) 0.35890(10)
C5 C 0.8321(4) 0.0752(2) 0.44802(12)
C6 C 0.7313(4) 0.3438(2) 0.24281(13)
H7 H 0.7163 0.3989 0.2337
C7 C 0.6438(4) 0.3832(2) 0.32376(14)
C8 C 0.7794(4) 0.1855(2) 0.26944(13)
H8 H 0.7968 0.1308 0.2787
C9 C 0.8341(4) 0.32450(19) 0.16145(12)
C10 C 0.3379(4) 0.1535(2) 0.41934(12)
C11 C 0.7272(4) 0.1191(2) 0.41875(12)
O25 O 1.2499(3) 0.32219(18) 0.11322(10)
C12 C 0.5874(4) 0.1154(2) 0.43110(12)
H9 H 0.5570 0.0833 0.4578
O26 O 0.0789(4) 0.9403(2) 0.43218(13)
C13 C 0.3003(4) 0.7151(2) 0.27762(13)
C14 C 0.7192(4) 0.2374(2) 0.30268(13)
C15 C 0.2369(4) 0.8359(2) 0.20964(13)
C16 C 1.1693(4) 0.3662(2) 0.09127(13)
C17 C 0.9728(4) 0.3243(2) 0.14692(12)
H10 H 1.0389 0.2973 0.1660
C18 C 0.7906(3) 0.2909(2) 0.20932(12)
C19 C 0.3463(4) 0.7838(2) 0.20119(13)
C20 C 0.3477(4) 0.6569(2) 0.31564(13)
C21 C 0.5100(4) 0.7122(2) 0.08613(13)
C22 C 0.0869(4) 0.7558(2) 0.32519(13)
C23 C 0.6709(4) 0.43961(19) 0.05946(12)
C24 C 0.7696(4) 0.1620(2) 0.37761(12)
H11 H 0.8653 0.1635 0.3684
C25 C 0.6931(4) 0.3193(2) 0.28908(13)
C26 C 0.7647(5) 0.9019(2) 0.11010(14)
C27 C 1.0165(4) 0.3633(2) 0.10474(13)
C28 C 0.7771(4) 0.3994(2) 0.08987(12)
C29 C 0.4899(4) 0.1580(2) 0.40495(13)
C30 C 0.1878(4) 0.7655(2) 0.28502(13)
C31 C 0.9173(4) 0.4018(2) 0.07677(12)
H12 H 0.9460 0.4299 0.0485
C32 C 0.6734(4) 0.2026(2) 0.35002(13)
C33 C -0.1245(4) 0.7511(2) 0.39337(13)
H13 H -0.1971 0.7497 0.4164
C34 C 0.4210(4) 0.7178(2) 0.12460(13)
H14 H 0.3483 0.6750 0.1288
C35 C 0.6202(4) 0.7739(2) 0.08004(13)
H15 H 0.6816 0.7698 0.0536
C36 C 0.7349(4) 0.3606(2) 0.13267(12)
H16 H 0.6392 0.3591 0.1419
C37 C 0.4967(4) 0.6353(2) 0.05344(13)
C38 C -0.0089(4) 0.8815(2) 0.43612(13)
C39 C -0.0155(4) 0.8136(2) 0.39679(13)
C40 C 0.3763(4) 0.7251(2) 0.23553(13)
H17 H 0.4514 0.6908 0.2299
C41 C 0.6384(4) 0.8416(2) 0.11338(14)
C42 C 0.5450(4) 0.8468(2) 0.15170(14)
H18 H 0.5563 0.8930 0.1741
C43 C 0.5339(4) 0.2030(2) 0.36475(13)
H19 H 0.4690 0.2338 0.3475
C44 C -0.0208(4) 0.6934(2) 0.32265(14)
H20 H -0.0221 0.6516 0.2975
C45 C -0.2507(4) 0.6263(2) 0.34867(15)
C46 C -0.1274(4) 0.6905(2) 0.35615(14)
C47 C 0.4368(4) 0.7859(2) 0.15751(14)
C48 C 0.1916(4) 0.8994(2) 0.17470(14)
Zn1_2 Zn -0.02839(5) 1.01331(3) 0.15163(2)
Zn1_3 Zn 0.97161(5) 0.01331(3) 0.15163(2)
Zn2_2 Zn 1.37893(5) 0.46171(3) 0.03075(2)
Zn2A Zn 0.62107(5) 0.53829(3) -0.03075(2)
Zn3_2 Zn 0.12525(5) 0.04650(3) 0.47407(2)
Zn3_3 Zn 1.12525(5) 0.04650(3) 0.47407(2)
Zn3A Zn -0.12525(5) 0.95350(3) 0.52593(2)
Zn3A_2 Zn 0.87475(5) -0.04650(3) 0.52593(2)
Zn4_2 Zn -0.47277(5) 0.53236(3) 0.34459(2)
O2_2 O 0.3014(3) 1.09479(15) 0.44689(9)
O3A O 0.4242(3) 0.36543(15) -0.01718(9)
O4_2 O 0.9463(3) 1.09313(16) 0.20771(10)
O5_2 O 0.2019(3) 0.41608(15) 0.05759(9)
O8_2 O 1.1036(3) 0.94803(17) 0.19152(10)
O11_2 O 0.8422(3) 1.14432(16) 0.14463(9)
O12A O 0.2846(3) 0.51966(16) -0.02428(9)
O14A O 0.0926(4) 1.12945(19) 0.53023(11)
O16A O 0.21623(16) 0.97435(9) 0.52247(6)
O18_2 O -0.04147(16) 1.09179(9) 0.43989(6)
O20_2 O 0.66307(10) 0.61560(7) 0.38321(4)
O23_2 O 0.7319(3) 0.58713(19) 0.30955(11)
loop_
_geom_bond_atom_site_label_1
_geom_bond_atom_site_label_2
_geom_bond_site_symmetry_1
_geom_bond_site_symmetry_2
Zn1 O17 1_555 1_555
Zn2 O6 1_555 1_555
Zn3 O26 1_555 1_555
Zn4 O1 1_555 1_555
O1 C20 1_555 1_555
O2 C10 1_555 1_555
O3 C37 1_555 1_555
O4 C3 1_555 1_555
O5 C16 1_555 1_555
O6 C23 1_555 1_555
O7 Zn2 1_555 1_555
O8 C48 1_555 1_555
O9 Zn4 1_555 1_555
O10 C7 1_555 1_555
O11 C3 1_555 1_555
O12 C23 1_555 1_555
O13 C10 1_555 1_555
O14 C38 1_555 1_555
O15 Zn4 1_555 1_555
H1 O15 1_555 1_555
H2 O15 1_555 1_555
O16 C5 1_555 1_555
O17 C26 1_555 1_555
O18 C5 1_555 1_555
O19 Zn1 1_555 1_555
H3 O19 1_555 1_555
H4 O19 1_555 1_555
O20 C45 1_555 1_555
O21 C48 1_555 1_555
O22 C26 1_555 1_555
C1 H5 1_555 1_555
C2 C3 1_555 1_555
O23 C45 1_555 1_555
C4 H6 1_555 1_555
O24 C20 1_555 1_555
C5 C11 1_555 1_555
C6 H7 1_555 1_555
C7 O9 1_555 1_555
C8 C2 1_555 1_555
H8 C8 1_555 1_555
C9 C17 1_555 1_555
C10 C29 1_555 1_555
C11 C12 1_555 1_555
O25 C16 1_555 1_555
C12 H9 1_555 1_555
O26 C38 1_555 1_555
C13 C20 1_555 1_555
C14 C8 1_555 1_555
C15 C4 1_555 1_555
C16 C27 1_555 1_555
C17 H10 1_555 1_555
C18 C2 1_555 1_555
C19 C15 1_555 1_555
C21 C34 1_555 1_555
C22 C1 1_555 1_555
C23 C28 1_555 1_555
C24 C11 1_555 1_555
H11 C24 1_555 1_555
C25 C6 1_555 1_555
C26 C41 1_555 1_555
C27 C17 1_555 1_555
C28 C31 1_555 1_555
C29 C12 1_555 1_555
C30 C4 1_555 1_555
C31 C27 1_555 1_555
H12 C31 1_555 1_555
C32 C14 1_555 1_555
C33 H13 1_555 1_555
C34 H14 1_555 1_555
C35 C21 1_555 1_555
H15 C35 1_555 1_555
C36 C9 1_555 1_555
H16 C36 1_555 1_555
C37 O7 1_555 1_555
C38 C39 1_555 1_555
C39 C1 1_555 1_555
C40 C13 1_555 1_555
H17 C40 1_555 1_555
C41 C35 1_555 1_555
C42 C41 1_555 1_555
H18 C42 1_555 1_555
C43 C29 1_555 1_555
H19 C43 1_555 1_555
C44 C22 1_555 1_555
H20 C44 1_555 1_555
C45 C46 1_555 1_555
C46 C33 1_555 1_555
C47 C19 1_555 1_555
C48 C15 1_555 1_555
Zn1_2 O8 1_555 1_555
Zn1_3 O4 1_555 1_555
Zn2_2 O5 1_555 1_555
Zn2A O3 1_555 1_555
Zn3_2 O2 1_555 1_555
Zn3_3 O18 1_555 1_555
Zn3A O14 1_555 1_555
Zn3A_2 O16 1_555 1_555
Zn4_2 O20 1_555 1_555
O2_2 Zn3 1_555 1_555
O3A Zn2 1_555 1_555
O4_2 Zn1 1_555 1_555
O5_2 Zn2 1_555 1_555
O8_2 Zn1 1_555 1_555
O11_2 Zn1 1_555 1_555
O12A Zn2 1_555 1_555
O14A Zn3 1_555 1_555
O16A Zn3 1_555 1_555
O18_2 Zn3 1_555 1_555
O20_2 Zn4 1_555 1_555
O23_2 Zn4 1_555 1_555
O11 Zn1_3 1_555 1_555
O12 Zn2A 1_555 1_555
O23 Zn4_2 1_555 1_555
C6 C18 1_555 1_555
C7 C25 1_555 1_555
C9 C18 1_555 1_555
C13 C30 1_555 1_555
C14 C25 1_555 1_555
C19 C40 1_555 1_555
C21 C37 1_555 1_555
C22 C30 1_555 1_555
C24 C32 1_555 1_555
C28 C36 1_555 1_555
C32 C43 1_555 1_555
C33 C39 1_555 1_555
C34 C47 1_555 1_555
C42 C47 1_555 1_555
C44 C46 1_555 1_555

#END
