
#######################################################################
#
#                 Cambridge Crystallographic Data Centre
#                                CCDC 
#
#######################################################################
#
# If this CIF has been generated from an entry in the Cambridge 
# Structural Database, then it will include bibliographic, chemical, 
# crystal, experimental, refinement or atomic coordinate data resulting 
# from the CCDC's data processing and validation procedures.
#
#######################################################################

data_DOZCEC
_symmetry_cell_setting           tetragonal
_symmetry_space_group_name_H-M   'P 4/m m m'
_symmetry_Int_Tables_number      123
_space_group_name_Hall           '-P 4 2'
loop_
_symmetry_equiv_pos_site_id
_symmetry_equiv_pos_as_xyz
1 x,y,z
2 -x,-y,z
3 -y,x,z
4 y,-x,z
5 -x,y,-z
6 x,-y,-z
7 y,x,-z
8 -y,-x,-z
9 -x,-y,-z
10 x,y,-z
11 y,-x,-z
12 -y,x,-z
13 x,-y,z
14 -x,y,z
15 -y,-x,z
16 y,x,z
_cell_length_a                   20.3157(6)
_cell_length_b                   20.3157(6)
_cell_length_c                   19.9180(10)
_cell_angle_alpha                90
_cell_angle_beta                 90
_cell_angle_gamma                90
_cell_volume                     8220.71
loop_
_atom_site_label
_atom_site_type_symbol
_atom_site_fract_x
_atom_site_fract_y
_atom_site_fract_z
Cl2 Cl 0.1258(5) 0.5000 0.5000
Cl2A Cl -0.1258(5) -0.5000 0.5000
Cl2A_2 Cl -0.1258(5) 0.5000 0.5000
Cl2_2 Cl 0.1258(5) -0.5000 0.5000
Mn3 Mn 0.0000 0.0320(10) 0.2148(12)
Mn3A Mn 0.0000 -0.0320(10) 0.2148(12)
Mn3B Mn -0.0320(10) 0.0000 0.2148(12)
Mn3C Mn 0.0320(10) 0.0000 0.2148(12)
Mn1 Mn 0.0000 0.5000 0.5000
Mn2 Mn 0.09427(3) 0.09427(3) 0.0000
Cl1 Cl 0.0000 0.0000 0.0000
O1 O 0.16875(18) 0.16875(18) 0.0000
N1 N 0.0000 0.4016(3) 0.5000
N2 N 0.0000 0.5000 0.4002(3)
N3 N 0.05469(16) 0.17932(13) 0.12765(13)
N4 N 0.03192(12) 0.14304(11) 0.07726(12)
C1 C 0.0000 0.3602(2) 0.4447(3)
C2 C 0.0000 0.3797(3) 0.3795(3)
C3 C 0.0000 0.4474(2) 0.3582(3)
C4 C 0.0000 0.2930(3) 0.4672(3)
H1 H 0.0000 0.2559 0.4398
C5 C 0.0000 0.4678(3) 0.2904(3)
H2 H 0.0000 0.4406 0.2528
C6 C 0.0000 0.3304(3) 0.3247(3)
C7 C -0.0588(4) 0.3087(3) 0.2992(3)
H3 H -0.0985 0.3226 0.3175
C8 C -0.0571(3) 0.2647(4) 0.2445(3)
H4 H -0.0967 0.2497 0.2266
C9 C 0.0000 0.2434(2) 0.2171(2)
C10 C 0.0000 0.2001(2) 0.1576(2)
N1A N 0.0000 0.5984(3) 0.5000
N3A N -0.05469(16) 0.82068(13) 0.12765(13)
N4A N -0.03192(12) 0.85696(11) 0.07726(12)
C1A C 0.0000 0.6398(2) 0.4447(3)
C2A C 0.0000 0.6203(3) 0.3795(3)
C3A C 0.0000 0.5526(2) 0.3582(3)
C4A C 0.0000 0.7070(3) 0.4672(3)
H1A H 0.0000 0.7441 0.4398
C5A C 0.0000 0.5322(3) 0.2904(3)
H2A H 0.0000 0.5594 0.2528
C6A C 0.0000 0.6696(3) 0.3247(3)
C7A C 0.0588(4) 0.6913(3) 0.2992(3)
H3A H 0.0985 0.6774 0.3175
C8A C 0.0571(3) 0.7353(4) 0.2445(3)
H4A H 0.0967 0.7503 0.2266
C9A C 0.0000 0.7566(2) 0.2171(2)
C10A C 0.0000 0.7999(2) 0.1576(2)
N2D N 0.0000 0.5000 0.5998(3)
N3D N -0.05469(16) 0.17932(13) 0.87235(13)
N4D N -0.03192(12) 0.14304(11) 0.92274(12)
C1D C 0.0000 0.3602(2) 0.5553(3)
C2D C 0.0000 0.3797(3) 0.6205(3)
C3D C 0.0000 0.4474(2) 0.6418(3)
C4D C 0.0000 0.2930(3) 0.5328(3)
H1D H 0.0000 0.2559 0.5602
C5D C 0.0000 0.4678(3) 0.7096(3)
H2D H 0.0000 0.4406 0.7472
C6D C 0.0000 0.3304(3) 0.6753(3)
C7D C 0.0588(4) 0.3087(3) 0.7008(3)
H3D H 0.0985 0.3226 0.6825
C8D C 0.0571(3) 0.2647(4) 0.7555(3)
H4D H 0.0967 0.2497 0.7734
C9D C 0.0000 0.2434(2) 0.7829(2)
C10D C 0.0000 0.2001(2) 0.8424(2)
N3I N 0.05469(16) 0.17932(13) 0.87235(13)
N4I N 0.03192(12) 0.14304(11) 0.92274(12)
C7I C -0.0588(4) 0.3087(3) 0.7008(3)
H3I H -0.0985 0.3226 0.6825
C8I C -0.0571(3) 0.2647(4) 0.7555(3)
H4I H -0.0967 0.2497 0.7734
N3L N 0.05469(16) 0.82068(13) 0.12765(13)
N4L N 0.03192(12) 0.85696(11) 0.07726(12)
C7L C -0.0588(4) 0.6913(3) 0.2992(3)
H3L H -0.0985 0.6774 0.3175
C8L C -0.0571(3) 0.7353(4) 0.2445(3)
H4L H -0.0967 0.7503 0.2266
N3M N -0.05469(16) 0.17932(13) 0.12765(13)
N4M N -0.03192(12) 0.14304(11) 0.07726(12)
C7M C 0.0588(4) 0.3087(3) 0.2992(3)
H3M H 0.0985 0.3226 0.3175
C8M C 0.0571(3) 0.2647(4) 0.2445(3)
H4M H 0.0967 0.2497 0.2266
N3E N 0.05469(16) 0.82068(13) 0.87235(13)
N4E N 0.03192(12) 0.85696(11) 0.92274(12)
C1E C 0.0000 0.6398(2) 0.5553(3)
C2E C 0.0000 0.6203(3) 0.6205(3)
C3E C 0.0000 0.5526(2) 0.6418(3)
C4E C 0.0000 0.7070(3) 0.5328(3)
H1E H 0.0000 0.7441 0.5602
C5E C 0.0000 0.5322(3) 0.7096(3)
H2E H 0.0000 0.5594 0.7472
C6E C 0.0000 0.6696(3) 0.6753(3)
C7E C -0.0588(4) 0.6913(3) 0.7008(3)
H3E H -0.0985 0.6774 0.6825
C8E C -0.0571(3) 0.7353(4) 0.7555(3)
H4E H -0.0967 0.7503 0.7734
C9E C 0.0000 0.7566(2) 0.7829(2)
C10E C 0.0000 0.7999(2) 0.8424(2)
N3H N -0.05469(16) 0.82068(13) 0.87235(13)
N4H N -0.03192(12) 0.85696(11) 0.92274(12)
C7H C 0.0588(4) 0.6913(3) 0.7008(3)
H3H H 0.0985 0.6774 0.6825
C8H C 0.0571(3) 0.7353(4) 0.7555(3)
H4H H 0.0967 0.7503 0.7734
Mn1_2 Mn 0.0000 -0.5000 0.5000
Mn2A Mn -0.09427(3) -0.09427(3) 0.0000
O1A O -0.16875(18) -0.16875(18) 0.0000
N1A_2 N 0.0000 -0.4016(3) 0.5000
N2_2 N 0.0000 -0.5000 0.4002(3)
N3A_2 N -0.05469(16) -0.17932(13) 0.12765(13)
N4A_2 N -0.03192(12) -0.14304(11) 0.07726(12)
C1A_2 C 0.0000 -0.3602(2) 0.4447(3)
C2A_2 C 0.0000 -0.3797(3) 0.3795(3)
C3A_2 C 0.0000 -0.4474(2) 0.3582(3)
C4A_2 C 0.0000 -0.2930(3) 0.4672(3)
H1A_2 H 0.0000 -0.2559 0.4398
C5A_2 C 0.0000 -0.4678(3) 0.2904(3)
H2A_2 H 0.0000 -0.4406 0.2528
C6A_2 C 0.0000 -0.3304(3) 0.3247(3)
C7A_2 C 0.0588(4) -0.3087(3) 0.2992(3)
H3A_2 H 0.0985 -0.3226 0.3175
C8A_2 C 0.0571(3) -0.2647(4) 0.2445(3)
H4A_2 H 0.0967 -0.2497 0.2266
C9A_2 C 0.0000 -0.2434(2) 0.2171(2)
C10A_2 C 0.0000 -0.2001(2) 0.1576(2)
N1_2 N 0.0000 -0.5984(3) 0.5000
N3_2 N 0.05469(16) -0.82068(13) 0.12765(13)
N4_2 N 0.03192(12) -0.85696(11) 0.07726(12)
C1_2 C 0.0000 -0.6398(2) 0.4447(3)
C2_2 C 0.0000 -0.6203(3) 0.3795(3)
C3_2 C 0.0000 -0.5526(2) 0.3582(3)
C4_2 C 0.0000 -0.7070(3) 0.4672(3)
H1_2 H 0.0000 -0.7441 0.4398
C5_2 C 0.0000 -0.5322(3) 0.2904(3)
H2_2 H 0.0000 -0.5594 0.2528
C6_2 C 0.0000 -0.6696(3) 0.3247(3)
C7_2 C -0.0588(4) -0.6913(3) 0.2992(3)
H3_2 H -0.0985 -0.6774 0.3175
C8_2 C -0.0571(3) -0.7353(4) 0.2445(3)
H4_2 H -0.0967 -0.7503 0.2266
C9_2 C 0.0000 -0.7566(2) 0.2171(2)
C10_2 C 0.0000 -0.7999(2) 0.1576(2)
N2D_2 N 0.0000 -0.5000 0.5998(3)
N3E_2 N 0.05469(16) -0.17932(13) 0.87235(13)
N4E_2 N 0.03192(12) -0.14304(11) 0.92274(12)
C1E_2 C 0.0000 -0.3602(2) 0.5553(3)
C2E_2 C 0.0000 -0.3797(3) 0.6205(3)
C3E_2 C 0.0000 -0.4474(2) 0.6418(3)
C4E_2 C 0.0000 -0.2930(3) 0.5328(3)
H1E_2 H 0.0000 -0.2559 0.5602
C5E_2 C 0.0000 -0.4678(3) 0.7096(3)
H2E_2 H 0.0000 -0.4406 0.7472
C6E_2 C 0.0000 -0.3304(3) 0.6753(3)
C7E_2 C -0.0588(4) -0.3087(3) 0.7008(3)
H3E_2 H -0.0985 -0.3226 0.6825
C8E_2 C -0.0571(3) -0.2647(4) 0.7555(3)
H4E_2 H -0.0967 -0.2497 0.7734
C9E_2 C 0.0000 -0.2434(2) 0.7829(2)
C10E_2 C 0.0000 -0.2001(2) 0.8424(2)
N3H_2 N -0.05469(16) -0.17932(13) 0.87235(13)
N4H_2 N -0.03192(12) -0.14304(11) 0.92274(12)
C7H_2 C 0.0588(4) -0.3087(3) 0.7008(3)
H3H_2 H 0.0985 -0.3226 0.6825
C8H_2 C 0.0571(3) -0.2647(4) 0.7555(3)
H4H_2 H 0.0967 -0.2497 0.7734
N3M_2 N -0.05469(16) -0.82068(13) 0.12765(13)
N4M_2 N -0.03192(12) -0.85696(11) 0.07726(12)
C7M_2 C 0.0588(4) -0.6913(3) 0.2992(3)
H3M_2 H 0.0985 -0.6774 0.3175
C8M_2 C 0.0571(3) -0.7353(4) 0.2445(3)
H4M_2 H 0.0967 -0.7503 0.2266
N3L_2 N 0.05469(16) -0.17932(13) 0.12765(13)
N4L_2 N 0.03192(12) -0.14304(11) 0.07726(12)
C7L_2 C -0.0588(4) -0.3087(3) 0.2992(3)
H3L_2 H -0.0985 -0.3226 0.3175
C8L_2 C -0.0571(3) -0.2647(4) 0.2445(3)
H4L_2 H -0.0967 -0.2497 0.2266
N3D_2 N -0.05469(16) -0.82068(13) 0.87235(13)
N4D_2 N -0.03192(12) -0.85696(11) 0.92274(12)
C1D_2 C 0.0000 -0.6398(2) 0.5553(3)
C2D_2 C 0.0000 -0.6203(3) 0.6205(3)
C3D_2 C 0.0000 -0.5526(2) 0.6418(3)
C4D_2 C 0.0000 -0.7070(3) 0.5328(3)
H1D_2 H 0.0000 -0.7441 0.5602
C5D_2 C 0.0000 -0.5322(3) 0.7096(3)
H2D_2 H 0.0000 -0.5594 0.7472
C6D_2 C 0.0000 -0.6696(3) 0.6753(3)
C7D_2 C 0.0588(4) -0.6913(3) 0.7008(3)
H3D_2 H 0.0985 -0.6774 0.6825
C8D_2 C 0.0571(3) -0.7353(4) 0.7555(3)
H4D_2 H 0.0967 -0.7503 0.7734
C9D_2 C 0.0000 -0.7566(2) 0.7829(2)
C10D_2 C 0.0000 -0.7999(2) 0.8424(2)
N3I_2 N 0.05469(16) -0.82068(13) 0.87235(13)
N4I_2 N 0.03192(12) -0.85696(11) 0.92274(12)
C7I_2 C -0.0588(4) -0.6913(3) 0.7008(3)
H3I_2 H -0.0985 -0.6774 0.6825
C8I_2 C -0.0571(3) -0.7353(4) 0.7555(3)
H4I_2 H -0.0967 -0.7503 0.7734
Mn2B Mn -0.09427(3) 0.09427(3) 0.0000
O1B O -0.16875(18) 0.16875(18) 0.0000
Mn2C Mn 0.09427(3) -0.09427(3) 0.0000
O1C O 0.16875(18) -0.16875(18) 0.0000
Mn2_2 Mn 0.09427(3) -0.90573(3) 0.0000
Mn2_3 Mn 0.09427(3) -0.90573(3) 1.0000
Mn2_4 Mn 0.09427(3) 0.09427(3) 1.0000
Mn2A_2 Mn -0.09427(3) -0.09427(3) 1.0000
Mn2A_3 Mn -0.09427(3) 0.90573(3) 0.0000
Mn2A_4 Mn -0.09427(3) 0.90573(3) 1.0000
Mn2B_2 Mn -0.09427(3) -0.90573(3) 0.0000
Mn2B_3 Mn -0.09427(3) -0.90573(3) 1.0000
Mn2B_4 Mn -0.09427(3) 0.09427(3) 1.0000
Mn2C_2 Mn 0.09427(3) -0.09427(3) 1.0000
Mn2C_3 Mn 0.09427(3) 0.90573(3) 0.0000
Mn2C_4 Mn 0.09427(3) 0.90573(3) 1.0000
N4B N -0.14304(11) 0.03192(12) 0.07726(12)
N4C N 0.14304(11) -0.03192(12) 0.07726(12)
N4D_3 N -0.03192(12) 0.14304(11) -0.07726(12)
N4E_3 N 0.03192(12) -0.14304(11) -0.07726(12)
N4F N 0.14304(11) 0.03192(12) -0.07726(12)
N4G N -0.14304(11) -0.03192(12) -0.07726(12)
N4H_3 N -0.03192(12) -0.14304(11) -0.07726(12)
N4I_3 N 0.03192(12) 0.14304(11) -0.07726(12)
N4J N 0.14304(11) -0.03192(12) -0.07726(12)
N4K N -0.14304(11) 0.03192(12) -0.07726(12)
N4N N -0.14304(11) -0.03192(12) 0.07726(12)
N4O N 0.14304(11) 0.03192(12) 0.07726(12)
loop_
_geom_bond_atom_site_label_1
_geom_bond_atom_site_label_2
_geom_bond_site_symmetry_1
_geom_bond_site_symmetry_2
Mn1 N1 1_555 1_555
Mn2 Cl1 1_555 1_555
Cl1 Mn2A 1_555 1_555
O1 Mn2 1_555 1_555
N1 C1 1_555 1_555
N2 Mn1 1_555 1_555
N3 N4 1_555 1_555
N4 Mn2 1_555 1_555
C1 C2 1_555 1_555
C2 C3 1_555 1_555
C3 N2 1_555 1_555
C4 C1 1_555 1_555
H1 C4 1_555 1_555
C5 C3 1_555 1_555
H2 C5 1_555 1_555
C6 C2 1_555 1_555
C7 C6 1_555 1_555
H3 C7 1_555 1_555
C8 C7 1_555 1_555
H4 C8 1_555 1_555
C9 C8 1_555 1_555
C10 N3 1_555 1_555
N1A Mn1 1_555 1_555
N3A N4A 1_555 1_555
N4A N4L 1_555 1_555
C1A N1A 1_555 1_555
C2A C1A 1_555 1_555
C3A N2 1_555 1_555
C4A C1A 1_555 1_555
H1A C4A 1_555 1_555
C5A C5 1_555 1_555
H2A C5A 1_555 1_555
C6A C2A 1_555 1_555
C7A C6A 1_555 1_555
H3A C7A 1_555 1_555
C8A C7A 1_555 1_555
H4A C8A 1_555 1_555
C9A C8A 1_555 1_555
C10A N3A 1_555 1_555
N2D Mn1 1_555 1_555
N3D N4D 1_555 1_555
N4D N4I 1_555 1_555
C1D N1 1_555 1_555
C2D C1D 1_555 1_555
C3D N2D 1_555 1_555
C4D C4 1_555 1_555
H1D C4D 1_555 1_555
C5D C3D 1_555 1_555
H2D C5D 1_555 1_555
C6D C2D 1_555 1_555
C7D C6D 1_555 1_555
H3D C7D 1_555 1_555
C8D C7D 1_555 1_555
H4D C8D 1_555 1_555
C9D C8D 1_555 1_555
C10D N3D 1_555 1_555
N3I C10D 1_555 1_555
N4I N3I 1_555 1_555
C7I C6D 1_555 1_555
H3I C7I 1_555 1_555
C8I C9D 1_555 1_555
H4I C8I 1_555 1_555
N3L C10A 1_555 1_555
N4L N3L 1_555 1_555
C7L C6A 1_555 1_555
H3L C7L 1_555 1_555
C8L C9A 1_555 1_555
H4L C8L 1_555 1_555
N3M C10 1_555 1_555
N4M N4 1_555 1_555
C7M C6 1_555 1_555
H3M C7M 1_555 1_555
C8M C9 1_555 1_555
H4M C8M 1_555 1_555
N3E N4E 1_555 1_555
N4E N4H 1_555 1_555
C1E N1A 1_555 1_555
C2E C1E 1_555 1_555
C3E N2D 1_555 1_555
C4E C4A 1_555 1_555
H1E C4E 1_555 1_555
C5E C5D 1_555 1_555
H2E C5E 1_555 1_555
C6E C2E 1_555 1_555
C7E C6E 1_555 1_555
H3E C7E 1_555 1_555
C8E C7E 1_555 1_555
H4E C8E 1_555 1_555
C9E C8E 1_555 1_555
C10E N3E 1_555 1_555
N3H C10E 1_555 1_555
N4H N3H 1_555 1_555
C7H C6E 1_555 1_555
H3H C7H 1_555 1_555
C8H C9E 1_555 1_555
H4H C8H 1_555 1_555
Mn1_2 N1A_2 1_555 1_555
Mn2A O1A 1_555 1_555
N1A_2 C1A_2 1_555 1_555
N2_2 Mn1_2 1_555 1_555
N3A_2 N4A_2 1_555 1_555
N4A_2 Mn2A 1_555 1_555
C1A_2 C2A_2 1_555 1_555
C2A_2 C3A_2 1_555 1_555
C3A_2 N2_2 1_555 1_555
C4A_2 C1A_2 1_555 1_555
H1A_2 C4A_2 1_555 1_555
C5A_2 C3A_2 1_555 1_555
H2A_2 C5A_2 1_555 1_555
C6A_2 C2A_2 1_555 1_555
C7A_2 C6A_2 1_555 1_555
H3A_2 C7A_2 1_555 1_555
C8A_2 C7A_2 1_555 1_555
H4A_2 C8A_2 1_555 1_555
C9A_2 C8A_2 1_555 1_555
C10A_2 N3A_2 1_555 1_555
N1_2 Mn1_2 1_555 1_555
N3_2 N4_2 1_555 1_555
N4_2 N4M_2 1_555 1_555
C1_2 N1_2 1_555 1_555
C2_2 C1_2 1_555 1_555
C3_2 N2_2 1_555 1_555
C4_2 C1_2 1_555 1_555
H1_2 C4_2 1_555 1_555
C5_2 C5A_2 1_555 1_555
H2_2 C5_2 1_555 1_555
C6_2 C2_2 1_555 1_555
C7_2 C6_2 1_555 1_555
H3_2 C7_2 1_555 1_555
C8_2 C7_2 1_555 1_555
H4_2 C8_2 1_555 1_555
C9_2 C8_2 1_555 1_555
C10_2 N3_2 1_555 1_555
N2D_2 Mn1_2 1_555 1_555
N3E_2 N4E_2 1_555 1_555
N4E_2 N4H_2 1_555 1_555
C1E_2 N1A_2 1_555 1_555
C2E_2 C1E_2 1_555 1_555
C3E_2 N2D_2 1_555 1_555
C4E_2 C4A_2 1_555 1_555
H1E_2 C4E_2 1_555 1_555
C5E_2 C3E_2 1_555 1_555
H2E_2 C5E_2 1_555 1_555
C6E_2 C2E_2 1_555 1_555
C7E_2 C6E_2 1_555 1_555
H3E_2 C7E_2 1_555 1_555
C8E_2 C7E_2 1_555 1_555
H4E_2 C8E_2 1_555 1_555
C9E_2 C8E_2 1_555 1_555
C10E_2 N3E_2 1_555 1_555
N3H_2 C10E_2 1_555 1_555
N4H_2 N3H_2 1_555 1_555
C7H_2 C6E_2 1_555 1_555
H3H_2 C7H_2 1_555 1_555
C8H_2 C9E_2 1_555 1_555
H4H_2 C8H_2 1_555 1_555
N3M_2 C10_2 1_555 1_555
N4M_2 N3M_2 1_555 1_555
C7M_2 C6_2 1_555 1_555
H3M_2 C7M_2 1_555 1_555
C8M_2 C9_2 1_555 1_555
H4M_2 C8M_2 1_555 1_555
N3L_2 C10A_2 1_555 1_555
N4L_2 N4A_2 1_555 1_555
C7L_2 C6A_2 1_555 1_555
H3L_2 C7L_2 1_555 1_555
C8L_2 C9A_2 1_555 1_555
H4L_2 C8L_2 1_555 1_555
N3D_2 N4D_2 1_555 1_555
N4D_2 N4I_2 1_555 1_555
C1D_2 N1_2 1_555 1_555
C2D_2 C1D_2 1_555 1_555
C3D_2 N2D_2 1_555 1_555
C4D_2 C4_2 1_555 1_555
H1D_2 C4D_2 1_555 1_555
C5D_2 C5E_2 1_555 1_555
H2D_2 C5D_2 1_555 1_555
C6D_2 C2D_2 1_555 1_555
C7D_2 C6D_2 1_555 1_555
H3D_2 C7D_2 1_555 1_555
C8D_2 C7D_2 1_555 1_555
H4D_2 C8D_2 1_555 1_555
C9D_2 C8D_2 1_555 1_555
C10D_2 N3D_2 1_555 1_555
N3I_2 C10D_2 1_555 1_555
N4I_2 N3I_2 1_555 1_555
C7I_2 C6D_2 1_555 1_555
H3I_2 C7I_2 1_555 1_555
C8I_2 C9D_2 1_555 1_555
H4I_2 C8I_2 1_555 1_555
Mn2B Cl1 1_555 1_555
O1B Mn2B 1_555 1_555
Mn2C Cl1 1_555 1_555
O1C Mn2C 1_555 1_555
Mn2_2 N4_2 1_555 1_555
Mn2_3 N4I_2 1_555 1_555
Mn2_4 N4I 1_555 1_555
Mn2A_2 N4H_2 1_555 1_555
Mn2A_3 N4A 1_555 1_555
Mn2A_4 N4H 1_555 1_555
Mn2B_2 N4M_2 1_555 1_555
Mn2B_3 N4D_2 1_555 1_555
Mn2B_4 N4D 1_555 1_555
Mn2C_2 N4E_2 1_555 1_555
Mn2C_3 N4L 1_555 1_555
Mn2C_4 N4E 1_555 1_555
N4B Mn2B 1_555 1_555
N4C Mn2C 1_555 1_555
N4D_3 Mn2B 1_555 1_555
N4E_3 Mn2C 1_555 1_555
N4F Mn2 1_555 1_555
N4G Mn2A 1_555 1_555
N4H_3 Mn2A 1_555 1_555
N4I_3 Mn2 1_555 1_555
N4J Mn2C 1_555 1_555
N4K Mn2B 1_555 1_555
N4N Mn2A 1_555 1_555
N4O Mn2 1_555 1_555
C9 C10 1_555 1_555
C2A C3A 1_555 1_555
C3A C5A 1_555 1_555
C9A C10A 1_555 1_555
C1D C4D 1_555 1_555
C2D C3D 1_555 1_555
C9D C10D 1_555 1_555
C7I C8I 1_555 1_555
C7L C8L 1_555 1_555
N3M N4M 1_555 1_555
N4M Mn2B 1_555 1_555
C7M C8M 1_555 1_555
C1E C4E 1_555 1_555
C2E C3E 1_555 1_555
C3E C5E 1_555 1_555
C9E C10E 1_555 1_555
C7H C8H 1_555 1_555
C9A_2 C10A_2 1_555 1_555
C2_2 C3_2 1_555 1_555
C3_2 C5_2 1_555 1_555
C9_2 C10_2 1_555 1_555
C1E_2 C4E_2 1_555 1_555
C2E_2 C3E_2 1_555 1_555
C9E_2 C10E_2 1_555 1_555
C7H_2 C8H_2 1_555 1_555
C7M_2 C8M_2 1_555 1_555
N3L_2 N4L_2 1_555 1_555
N4L_2 Mn2C 1_555 1_555
C7L_2 C8L_2 1_555 1_555
C1D_2 C4D_2 1_555 1_555
C2D_2 C3D_2 1_555 1_555
C3D_2 C5D_2 1_555 1_555
C9D_2 C10D_2 1_555 1_555
C7I_2 C8I_2 1_555 1_555
N4B N4N 1_555 1_555
N4C N4O 1_555 1_555
N4D_3 N4I_3 1_555 1_555
N4E_3 N4H_3 1_555 1_555
N4F N4J 1_555 1_555
N4G N4K 1_555 1_555

#END
