
#######################################################################
#
#                 Cambridge Crystallographic Data Centre
#                                CCDC 
#
#######################################################################
#
# If this CIF has been generated from an entry in the Cambridge 
# Structural Database, then it will include bibliographic, chemical, 
# crystal, experimental, refinement or atomic coordinate data resulting 
# from the CCDC's data processing and validation procedures.
#
#######################################################################

data_DOZKIO
_symmetry_cell_setting           triclinic
_symmetry_space_group_name_H-M   'P -1'
_symmetry_Int_Tables_number      2
_space_group_name_Hall           '-P 1'
loop_
_symmetry_equiv_pos_site_id
_symmetry_equiv_pos_as_xyz
1 x,y,z
2 -x,-y,-z
_cell_length_a                   10.2187(10)
_cell_length_b                   11.5176(11)
_cell_length_c                   16.3127(16)
_cell_angle_alpha                82.710(2)
_cell_angle_beta                 75.9110(10)
_cell_angle_gamma                77.542(2)
_cell_volume                     1812.71
loop_
_atom_site_label
_atom_site_type_symbol
_atom_site_fract_x
_atom_site_fract_y
_atom_site_fract_z
C1 C 0.5143(6) 0.9101(5) 0.3503(3)
C2 C 0.5313(6) 0.8672(5) 0.2660(3)
C3 C 0.4437(6) 0.9197(5) 0.2118(4)
H1 H 0.3766 0.9864 0.2276
C4 C 0.4552(6) 0.8746(6) 0.1358(4)
C5 C 0.5576(7) 0.7751(6) 0.1123(4)
H2 H 0.5638 0.7427 0.0618
C6 C 0.6480(6) 0.7248(5) 0.1609(3)
C7 C 0.6336(6) 0.7705(5) 0.2390(3)
H3 H 0.6940 0.7353 0.2734
C8 C 0.7599(5) 0.6177(5) 0.1370(3)
C9 C 0.8490(5) 0.6096(4) 0.0573(3)
C10 C 0.9532(5) 0.5059(4) 0.0409(3)
C11 C 0.9653(5) 0.4091(4) 0.1048(3)
C12 C 0.8761(5) 0.4221(5) 0.1850(3)
C13 C 0.7759(5) 0.5235(5) 0.1979(3)
H4 H 0.7153 0.5290 0.2506
C14 C 0.8806(5) 0.3263(5) 0.2566(3)
C15 C 0.7640(5) 0.2829(5) 0.2960(3)
H5 H 0.6834 0.3125 0.2772
C16 C 0.7633(5) 0.1944(5) 0.3645(3)
C17 C 0.8842(5) 0.1527(5) 0.3915(3)
H6 H 0.8871 0.0925 0.4352
C18 C 1.0003(5) 0.1987(5) 0.3552(3)
C19 C 0.9969(5) 0.2853(5) 0.2874(3)
H7 H 1.0756 0.3161 0.2625
C20 C 0.6332(6) 0.1558(5) 0.4051(3)
C21 C 1.1247(5) 0.1644(5) 0.3919(3)
C22 C 1.0653(6) 0.3043(5) 0.0848(3)
H8 H 1.0705 0.2398 0.1252
C23 C 0.8472(6) 0.7036(5) -0.0083(3)
H9 H 0.7828 0.7737 0.0021
C24 C 0.3576(8) 0.9296(7) 0.0829(5)
Eu1 Eu 0.33850(2) 1.12977(2) 0.478414(15)
O1 O 0.1292(6) 1.1929(8) 0.5870(4)
O2 O 0.2922(8) 1.3514(6) 0.4933(5)
O3 O 0.4305(4) 1.0048(3) 0.3669(2)
O4 O 0.5868(4) 0.8496(4) 0.3984(2)
O5 O 0.2683(6) 1.0174(6) 0.1002(4)
O6 O 0.3721(7) 0.8786(6) 0.0134(4)
O7 O 0.5240(4) 0.2168(4) 0.3930(3)
O8 O 0.6360(4) 0.0621(3) 0.4532(2)
O9 O 1.1373(4) 0.0748(4) 0.4422(3)
O10 O 1.2135(4) 0.2305(4) 0.3722(3)
C1A C 1.4857(6) 0.0899(5) -0.3503(3)
C2A C 1.4687(6) 0.1328(5) -0.2660(3)
C3A C 1.5563(6) 0.0803(5) -0.2118(4)
H1A H 1.6234 0.0136 -0.2276
C4A C 1.5448(6) 0.1254(6) -0.1358(4)
C5A C 1.4424(7) 0.2249(6) -0.1123(4)
H2A H 1.4362 0.2573 -0.0618
C6A C 1.3520(6) 0.2752(5) -0.1609(3)
C7A C 1.3664(6) 0.2295(5) -0.2390(3)
H3A H 1.3060 0.2647 -0.2734
C8A C 1.2401(5) 0.3823(5) -0.1370(3)
C9A C 1.1510(5) 0.3904(4) -0.0573(3)
C10A C 1.0468(5) 0.4941(4) -0.0409(3)
C11A C 1.0347(5) 0.5909(4) -0.1048(3)
C12A C 1.1239(5) 0.5779(5) -0.1850(3)
C13A C 1.2241(5) 0.4765(5) -0.1979(3)
H4A H 1.2847 0.4710 -0.2506
C14A C 1.1194(5) 0.6737(5) -0.2566(3)
C15A C 1.2360(5) 0.7171(5) -0.2960(3)
H5A H 1.3166 0.6875 -0.2772
C16A C 1.2367(5) 0.8056(5) -0.3645(3)
C17A C 1.1158(5) 0.8473(5) -0.3915(3)
H6A H 1.1129 0.9075 -0.4352
C18A C 0.9997(5) 0.8013(5) -0.3552(3)
C19A C 1.0031(5) 0.7147(5) -0.2874(3)
H7A H 0.9244 0.6839 -0.2625
C20A C 1.3668(6) 0.8442(5) -0.4051(3)
C21A C 0.8753(5) 0.8356(5) -0.3919(3)
C22A C 0.9347(6) 0.6957(5) -0.0848(3)
H8A H 0.9295 0.7602 -0.1252
C23A C 1.1528(6) 0.2964(5) 0.0083(3)
H9A H 1.2172 0.2263 -0.0021
C24A C 1.6424(8) 0.0704(7) -0.0829(5)
O3A O 1.5695(4) -0.0048(3) -0.3669(2)
O4A O 1.4132(4) 0.1504(4) -0.3984(2)
O5A O 1.7317(6) -0.0174(6) -0.1002(4)
O6A O 1.6279(7) 0.1214(6) -0.0134(4)
O7A O 1.4760(4) 0.7832(4) -0.3930(3)
O8A O 1.3640(4) 0.9379(3) -0.4532(2)
O9A O 0.8627(4) 0.9252(4) -0.4422(3)
O10A O 0.7865(4) 0.7695(4) -0.3722(3)
Eu1A Eu 0.66150(2) -0.12977(2) 0.521586(15)
O1A O 0.8708(6) -0.1929(8) 0.4130(4)
O2A O 0.7078(8) -0.3514(6) 0.5067(5)
Eu1_2 Eu 0.33850(2) 0.12977(2) 0.478414(15)
Eu1_3 Eu 1.33850(2) 0.12977(2) -0.521586(15)
Eu1_4 Eu 1.33850(2) 0.12977(2) 0.478414(15)
Eu1_5 Eu 1.33850(2) 1.12977(2) -0.521586(15)
Eu1A_2 Eu 0.66150(2) 0.87023(2) -0.478414(15)
Eu1A_3 Eu 0.66150(2) 0.87023(2) 0.521586(15)
Eu1A_4 Eu 1.66150(2) -0.12977(2) -0.478414(15)
Eu1A_5 Eu 1.66150(2) 0.87023(2) -0.478414(15)
O3A_2 O 0.5695(4) -0.0048(3) 0.6331(2)
O4_2 O 0.5868(4) -0.1504(4) 0.3984(2)
O4A_2 O 0.4132(4) 1.1504(4) 0.6016(2)
O7_2 O 0.5240(4) 1.2168(4) 0.3930(3)
O7A_2 O 0.4760(4) -0.2168(4) 0.6070(3)
O8_2 O 0.6360(4) 1.0621(3) 0.4532(2)
O8A_2 O 0.3640(4) -0.0621(3) 0.5468(2)
O8A_3 O 0.3640(4) 0.9379(3) 0.5468(2)
O9_2 O 0.1373(4) 1.0748(4) 0.4422(3)
O9A_2 O 0.8627(4) -0.0748(4) 0.5578(3)
O10_2 O 0.2135(4) 1.2305(4) 0.3722(3)
O10A_2 O 0.7865(4) -0.2305(4) 0.6278(3)
loop_
_geom_bond_atom_site_label_1
_geom_bond_atom_site_label_2
_geom_bond_site_symmetry_1
_geom_bond_site_symmetry_2
C1 C2 1_555 1_555
C2 C3 1_555 1_555
C3 H1 1_555 1_555
C4 C3 1_555 1_555
C5 C4 1_555 1_555
H2 C5 1_555 1_555
C6 C5 1_555 1_555
C7 C2 1_555 1_555
H3 C7 1_555 1_555
C8 C6 1_555 1_555
C9 C8 1_555 1_555
C10 C9 1_555 1_555
C11 C10 1_555 1_555
C12 C11 1_555 1_555
C13 C8 1_555 1_555
H4 C13 1_555 1_555
C14 C12 1_555 1_555
C15 C14 1_555 1_555
H5 C15 1_555 1_555
C16 C15 1_555 1_555
C17 C16 1_555 1_555
H6 C17 1_555 1_555
C18 C17 1_555 1_555
C19 C14 1_555 1_555
H7 C19 1_555 1_555
C20 C16 1_555 1_555
C21 C18 1_555 1_555
C22 C11 1_555 1_555
H8 C22 1_555 1_555
C23 C9 1_555 1_555
H9 C23 1_555 1_555
C24 C4 1_555 1_555
Eu1 O1 1_555 1_555
O2 Eu1 1_555 1_555
O3 C1 1_555 1_555
O4 C1 1_555 1_555
O5 C24 1_555 1_555
O6 C24 1_555 1_555
O7 C20 1_555 1_555
O8 C20 1_555 1_555
O9 C21 1_555 1_555
O10 C21 1_555 1_555
C1A C2A 1_555 1_555
C2A C3A 1_555 1_555
C3A H1A 1_555 1_555
C4A C3A 1_555 1_555
C5A C4A 1_555 1_555
H2A C5A 1_555 1_555
C6A C5A 1_555 1_555
C7A C2A 1_555 1_555
H3A C7A 1_555 1_555
C8A C6A 1_555 1_555
C9A C8A 1_555 1_555
C10A C10 1_555 1_555
C11A C10A 1_555 1_555
C12A C11A 1_555 1_555
C13A C8A 1_555 1_555
H4A C13A 1_555 1_555
C14A C12A 1_555 1_555
C15A C14A 1_555 1_555
H5A C15A 1_555 1_555
C16A C15A 1_555 1_555
C17A C16A 1_555 1_555
H6A C17A 1_555 1_555
C18A C17A 1_555 1_555
C19A C14A 1_555 1_555
H7A C19A 1_555 1_555
C20A C16A 1_555 1_555
C21A C18A 1_555 1_555
C22A C23 1_555 1_555
H8A C22A 1_555 1_555
C23A C22 1_555 1_555
H9A C23A 1_555 1_555
C24A C4A 1_555 1_555
O3A C1A 1_555 1_555
O4A C1A 1_555 1_555
O5A C24A 1_555 1_555
O6A C24A 1_555 1_555
O7A C20A 1_555 1_555
O8A C20A 1_555 1_555
O9A C21A 1_555 1_555
O10A C21A 1_555 1_555
Eu1A O8 1_555 1_555
O1A Eu1A 1_555 1_555
O2A Eu1A 1_555 1_555
Eu1_2 O7 1_555 1_555
Eu1_3 O4A 1_555 1_555
Eu1_4 O9 1_555 1_555
Eu1_5 O8A 1_555 1_555
Eu1A_2 O9A 1_555 1_555
Eu1A_3 O4 1_555 1_555
Eu1A_4 O3A 1_555 1_555
Eu1A_5 O7A 1_555 1_555
O3A_2 Eu1A 1_555 1_555
O4_2 Eu1A 1_555 1_555
O4A_2 Eu1 1_555 1_555
O7_2 Eu1 1_555 1_555
O7A_2 Eu1A 1_555 1_555
O8_2 Eu1 1_555 1_555
O8A_2 Eu1A 1_555 1_555
O8A_3 Eu1 1_555 1_555
O9_2 Eu1 1_555 1_555
O9A_2 Eu1A 1_555 1_555
O10_2 Eu1 1_555 1_555
O10A_2 Eu1A 1_555 1_555
C6 C7 1_555 1_555
C12 C13 1_555 1_555
C18 C19 1_555 1_555
Eu1 O3 1_555 1_555
O8 Eu1_2 1_555 1_555
O10 Eu1_4 1_555 1_555
C6A C7A 1_555 1_555
C9A C10A 1_555 1_555
C9A C23A 1_555 1_555
C11A C22A 1_555 1_555
C12A C13A 1_555 1_555
C18A C19A 1_555 1_555
O8A Eu1A_5 1_555 1_555
O10A Eu1A_2 1_555 1_555
Eu1_2 O8A_2 1_555 1_555
Eu1A_3 O8_2 1_555 1_555
Eu1A_3 O8A_3 1_555 1_555

#END
