
#######################################################################
#
#                 Cambridge Crystallographic Data Centre
#                                CCDC 
#
#######################################################################
#
# If this CIF has been generated from an entry in the Cambridge 
# Structural Database, then it will include bibliographic, chemical, 
# crystal, experimental, refinement or atomic coordinate data resulting 
# from the CCDC's data processing and validation procedures.
#
#######################################################################

data_DUBBEI
_symmetry_cell_setting           monoclinic
_symmetry_space_group_name_H-M   'P 21/c'
_symmetry_Int_Tables_number      14
_space_group_name_Hall           '-P 2ybc'
loop_
_symmetry_equiv_pos_site_id
_symmetry_equiv_pos_as_xyz
1 x,y,z
2 -x,1/2+y,1/2-z
3 -x,-y,-z
4 x,1/2-y,1/2+z
_cell_length_a                   8.5146(2)
_cell_length_b                   16.2049(5)
_cell_length_c                   28.5470(8)
_cell_angle_alpha                90
_cell_angle_beta                 96.212(2)
_cell_angle_gamma                90
_cell_volume                     3915.74
loop_
_atom_site_label
_atom_site_type_symbol
_atom_site_fract_x
_atom_site_fract_y
_atom_site_fract_z
N1 N 0.3463(6) -0.5811(4) 0.28425(18)
H5 H 0.3151 -0.5563 0.2582
H6 H 0.3038 -0.6276 0.2915
H7 H 0.4276 -0.5621 0.2792
N2 N 0.4096(6) -0.5114(3) 0.45376(17)
H8 H 0.4029 -0.5657 0.4489
C12 C 0.3112(7) -0.5153(4) 0.3190(2)
H10 H 0.1980 -0.5071 0.3179
H11 H 0.3592 -0.4635 0.3112
C13 C 0.3782(7) -0.5431(4) 0.3681(2)
H12 H 0.3303 -0.5953 0.3752
H13 H 0.4910 -0.5520 0.3685
C14 C 0.3489(7) -0.4807(4) 0.4056(2)
H14 H 0.4010 -0.4292 0.3994
H15 H 0.2364 -0.4700 0.4044
C15 C 0.5881(6) -0.5142(4) 0.4606(2)
H16 H 0.6257 -0.5512 0.4375
H17 H 0.6298 -0.4596 0.4555
C16 C 0.3525(7) -0.4566(4) 0.4906(2)
H18 H 0.3887 -0.4007 0.4863
H19 H 0.2379 -0.4561 0.4871
N1B N 0.6537(6) -0.4189(4) 0.71575(18)
H5B H 0.6849 -0.4437 0.7418
H6B H 0.6962 -0.3724 0.7085
H7B H 0.5724 -0.4379 0.7208
N2B N 0.5904(6) -0.4886(3) 0.54624(17)
H8B H 0.5971 -0.4343 0.5511
C12B C 0.6888(7) -0.4847(4) 0.6810(2)
H10B H 0.8020 -0.4929 0.6821
H11B H 0.6408 -0.5365 0.6888
C13B C 0.6218(7) -0.4569(4) 0.6319(2)
H12B H 0.6697 -0.4047 0.6248
H13B H 0.5090 -0.4480 0.6315
C14B C 0.6511(7) -0.5193(4) 0.5944(2)
H14B H 0.5990 -0.5708 0.6006
H15B H 0.7636 -0.5300 0.5956
C15B C 0.4119(6) -0.4858(4) 0.5394(2)
H16B H 0.3743 -0.4488 0.5625
H17B H 0.3702 -0.5404 0.5445
C16B C 0.6475(7) -0.5434(4) 0.5094(2)
H18B H 0.6113 -0.5993 0.5137
H19B H 0.7621 -0.5439 0.5129
N3 N 0.0504(5) -0.0199(3) 0.45446(16)
H9 H 0.1693 -0.0106 0.4677
N4 N 0.223(2) -0.021(2) 0.2937(12)
C17 C 0.1302(9) -0.0663(5) 0.3295(3)
C18 C 0.1071(8) -0.0076(4) 0.3708(2)
H20 H 0.2072 0.0164 0.3834
H21 H 0.0347 0.0366 0.3604
C19 C 0.0400(7) -0.0599(4) 0.4074(2)
H22 H -0.0699 -0.0718 0.3969
H23 H 0.0965 -0.1120 0.4101
C20 C -0.0656(7) 0.0467(4) 0.4590(2)
H24 H -0.1719 0.0246 0.4537
H25 H -0.0543 0.0890 0.4356
C21 C 0.0392(7) -0.0842(4) 0.4922(2)
H26 H 0.1176 -0.1268 0.4892
H27 H -0.0643 -0.1098 0.4878
N3B N -0.0504(5) 0.0199(3) 0.54554(16)
H9B H -0.1693 0.0106 0.5323
N4B N -0.223(2) 0.021(2) 0.7063(12)
C17B C -0.1302(9) 0.0663(5) 0.6705(3)
C18B C -0.1071(8) 0.0076(4) 0.6292(2)
H20B H -0.2072 -0.0164 0.6166
H21B H -0.0347 -0.0366 0.6396
C19B C -0.0400(7) 0.0599(4) 0.5926(2)
H22B H 0.0699 0.0718 0.6031
H23B H -0.0965 0.1120 0.5899
C20B C 0.0656(7) -0.0467(4) 0.5410(2)
H24B H 0.1719 -0.0246 0.5463
H25B H 0.0543 -0.0890 0.5644
C21B C -0.0392(7) 0.0842(4) 0.5078(2)
H26B H -0.1176 0.1268 0.5108
H27B H 0.0643 0.1098 0.5122
O31 O 0.2947(6) 0.2598(3) 0.33104(16)
O32 O -0.2396(6) 0.0135(3) 0.29811(19)
O33 O 0.5775(7) -0.0132(3) 0.37570(17)
O34 O 0.4083(6) 0.1005(4) 0.30052(19)
O35 O 0.0451(9) -0.5378(6) 0.5372(3)
Er1 Er -0.17895(3) -0.712362(16) 0.332102(8)
Er2 Er 0.19001(3) -0.826660(15) 0.171270(8)
Er3 Er 0.45121(3) -0.808470(15) 0.496080(8)
P1 P 0.08046(16) -0.73130(9) 0.43704(5)
P2 P -0.43343(17) -0.74857(10) 0.22542(5)
O1 O -0.0681(4) -0.7387(3) 0.46420(13)
H1 H -0.0662 -0.7265 0.4979
O2 O 0.1379(5) -0.6383(2) 0.44180(15)
H2 H 0.1043 -0.5992 0.4183
O3 O 0.2117(4) -0.7853(2) 0.45876(14)
O4 O 0.0264(4) -0.7498(2) 0.38637(13)
O5 O 0.1191(4) -0.7134(2) 0.21684(13)
O6 O 0.0596(4) -0.8714(2) 0.23651(13)
O7 O -0.0270(4) -0.6720(2) 0.27293(14)
O8 O -0.0736(4) -0.8300(2) 0.29583(13)
O9 O -0.4217(4) -0.8617(2) 0.43204(14)
O10 O -0.4798(4) -0.7016(2) 0.44675(13)
O11 O -0.2941(5) -0.8262(2) 0.37027(13)
O12 O -0.3317(4) -0.6675(2) 0.39001(13)
O13 O -0.0461(4) -0.5859(2) 0.36399(14)
O14 O -0.3037(4) -0.5885(2) 0.30136(13)
O15 O -0.0461(4) -0.4470(2) 0.36119(14)
O16 O -0.3158(4) -0.4517(2) 0.30417(14)
O17 O -0.5747(4) -0.8021(2) 0.21318(14)
O18 O -0.3795(4) -0.7453(3) 0.27651(13)
O19 O -0.2883(5) -0.7752(3) 0.19963(14)
H3 H -0.3296 -0.7668 0.1684
O20 O -0.4777(5) -0.6579(3) 0.20731(15)
H4 H -0.5867 -0.6618 0.1925
O21 O 0.3757(4) -0.8095(2) 0.03549(13)
O22 O 0.3415(4) -0.6548(2) 0.06522(13)
O23 O 0.3073(4) -0.8577(2) 0.10391(13)
O24 O 0.2776(4) -0.7034(2) 0.13407(13)
O25 O -0.3506(5) -0.7509(3) 0.10901(14)
O26 O -0.0411(4) -0.7829(2) 0.13072(14)
O27 O -0.3132(4) -0.7401(2) 0.03360(14)
O28 O -0.0061(5) -0.7788(3) 0.05475(15)
O29 O 0.6144(4) -0.9226(2) 0.52869(14)
O30 O 0.6632(4) -1.0569(2) 0.52280(13)
C1 C 0.0342(6) -0.7264(3) 0.24899(19)
C2 C 0.0027(7) -0.8169(3) 0.2616(2)
C3 C -0.3668(6) -0.8093(3) 0.4043(2)
C4 C -0.3954(6) -0.7180(3) 0.41467(19)
C5 C -0.2519(6) -0.5197(4) 0.3161(2)
C6 C -0.1029(6) -0.5172(4) 0.3499(2)
C7 C 0.3326(6) -0.8006(3) 0.07550(19)
C8 C 0.3157(6) -0.7120(3) 0.09308(19)
C9 C -0.0881(7) -0.7746(4) 0.0877(2)
C10 C -0.2668(6) -0.7538(4) 0.0763(2)
C11 C 0.5792(6) -0.9927(3) 0.51475(19)
Er1_2 Er -1.17895(3) -0.712362(16) 0.332102(8)
Er1A Er 0.17895(3) -1.212362(16) 0.167898(8)
Er1_3 Er 0.82105(3) -0.712362(16) 0.332102(8)
Er1A_2 Er 0.17895(3) -0.212362(16) 0.167898(8)
Er2A Er -0.19001(3) -0.326660(15) 0.328730(8)
Er2_2 Er -0.80999(3) -0.826660(15) 0.171270(8)
Er2C Er 0.19001(3) -0.673340(15) 0.671270(8)
Er2C_2 Er 1.19001(3) -0.673340(15) 0.671270(8)
Er3_2 Er -0.54879(3) -0.808470(15) 0.496080(8)
Er3C Er 0.45121(3) -0.691530(15) -0.003920(8)
Er3C_2 Er -0.54879(3) -0.691530(15) -0.003920(8)
Er3B Er 0.54879(3) -1.191530(15) 0.503920(8)
P1_2 P -0.91954(16) -0.73130(9) 0.43704(5)
P2_2 P 0.56657(17) -0.74857(10) 0.22542(5)
O1_2 O -1.0681(4) -0.7387(3) 0.46420(13)
H1_2 H -1.0662 -0.7265 0.4979
O2_2 O -0.8621(5) -0.6383(2) 0.44180(15)
H2_2 H -0.8957 -0.5992 0.4183
O3_2 O -0.7883(4) -0.7853(2) 0.45876(14)
O4_2 O -0.9736(4) -0.7498(2) 0.38637(13)
O5A O -0.1191(4) -0.2134(2) 0.28316(13)
O6A O -0.0596(4) -0.3714(2) 0.26349(13)
O7A O 0.0270(4) -0.1720(2) 0.22707(14)
O7_2 O -1.0270(4) -0.6720(2) 0.27293(14)
O8A O 0.0736(4) -0.3300(2) 0.20417(13)
O8_2 O -1.0736(4) -0.8300(2) 0.29583(13)
O9_2 O 0.5783(4) -0.8617(2) 0.43204(14)
O10_2 O 0.5202(4) -0.7016(2) 0.44675(13)
O11_2 O 0.7059(5) -0.8262(2) 0.37027(13)
O11_3 O -1.2941(5) -0.8262(2) 0.37027(13)
O12_2 O 0.6683(4) -0.6675(2) 0.39001(13)
O12_3 O -1.3317(4) -0.6675(2) 0.39001(13)
O13A O 0.0461(4) -1.0859(2) 0.13601(14)
O13_2 O -1.0461(4) -0.5859(2) 0.36399(14)
O14A O 0.3037(4) -1.0885(2) 0.19864(13)
O14_2 O -1.3037(4) -0.5885(2) 0.30136(13)
O15A O 0.0461(4) -0.9470(2) 0.13881(14)
O16A O 0.3158(4) -0.9517(2) 0.19583(14)
O17_2 O 0.4253(4) -0.8021(2) 0.21318(14)
O17A O -0.4253(4) -0.3021(2) 0.28682(14)
O18_2 O 0.6205(4) -0.7453(3) 0.27651(13)
O18_3 O -1.3795(4) -0.7453(3) 0.27651(13)
O19_2 O 0.7117(5) -0.7752(3) 0.19963(14)
H3_2 H 0.6704 -0.7668 0.1684
O20_2 O 0.5223(5) -0.6579(3) 0.20731(15)
H4_2 H 0.4133 -0.6618 0.1925
O21C O 0.3757(4) -0.6905(2) 0.53549(13)
O21C_2 O -0.6243(4) -0.6905(2) 0.53549(13)
O22C O 0.3415(4) -0.8452(2) 0.56522(13)
O22C_2 O -0.6585(4) -0.8452(2) 0.56522(13)
O23C O 0.3073(4) -0.6423(2) 0.60391(13)
O23A O -0.3073(4) -0.3577(2) 0.39609(13)
O24C O 0.2776(4) -0.7966(2) 0.63407(13)
O24A O -0.2776(4) -0.2034(2) 0.36593(13)
O25C O 0.6494(5) -0.7491(3) 0.60901(14)
O26C O 0.9589(4) -0.7171(2) 0.63072(14)
O26A O 0.0411(4) -0.2829(2) 0.36928(14)
O27C O 0.6868(4) -0.7599(2) 0.53360(14)
O27C_2 O -0.3132(4) -0.7599(2) 0.53360(14)
O28C O 0.9939(5) -0.7212(3) 0.55475(15)
O29B O 0.3856(4) -1.0774(2) 0.47131(14)
O29_2 O -0.3856(4) -0.9226(2) 0.52869(14)
O30B O 0.3368(4) -0.9431(2) 0.47720(13)
O30B_2 O -0.6632(4) -0.9431(2) 0.47720(13)
C1A C -0.0342(6) -0.2264(3) 0.25101(19)
C2A C -0.0027(7) -0.3169(3) 0.2384(2)
C3_2 C 0.6332(6) -0.8093(3) 0.4043(2)
C4_2 C 0.6046(6) -0.7180(3) 0.41467(19)
C5A C 0.2519(6) -1.0197(4) 0.1839(2)
C6A C 0.1029(6) -1.0172(4) 0.1501(2)
C7C C 0.3326(6) -0.6994(3) 0.57550(19)
C8C C 0.3157(6) -0.7880(3) 0.59308(19)
C9C C 0.9119(7) -0.7254(4) 0.5877(2)
C10C C 0.7332(6) -0.7462(4) 0.5763(2)
C11B C 0.4208(6) -1.0073(3) 0.48525(19)
N5? N -0.147(2) 0.022(2) 0.7138(12)
loop_
_geom_bond_atom_site_label_1
_geom_bond_atom_site_label_2
_geom_bond_site_symmetry_1
_geom_bond_site_symmetry_2
Er1 O4 1_555 1_555
Er2 O5 1_555 1_555
Er3 O3 1_555 1_555
P1 O1 1_555 1_555
P2 O17 1_555 1_555
O1 H1 1_555 1_555
O2 P1 1_555 1_555
H2 O2 1_555 1_555
O3 P1 1_555 1_555
O4 P1 1_555 1_555
O5 C1 1_555 1_555
O6 Er2 1_555 1_555
O7 Er1 1_555 1_555
O8 Er1 1_555 1_555
O9 C3 1_555 1_555
O10 C4 1_555 1_555
O11 Er1 1_555 1_555
O12 Er1 1_555 1_555
O13 Er1 1_555 1_555
O14 Er1 1_555 1_555
O15 C6 1_555 1_555
O16 C5 1_555 1_555
O17 Er2_2 1_555 1_555
O18 Er1 1_555 1_555
O19 P2 1_555 1_555
H3 O19 1_555 1_555
O20 P2 1_555 1_555
H4 O20 1_555 1_555
O21 C7 1_555 1_555
O22 C8 1_555 1_555
O23 Er2 1_555 1_555
O24 Er2 1_555 1_555
O25 C10 1_555 1_555
O26 Er2 1_555 1_555
O27 C10 1_555 1_555
O28 C9 1_555 1_555
O29 Er3 1_555 1_555
O30 C11 1_555 1_555
N1 H5 1_555 1_555
H6 N1 1_555 1_555
H7 N1 1_555 1_555
N2 H8 1_555 1_555
N3 H9 1_555 1_555
N4 C17 1_555 1_555
C1 O7 1_555 1_555
C2 O6 1_555 1_555
C3 O11 1_555 1_555
C4 O12 1_555 1_555
C5 O14 1_555 1_555
C6 O13 1_555 1_555
C7 O23 1_555 1_555
C8 O24 1_555 1_555
C9 O26 1_555 1_555
C10 C9 1_555 1_555
C11 O29 1_555 1_555
C12 N1 1_555 1_555
H10 C12 1_555 1_555
H11 C12 1_555 1_555
C13 C12 1_555 1_555
H12 C13 1_555 1_555
H13 C13 1_555 1_555
C14 N2 1_555 1_555
H14 C14 1_555 1_555
H15 C14 1_555 1_555
C15 N2 1_555 1_555
H16 C15 1_555 1_555
H17 C15 1_555 1_555
C16 N2 1_555 1_555
H18 C16 1_555 1_555
H19 C16 1_555 1_555
C17 C18 1_555 1_555
C18 H20 1_555 1_555
H21 C18 1_555 1_555
C19 N3 1_555 1_555
H22 C19 1_555 1_555
H23 C19 1_555 1_555
C20 N3 1_555 1_555
H24 C20 1_555 1_555
H25 C20 1_555 1_555
C21 N3 1_555 1_555
H26 C21 1_555 1_555
H27 C21 1_555 1_555
Er1_2 O4_2 1_555 1_555
Er1A O13A 1_555 1_555
Er1_3 O11_2 1_555 1_555
Er1A_2 O7A 1_555 1_555
Er2A O15 1_555 1_555
Er2C O23C 1_555 1_555
Er2C_2 O26C 1_555 1_555
Er3_2 O9 1_555 1_555
Er3C O21 1_555 1_555
Er3C_2 O27 1_555 1_555
Er3B O30 1_555 1_555
P1_2 O1_2 1_555 1_555
P2_2 O17_2 1_555 1_555
O1_2 H1_2 1_555 1_555
O2_2 P1_2 1_555 1_555
H2_2 O2_2 1_555 1_555
O3_2 Er3_2 1_555 1_555
O4_2 P1_2 1_555 1_555
O5A Er2A 1_555 1_555
O6A Er2A 1_555 1_555
O7A C1A 1_555 1_555
O7_2 Er1_2 1_555 1_555
O8A Er1A_2 1_555 1_555
O8_2 Er1_2 1_555 1_555
O9_2 Er3 1_555 1_555
O10_2 Er3 1_555 1_555
O11_2 C3_2 1_555 1_555
O11_3 Er1_2 1_555 1_555
O12_2 Er1_3 1_555 1_555
O12_3 Er1_2 1_555 1_555
O13A C6A 1_555 1_555
O13_2 Er1_2 1_555 1_555
O14A Er1A 1_555 1_555
O14_2 Er1_2 1_555 1_555
O15A Er2 1_555 1_555
O16A Er2 1_555 1_555
O17_2 Er2 1_555 1_555
O17A Er2A 1_555 1_555
O18_2 Er1_3 1_555 1_555
O18_3 Er1_2 1_555 1_555
O19_2 P2_2 1_555 1_555
H3_2 O19_2 1_555 1_555
O20_2 P2_2 1_555 1_555
H4_2 O20_2 1_555 1_555
O21C Er3 1_555 1_555
O21C_2 Er3_2 1_555 1_555
O22C Er3 1_555 1_555
O22C_2 Er3_2 1_555 1_555
O23C C7C 1_555 1_555
O23A Er2A 1_555 1_555
O24C Er2C 1_555 1_555
O24A Er2A 1_555 1_555
O25C C10C 1_555 1_555
O26C C9C 1_555 1_555
O26A Er2A 1_555 1_555
O27C Er3 1_555 1_555
O27C_2 Er3_2 1_555 1_555
O28C C9C 1_555 1_555
O29B Er3B 1_555 1_555
O29_2 Er3_2 1_555 1_555
O30B Er3 1_555 1_555
O30B_2 Er3_2 1_555 1_555
N1B H5B 1_555 1_555
H6B N1B 1_555 1_555
H7B N1B 1_555 1_555
N2B H8B 1_555 1_555
N3B H9B 1_555 1_555
N4B C17B 1_555 1_555
C1A O5A 1_555 1_555
C2A O6A 1_555 1_555
C3_2 O9_2 1_555 1_555
C4_2 O10_2 1_555 1_555
C5A O14A 1_555 1_555
C6A O15A 1_555 1_555
C7C O21C 1_555 1_555
C8C O22C 1_555 1_555
C9C C10C 1_555 1_555
C10C O27C 1_555 1_555
C11B C11 1_555 1_555
C12B N1B 1_555 1_555
H10B C12B 1_555 1_555
H11B C12B 1_555 1_555
C13B C12B 1_555 1_555
H12B C13B 1_555 1_555
H13B C13B 1_555 1_555
C14B N2B 1_555 1_555
H14B C14B 1_555 1_555
H15B C14B 1_555 1_555
C15B C16 1_555 1_555
H16B C15B 1_555 1_555
H17B C15B 1_555 1_555
C16B C15 1_555 1_555
H18B C16B 1_555 1_555
H19B C16B 1_555 1_555
C17B C18B 1_555 1_555
C18B H20B 1_555 1_555
H21B C18B 1_555 1_555
C19B N3B 1_555 1_555
H22B C19B 1_555 1_555
H23B C19B 1_555 1_555
C20B C21 1_555 1_555
H24B C20B 1_555 1_555
H25B C20B 1_555 1_555
C21B C20 1_555 1_555
H26B C21B 1_555 1_555
H27B C21B 1_555 1_555
P2 O18 1_555 1_555
O8 C2 1_555 1_555
O10 Er3_2 1_555 1_555
O16 Er2A 1_555 1_555
O22 Er3C 1_555 1_555
C1 C2 1_555 1_555
C3 C4 1_555 1_555
C5 C6 1_555 1_555
C7 C8 1_555 1_555
C13 C14 1_555 1_555
C18 C19 1_555 1_555
P1_2 O3_2 1_555 1_555
P2_2 O18_2 1_555 1_555
O8A C2A 1_555 1_555
O12_2 C4_2 1_555 1_555
O16A C5A 1_555 1_555
O24C C8C 1_555 1_555
O29B C11B 1_555 1_555
O30B C11B 1_555 1_555
N2B C15B 1_555 1_555
N2B C16B 1_555 1_555
N3B C20B 1_555 1_555
N3B C21B 1_555 1_555
C1A C2A 1_555 1_555
C3_2 C4_2 1_555 1_555
C5A C6A 1_555 1_555
C7C C8C 1_555 1_555
C13B C14B 1_555 1_555
C18B C19B 1_555 1_555

#END
