
#######################################################################
#
#                 Cambridge Crystallographic Data Centre
#                                CCDC 
#
#######################################################################
#
# If this CIF has been generated from an entry in the Cambridge 
# Structural Database, then it will include bibliographic, chemical, 
# crystal, experimental, refinement or atomic coordinate data resulting 
# from the CCDC's data processing and validation procedures.
#
#######################################################################

data_DUDKEU
_symmetry_cell_setting           orthorhombic
_symmetry_space_group_name_H-M   'P n n a'
_symmetry_Int_Tables_number      52
_space_group_name_Hall           '-P 2a 2bc'
loop_
_symmetry_equiv_pos_site_id
_symmetry_equiv_pos_as_xyz
1 x,y,z
2 1/2-x,-y,z
3 x,1/2-y,1/2-z
4 1/2-x,1/2+y,1/2-z
5 -x,-y,-z
6 1/2+x,y,-z
7 -x,1/2+y,1/2+z
8 1/2+x,1/2-y,1/2+z
_cell_length_a                   24.2784(9)
_cell_length_b                   13.3684(4)
_cell_length_c                   15.9103(6)
_cell_angle_alpha                90
_cell_angle_beta                 90
_cell_angle_gamma                90
_cell_volume                     5163.9
loop_
_atom_site_label
_atom_site_type_symbol
_atom_site_fract_x
_atom_site_fract_y
_atom_site_fract_z
Co1 Co 0.55092(3) 0.35477(5) 0.38927(4)
Co2 Co 0.38720(3) 0.06075(5) 0.61349(4)
Co3 Co 0.46217(3) 0.24586(5) 0.50505(4)
O1 O 0.91919(15) 0.1793(3) 0.9123(2)
O2 O 0.83465(15) 0.0519(3) 0.4956(2)
O3 O 0.50969(15) 0.1697(3) 0.5927(2)
O4 O 0.91794(14) 0.1103(3) 0.5106(2)
O5 O 0.60647(16) 0.3012(3) 0.3051(3)
O6 O 0.41334(15) 0.3126(3) 0.5936(2)
O7 O 0.51870(14) 0.1265(3) 0.9846(2)
O8 O 0.52362(15) 0.2031(3) 0.4211(2)
O9 O 0.58938(16) 0.0892(3) 0.4028(3)
O10 O 0.45597(15) 0.0884(3) 0.6854(2)
O11 O 0.98275(14) 0.1332(3) 0.8172(2)
C1 C 0.7921(2) 0.1217(4) 0.7431(3)
O12 O 0.60737(15) 0.1373(3) 1.0097(2)
N1 N 0.73736(17) 0.1235(3) 0.7752(3)
O13 O 0.35381(17) 0.1976(3) 0.6429(3)
N2 N 0.70026(17) 0.1259(3) 0.7201(3)
C2 C 0.5373(2) 0.1228(4) 0.8088(3)
H1 H 0.5010 0.1216 0.8278
C3 C 0.8708(2) 0.0886(4) 0.5416(3)
C4 C 0.5422(2) 0.1140(4) 0.4235(3)
H2 H 0.5186 0.0640 0.4422
C5 C 0.5841(3) 0.2500 0.2500
H3 H 0.5458 0.2500 0.2500
O14 O 0.57666(17) 0.4961(3) 0.3522(3)
H4 H 0.6087 0.4927 0.3301
H5 H 0.5779 0.5349 0.3949
C6 C 0.6456(2) 0.1246(4) 0.7533(3)
C7 C 0.8337(2) 0.1343(4) 0.8015(3)
H6 H 0.8249 0.1435 0.8578
C8 C 0.8889(2) 0.1331(4) 0.7764(3)
C9 C 0.8046(2) 0.1053(4) 0.6586(3)
H7 H 0.7766 0.0943 0.6198
C10 C 0.9014(2) 0.1183(4) 0.6921(3)
H8 H 0.9380 0.1169 0.6748
C11 C 0.8595(2) 0.1055(4) 0.6332(3)
C12 C 0.5479(2) 0.1246(4) 0.7234(3)
C13 C 0.6343(2) 0.1219(4) 0.8392(3)
H9 H 0.6630 0.1195 0.8780
C14 C 0.5684(2) 0.1290(4) 0.9581(3)
C15 C 0.6027(2) 0.1272(4) 0.6956(3)
H10 H 0.6103 0.1308 0.6384
C16 C 0.5802(2) 0.1228(4) 0.8664(3)
O15 O 0.3412(3) 0.0040(5) 0.7098(3)
H11 H 0.3455 -0.0677 0.7216
H12 H 0.3010 0.0095 0.7043
C17 C 0.9338(2) 0.1496(4) 0.8403(3)
C18 C 0.5008(2) 0.1283(4) 0.6622(3)
C19 C 0.3736(2) 0.2830(5) 0.6383(4)
H13 H 0.3571 0.3313 0.6720
O5B O 0.60647(16) 0.1988(3) 0.1949(3)
Co1B Co 0.55092(3) 0.14523(5) 0.11073(4)
Co2B Co 0.38720(3) 0.43925(5) -0.11349(4)
Co3B Co 0.46217(3) 0.25414(5) -0.00505(4)
O1B O 0.91919(15) 0.3207(3) -0.4123(2)
O2B O 0.83465(15) 0.4481(3) 0.0044(2)
O3B O 0.50969(15) 0.3303(3) -0.0927(2)
O4B O 0.91794(14) 0.3897(3) -0.0106(2)
O6B O 0.41334(15) 0.1874(3) -0.0936(2)
O7B O 0.51870(14) 0.3735(3) -0.4846(2)
O8B O 0.52362(15) 0.2969(3) 0.0789(2)
O9B O 0.58938(16) 0.4108(3) 0.0972(3)
O10B O 0.45597(15) 0.4116(3) -0.1854(2)
O11B O 0.98275(14) 0.3668(3) -0.3172(2)
C1B C 0.7921(2) 0.3783(4) -0.2431(3)
O12B O 0.60737(15) 0.3627(3) -0.5097(2)
N1B N 0.73736(17) 0.3765(3) -0.2752(3)
O13B O 0.35381(17) 0.3024(3) -0.1429(3)
N2B N 0.70026(17) 0.3741(3) -0.2201(3)
C2B C 0.5373(2) 0.3772(4) -0.3088(3)
H1B H 0.5010 0.3784 -0.3278
C3B C 0.8708(2) 0.4114(4) -0.0416(3)
C4B C 0.5422(2) 0.3860(4) 0.0765(3)
H2B H 0.5186 0.4360 0.0578
O14B O 0.57666(17) 0.0039(3) 0.1478(3)
H4B H 0.6087 0.0073 0.1699
H5B H 0.5779 -0.0349 0.1051
C6B C 0.6456(2) 0.3754(4) -0.2533(3)
C7B C 0.8337(2) 0.3657(4) -0.3015(3)
H6B H 0.8249 0.3565 -0.3578
C8B C 0.8889(2) 0.3669(4) -0.2764(3)
C9B C 0.8046(2) 0.3947(4) -0.1586(3)
H7B H 0.7766 0.4057 -0.1198
C10B C 0.9014(2) 0.3817(4) -0.1921(3)
H8B H 0.9380 0.3831 -0.1748
C11B C 0.8595(2) 0.3945(4) -0.1332(3)
C12B C 0.5479(2) 0.3754(4) -0.2234(3)
C13B C 0.6343(2) 0.3781(4) -0.3392(3)
H9B H 0.6630 0.3805 -0.3780
C14B C 0.5684(2) 0.3710(4) -0.4581(3)
C15B C 0.6027(2) 0.3728(4) -0.1956(3)
H10B H 0.6103 0.3692 -0.1384
C16B C 0.5802(2) 0.3772(4) -0.3664(3)
O15B O 0.3412(3) 0.4960(5) -0.2098(3)
H11B H 0.3455 0.5677 -0.2216
H12B H 0.3010 0.4905 -0.2043
C17B C 0.9338(2) 0.3504(4) -0.3403(3)
C18B C 0.5008(2) 0.3717(4) -0.1622(3)
C19B C 0.3736(2) 0.2170(5) -0.1383(4)
H13B H 0.3571 0.1687 -0.1720
Co1_2 Co 0.55092(3) 0.35477(5) -0.61073(4)
Co1B_2 Co 0.55092(3) 0.14523(5) 1.11073(4)
Co1E Co 1.05092(3) 0.35477(5) -0.38927(4)
Co1G Co 1.05092(3) 0.14523(5) 0.88927(4)
Co2D Co 0.61280(3) -0.06075(5) 0.38651(4)
Co2E Co 0.88720(3) 0.06075(5) 0.38651(4)
Co2F Co 0.61280(3) 0.56075(5) 0.11349(4)
Co2G Co 0.88720(3) 0.43925(5) 0.11349(4)
Co3_2 Co 0.46217(3) 0.24586(5) -0.49495(4)
Co3B_2 Co 0.46217(3) 0.25414(5) 0.99495(4)
Co3E Co 0.96217(3) 0.24586(5) -0.50505(4)
Co3E_2 Co 0.96217(3) 0.24586(5) 0.49495(4)
Co3G Co 0.96217(3) 0.25414(5) 0.00505(4)
Co3G_2 Co 0.96217(3) 0.25414(5) 1.00505(4)
O1E O 0.41919(15) 0.1793(3) 0.0877(2)
O1G O 0.41919(15) 0.3207(3) 0.4123(2)
O2E O 0.33465(15) 0.0519(3) 0.5044(2)
O2G O 0.33465(15) 0.4481(3) -0.0044(2)
O4E O 0.41794(14) 0.1103(3) 0.4894(2)
O4G O 0.41794(14) 0.3897(3) 0.0106(2)
O7_2 O 0.51870(14) 0.1265(3) -0.0154(2)
O7B_2 O 0.51870(14) 0.3735(3) 0.5154(2)
O9D O 0.41062(16) -0.0892(3) 0.5972(3)
O9F O 0.41062(16) 0.5892(3) -0.0972(3)
O11E O 0.48275(14) 0.1332(3) 0.1828(2)
O11G O 0.48275(14) 0.3668(3) 0.3172(2)
O12_2 O 0.60737(15) 0.1373(3) 0.0097(2)
O12B_2 O 0.60737(15) 0.3627(3) 0.4903(2)
C20 C 0.7078(5) 0.1832(9) 0.4964(7)
H14 H 0.7450 0.1596 0.4902
H15 H 0.6841 0.1280 0.5099
H16 H 0.7064 0.2318 0.5408
N3 N 0.6909(5) 0.2262(13) 0.4231(7)
H17 H 0.6629 0.2030 0.3963
C21 C 0.7199(16) 0.309(2) 0.392(2)
H18 H 0.7383 0.3416 0.4380
H19 H 0.6947 0.3543 0.3662
H20 H 0.7466 0.2866 0.3519
O16 O 0.2500 0.0000 0.7637(17)
O17 O 0.6760(14) 0.577(3) 0.4951(15)
H21? H 0.6575 0.2468 0.4178
C22? C 0.7282(15) 0.237(3) 0.3564(19)
H22? H 0.7646 0.2470 0.3783
H23? H 0.7178 0.2927 0.3224
H24? H 0.7278 0.1769 0.3228
loop_
_geom_bond_atom_site_label_1
_geom_bond_atom_site_label_2
_geom_bond_site_symmetry_1
_geom_bond_site_symmetry_2
Co1 O5 1_555 1_555
Co2 O10 1_555 1_555
Co3 O3 1_555 1_555
O1 C17 1_555 1_555
O2 C3 1_555 1_555
O3 C18 1_555 1_555
O4 C3 1_555 1_555
O5 C5 1_555 1_555
O6 Co3 1_555 1_555
O7 C14 1_555 1_555
O8 Co1 1_555 1_555
O9 C4 1_555 1_555
O10 C18 1_555 1_555
O11 C17 1_555 1_555
C1 N1 1_555 1_555
O12 C14 1_555 1_555
N1 N2 1_555 1_555
O13 Co2 1_555 1_555
N2 C6 1_555 1_555
C2 H1 1_555 1_555
C3 C11 1_555 1_555
C4 O8 1_555 1_555
H2 C4 1_555 1_555
C5 H3 1_555 1_555
O14 Co1 1_555 1_555
H4 O14 1_555 1_555
H5 O14 1_555 1_555
C6 C13 1_555 1_555
C7 C1 1_555 1_555
H6 C7 1_555 1_555
C8 C7 1_555 1_555
C9 C1 1_555 1_555
H7 C9 1_555 1_555
C10 C8 1_555 1_555
H8 C10 1_555 1_555
C11 C9 1_555 1_555
C12 C2 1_555 1_555
C13 H9 1_555 1_555
C14 C16 1_555 1_555
C15 C6 1_555 1_555
H10 C15 1_555 1_555
C16 C2 1_555 1_555
O15 Co2 1_555 1_555
H11 O15 1_555 1_555
H12 O15 1_555 1_555
C17 C8 1_555 1_555
C18 C12 1_555 1_555
C19 O6 1_555 1_555
H13 C19 1_555 1_555
C20 H14 1_555 1_555
H15 C20 1_555 1_555
H16 C20 1_555 1_555
N3 C20 1_555 1_555
H17 N3 1_555 1_555
C21 N3 1_555 1_555
H18 C21 1_555 1_555
H19 C21 1_555 1_555
H20 C21 1_555 1_555
O5B C5 1_555 1_555
Co1B O5B 1_555 1_555
Co2B O10B 1_555 1_555
Co3B O3B 1_555 1_555
O1B C17B 1_555 1_555
O2B C3B 1_555 1_555
O3B C18B 1_555 1_555
O4B C3B 1_555 1_555
O6B Co3B 1_555 1_555
O7B C14B 1_555 1_555
O8B Co1B 1_555 1_555
O9B C4B 1_555 1_555
O10B C18B 1_555 1_555
O11B C17B 1_555 1_555
C1B N1B 1_555 1_555
O12B C14B 1_555 1_555
N1B N2B 1_555 1_555
O13B Co2B 1_555 1_555
N2B C6B 1_555 1_555
C2B H1B 1_555 1_555
C3B C11B 1_555 1_555
C4B O8B 1_555 1_555
H2B C4B 1_555 1_555
O14B Co1B 1_555 1_555
H4B O14B 1_555 1_555
H5B O14B 1_555 1_555
C6B C13B 1_555 1_555
C7B C1B 1_555 1_555
H6B C7B 1_555 1_555
C8B C7B 1_555 1_555
C9B C1B 1_555 1_555
H7B C9B 1_555 1_555
C10B C8B 1_555 1_555
H8B C10B 1_555 1_555
C11B C9B 1_555 1_555
C12B C2B 1_555 1_555
C13B H9B 1_555 1_555
C14B C16B 1_555 1_555
C15B C6B 1_555 1_555
H10B C15B 1_555 1_555
C16B C2B 1_555 1_555
O15B Co2B 1_555 1_555
H11B O15B 1_555 1_555
H12B O15B 1_555 1_555
C17B C8B 1_555 1_555
C18B C12B 1_555 1_555
C19B O6B 1_555 1_555
H13B C19B 1_555 1_555
Co1_2 O7B 1_555 1_555
Co1B_2 O7 1_555 1_555
Co1E O11B 1_555 1_555
Co1G O11 1_555 1_555
Co2D O9 1_555 1_555
Co2E O2 1_555 1_555
Co2F O9B 1_555 1_555
Co2G O2B 1_555 1_555
Co3_2 O7B 1_555 1_555
Co3B_2 O7 1_555 1_555
Co3E O1B 1_555 1_555
Co3E_2 O4 1_555 1_555
Co3G O4B 1_555 1_555
Co3G_2 O1 1_555 1_555
O1E Co3B 1_555 1_555
O1G Co3 1_555 1_555
O2E Co2 1_555 1_555
O2G Co2B 1_555 1_555
O4E Co2 1_555 1_555
O4G Co2B 1_555 1_555
O7_2 Co1B 1_555 1_555
O7B_2 Co1 1_555 1_555
O9D Co2 1_555 1_555
O9F Co2B 1_555 1_555
O11E Co1B 1_555 1_555
O11G Co1 1_555 1_555
O12_2 Co1B 1_555 1_555
O12B_2 Co1 1_555 1_555
Co3 O8 1_555 1_555
Co3 O4E 1_555 1_555
Co3 O7B_2 1_555 1_555
O4 Co2E 1_555 1_555
O12 Co1B_2 1_555 1_555
O13 C19 1_555 1_555
C10 C11 1_555 1_555
C12 C15 1_555 1_555
C13 C16 1_555 1_555
Co3B O8B 1_555 1_555
Co3B O4G 1_555 1_555
Co3B O7_2 1_555 1_555
O4B Co2G 1_555 1_555
O12B Co1_2 1_555 1_555
O13B C19B 1_555 1_555
C10B C11B 1_555 1_555
C12B C15B 1_555 1_555
C13B C16B 1_555 1_555

#END
