
#######################################################################
#
#                 Cambridge Crystallographic Data Centre
#                                CCDC 
#
#######################################################################
#
# If this CIF has been generated from an entry in the Cambridge 
# Structural Database, then it will include bibliographic, chemical, 
# crystal, experimental, refinement or atomic coordinate data resulting 
# from the CCDC's data processing and validation procedures.
#
#######################################################################

data_DUFZUA
_symmetry_cell_setting           hexagonal
_symmetry_space_group_name_H-M   'P 6/m c c'
_symmetry_Int_Tables_number      192
_space_group_name_Hall           "-P 6 2'c"
loop_
_symmetry_equiv_pos_site_id
_symmetry_equiv_pos_as_xyz
1 x,y,z
2 -y,x-y,z
3 -x+y,-x,z
4 -x,-y,z
5 y,-x+y,z
6 x-y,x,z
7 y,x,1/2-z
8 x-y,-y,1/2-z
9 -x,-x+y,1/2-z
10 -y,-x,1/2-z
11 -x+y,y,1/2-z
12 x,x-y,1/2-z
13 -x,-y,-z
14 y,-x+y,-z
15 x-y,x,-z
16 x,y,-z
17 -y,x-y,-z
18 -x+y,-x,-z
19 -y,-x,1/2+z
20 -x+y,y,1/2+z
21 x,x-y,1/2+z
22 y,x,1/2+z
23 x-y,-y,1/2+z
24 -x,-x+y,1/2+z
_cell_length_a                   15.291(4)
_cell_length_b                   15.291(4)
_cell_length_c                   15.573(7)
_cell_angle_alpha                90
_cell_angle_beta                 90
_cell_angle_gamma                120
_cell_volume                     3153.37
loop_
_atom_site_label
_atom_site_type_symbol
_atom_site_fract_x
_atom_site_fract_y
_atom_site_fract_z
Gd1 Gd 0.3333 0.6667 0.2500
Fe1 Fe 0.5000 0.5000 0.0000
O1 O 0.4138(3) 0.6131(3) 0.1433(3)
O2 O 0.5529(3) 0.6153(3) 0.0921(3)
O3 O 0.6489(4) 0.5118(5) 0.0000
N1 N 0.5223(5) 0.7611(2) 0.2500
C1 C 0.7297(7) 0.8649(3) 0.2500
H1 H 0.7999 0.9000 0.2500
C2 C 0.6785(5) 0.7858(5) 0.1952(6)
H2 H 0.7131 0.7659 0.1581
C3 C 0.5740(5) 0.7357(5) 0.1959(5)
C4 C 0.5084(5) 0.6473(5) 0.1385(4)
Gd1L Gd 0.6667 0.3333 -0.2500
Fe1B Fe 0.0000 0.5000 0.0000
Fe1A Fe 0.5000 1.0000 0.0000
Fe1F Fe 0.5000 0.5000 -0.5000
Fe1F_2 Fe 0.5000 0.5000 0.5000
Fe1G Fe 0.0000 0.5000 0.5000
Fe1H Fe 0.5000 1.0000 0.5000
Fe1A_2 Fe 0.5000 0.0000 0.0000
Fe1B_2 Fe 1.0000 0.5000 0.0000
Fe1G_2 Fe 1.0000 0.5000 -0.5000
Fe1H_2 Fe 0.5000 0.0000 -0.5000
O1K O 0.4138(3) 0.8007(4) 0.3567(3)
O1A O 0.3869(3) 0.8007(4) 0.1433(3)
O1J O 0.1993(4) 0.6131(3) 0.3567(3)
O1B O 0.1993(4) 0.5862(3) 0.1433(3)
O1I O 0.3869(3) 0.5862(3) 0.3567(3)
O1L O 0.5862(3) 0.3869(3) -0.1433(3)
O1U O 0.6131(3) 0.4138(3) -0.3567(3)
O1M O 0.6131(3) 0.1993(4) -0.1433(3)
O1N O 0.8007(4) 0.4138(3) -0.1433(3)
O1V O 0.8007(4) 0.3869(3) -0.3567(3)
O1W O 0.5862(3) 0.1993(4) -0.3567(3)
O2K O 0.5529(3) 0.9376(4) 0.4079(3)
O2A O 0.3847(3) 0.9376(4) 0.0921(3)
O2J O 0.0624(4) 0.6153(3) 0.4079(3)
O2B O 0.0624(4) 0.4471(3) 0.0921(3)
O2I O 0.3847(3) 0.4471(3) 0.4079(3)
O2P O 0.3847(3) 0.9376(4) -0.0921(3)
O2R O 0.3847(3) 0.4471(3) -0.4079(3)
O2D O 0.6153(3) 1.0624(4) 0.0921(3)
O2M O 0.6153(3) 1.0624(4) -0.0921(3)
O2C O 0.4471(3) 0.3847(3) 0.0921(3)
O2O O 0.5529(3) 0.6153(3) -0.0921(3)
O2L O 0.4471(3) 0.3847(3) -0.0921(3)
O2F O 0.6153(3) 0.5529(3) -0.5921(3)
O2I_2 O 0.3847(3) 0.4471(3) -0.5921(3)
O2U O 0.6153(3) 0.5529(3) -0.4079(3)
O2M_2 O 0.6153(3) 0.0624(4) -0.0921(3)
O2N O 0.9376(4) 0.5529(3) -0.0921(3)
O2V O 0.9376(4) 0.3847(3) -0.4079(3)
O2W O 0.4471(3) 0.0624(4) -0.4079(3)
O3C O 0.3511(4) 0.4882(5) 0.0000
O3A O 0.4882(5) 1.1371(6) 0.0000
O3D O 0.5118(5) 0.8629(6) 0.0000
O3F O 0.5118(5) 0.6489(4) -0.5000
O3I O 0.4882(5) 0.3511(4) -0.5000
N1A N 0.2389(2) 0.7612(5) 0.2500
N1B N 0.2388(5) 0.4777(5) 0.2500
N1L N 0.4777(5) 0.2389(2) -0.2500
N1N N 0.7612(5) 0.5223(5) -0.2500
N1M N 0.7611(2) 0.2388(5) -0.2500
C1A C 0.1351(3) 0.8648(8) 0.2500
C1B C 0.1352(8) 0.2703(7) 0.2500
C1L C 0.2703(7) 0.1351(3) -0.2500
C1N C 0.8648(8) 0.7297(7) -0.2500
C1M C 0.8649(3) 0.1352(8) -0.2500
H1A H 0.1000 0.8999 0.2500
H1B H 0.1001 0.2001 0.2500
H1L H 0.2001 0.1000 -0.2500
H1N H 0.8999 0.7999 -0.2500
H1M H 0.9000 0.1001 -0.2500
C2K C 0.6785(5) 0.8927(7) 0.3048(6)
C2A C 0.2142(5) 0.8927(7) 0.1952(6)
C2J C 0.1073(7) 0.7858(5) 0.3048(6)
C2B C 0.1073(7) 0.3215(5) 0.1952(6)
C2I C 0.2142(5) 0.3215(5) 0.3048(6)
C2L C 0.3215(5) 0.2142(5) -0.1952(6)
C2U C 0.7858(5) 0.6785(5) -0.3048(6)
C2W C 0.3215(5) 0.1073(7) -0.3048(6)
C2N C 0.8927(7) 0.6785(5) -0.1952(6)
C2M C 0.7858(5) 0.1073(7) -0.1952(6)
C2V C 0.8927(7) 0.2142(5) -0.3048(6)
H2K H 0.7131 0.9472 0.3419
H2A H 0.2341 0.9472 0.1581
H2J H 0.0528 0.7659 0.3419
H2B H 0.0528 0.2869 0.1581
H2I H 0.2341 0.2869 0.3419
H2L H 0.2869 0.2341 -0.1581
H2U H 0.7659 0.7131 -0.3419
H2W H 0.2869 0.0528 -0.3419
H2N H 0.9472 0.7131 -0.1581
H2M H 0.7659 0.0528 -0.1581
H2V H 0.9472 0.2341 -0.3419
C3K C 0.5740(5) 0.8383(7) 0.3041(5)
C3A C 0.2643(5) 0.8383(7) 0.1959(5)
C3J C 0.1617(7) 0.7357(5) 0.3041(5)
C3B C 0.1617(7) 0.4260(5) 0.1959(5)
C3I C 0.2643(5) 0.4260(5) 0.3041(5)
C3L C 0.4260(5) 0.2643(5) -0.1959(5)
C3U C 0.7357(5) 0.5740(5) -0.3041(5)
C3W C 0.4260(5) 0.1617(7) -0.3041(5)
C3N C 0.8383(7) 0.5740(5) -0.1959(5)
C3M C 0.7357(5) 0.1617(7) -0.1959(5)
C3V C 0.8383(7) 0.2643(5) -0.3041(5)
C4K C 0.5084(5) 0.8611(7) 0.3615(4)
C4A C 0.3527(5) 0.8611(7) 0.1385(4)
C4J C 0.1389(7) 0.6473(5) 0.3615(4)
C4B C 0.1389(7) 0.4916(5) 0.1385(4)
C4I C 0.3527(5) 0.4916(5) 0.3615(4)
C4L C 0.4916(5) 0.3527(5) -0.1385(4)
C4U C 0.6473(5) 0.5084(5) -0.3615(4)
C4M C 0.6473(5) 0.1389(7) -0.1385(4)
C4N C 0.8611(7) 0.5084(5) -0.1385(4)
C4V C 0.8611(7) 0.3527(5) -0.3615(4)
C4W C 0.4916(5) 0.1389(7) -0.3615(4)
O4 O 0.7919(17) 0.7350(14) 0.0000
loop_
_geom_bond_atom_site_label_1
_geom_bond_atom_site_label_2
_geom_bond_site_symmetry_1
_geom_bond_site_symmetry_2
Gd1 O1 1_555 1_555
Fe1 O2 1_555 1_555
O1 C4 1_555 1_555
O2 C4 1_555 1_555
O3 Fe1 1_555 1_555
N1 Gd1 1_555 1_555
C1 H1 1_555 1_555
C2 C1 1_555 1_555
H2 C2 1_555 1_555
C3 N1 1_555 1_555
C4 C3 1_555 1_555
Gd1L O1L 1_555 1_555
Fe1B O2B 1_555 1_555
Fe1A O2A 1_555 1_555
Fe1F O2R 1_555 1_555
Fe1F_2 O2I 1_555 1_555
Fe1G O2J 1_555 1_555
Fe1H O2K 1_555 1_555
Fe1A_2 O2M_2 1_555 1_555
Fe1B_2 O2N 1_555 1_555
Fe1G_2 O2V 1_555 1_555
Fe1H_2 O2W 1_555 1_555
O1K Gd1 1_555 1_555
O1A Gd1 1_555 1_555
O1J Gd1 1_555 1_555
O1B Gd1 1_555 1_555
O1I Gd1 1_555 1_555
O1L C4L 1_555 1_555
O1U Gd1L 1_555 1_555
O1M Gd1L 1_555 1_555
O1N Gd1L 1_555 1_555
O1V Gd1L 1_555 1_555
O1W Gd1L 1_555 1_555
O2K C4K 1_555 1_555
O2A C4A 1_555 1_555
O2J C4J 1_555 1_555
O2B C4B 1_555 1_555
O2I C4I 1_555 1_555
O2P Fe1A 1_555 1_555
O2D Fe1A 1_555 1_555
O2M Fe1A 1_555 1_555
O2C Fe1 1_555 1_555
O2O Fe1 1_555 1_555
O2L Fe1 1_555 1_555
O2F Fe1F 1_555 1_555
O2I_2 Fe1F 1_555 1_555
O2U Fe1F 1_555 1_555
O2M_2 C4M 1_555 1_555
O2N C4N 1_555 1_555
O2V C4V 1_555 1_555
O2W C4W 1_555 1_555
O3C Fe1 1_555 1_555
O3A Fe1A 1_555 1_555
O3D Fe1A 1_555 1_555
O3F Fe1F 1_555 1_555
O3I Fe1F 1_555 1_555
N1A Gd1 1_555 1_555
N1B Gd1 1_555 1_555
N1L Gd1L 1_555 1_555
N1N Gd1L 1_555 1_555
N1M Gd1L 1_555 1_555
C1A H1A 1_555 1_555
C1B H1B 1_555 1_555
C1L H1L 1_555 1_555
C1N H1N 1_555 1_555
C1M H1M 1_555 1_555
C2K C1 1_555 1_555
C2A C1A 1_555 1_555
C2J C1A 1_555 1_555
C2B C1B 1_555 1_555
C2I C1B 1_555 1_555
C2L C1L 1_555 1_555
C2U C1N 1_555 1_555
C2W C1L 1_555 1_555
C2N C1N 1_555 1_555
C2M C1M 1_555 1_555
C2V C1M 1_555 1_555
H2K C2K 1_555 1_555
H2A C2A 1_555 1_555
H2J C2J 1_555 1_555
H2B C2B 1_555 1_555
H2I C2I 1_555 1_555
H2L C2L 1_555 1_555
H2U C2U 1_555 1_555
H2W C2W 1_555 1_555
H2N C2N 1_555 1_555
H2M C2M 1_555 1_555
H2V C2V 1_555 1_555
C3K N1 1_555 1_555
C3A N1A 1_555 1_555
C3J N1A 1_555 1_555
C3B N1B 1_555 1_555
C3I N1B 1_555 1_555
C3L N1L 1_555 1_555
C3U N1N 1_555 1_555
C3W N1L 1_555 1_555
C3N N1N 1_555 1_555
C3M N1M 1_555 1_555
C3V N1M 1_555 1_555
C4K O1K 1_555 1_555
C4A O1A 1_555 1_555
C4J O1J 1_555 1_555
C4B O1B 1_555 1_555
C4I O1I 1_555 1_555
C4L O2L 1_555 1_555
C4U O1U 1_555 1_555
C4M O1M 1_555 1_555
C4N O1N 1_555 1_555
C4V O1V 1_555 1_555
C4W O1W 1_555 1_555
C2 C3 1_555 1_555
O2U C4U 1_555 1_555
C2K C3K 1_555 1_555
C2A C3A 1_555 1_555
C2J C3J 1_555 1_555
C2B C3B 1_555 1_555
C2I C3I 1_555 1_555
C2L C3L 1_555 1_555
C2U C3U 1_555 1_555
C2W C3W 1_555 1_555
C2N C3N 1_555 1_555
C2M C3M 1_555 1_555
C2V C3V 1_555 1_555
C3K C4K 1_555 1_555
C3A C4A 1_555 1_555
C3J C4J 1_555 1_555
C3B C4B 1_555 1_555
C3I C4I 1_555 1_555
C3L C4L 1_555 1_555
C3U C4U 1_555 1_555
C3W C4W 1_555 1_555
C3N C4N 1_555 1_555
C3M C4M 1_555 1_555
C3V C4V 1_555 1_555

#END
