
#######################################################################
#
#                 Cambridge Crystallographic Data Centre
#                                CCDC 
#
#######################################################################
#
# If this CIF has been generated from an entry in the Cambridge 
# Structural Database, then it will include bibliographic, chemical, 
# crystal, experimental, refinement or atomic coordinate data resulting 
# from the CCDC's data processing and validation procedures.
#
#######################################################################

data_DUKMON
_symmetry_cell_setting           monoclinic
_symmetry_space_group_name_H-M   'P 21/c'
_symmetry_Int_Tables_number      14
_space_group_name_Hall           '-P 2ybc'
loop_
_symmetry_equiv_pos_site_id
_symmetry_equiv_pos_as_xyz
1 x,y,z
2 -x,1/2+y,1/2-z
3 -x,-y,-z
4 x,1/2-y,1/2+z
_cell_length_a                   9.6859(19)
_cell_length_b                   16.914(3)
_cell_length_c                   18.412(5)
_cell_angle_alpha                90
_cell_angle_beta                 115.16(2)
_cell_angle_gamma                90
_cell_volume                     2730.21
loop_
_atom_site_label
_atom_site_type_symbol
_atom_site_fract_x
_atom_site_fract_y
_atom_site_fract_z
Co1 Co 0.57640(7) 0.29222(4) -0.29267(4)
O1 O 0.8283(4) 0.3483(3) -0.3010(2)
O2 O 0.6262(4) 0.2860(2) -0.3867(2)
O3 O 0.5434(4) 0.2448(2) -0.6666(2)
O4 O 0.7221(4) 0.2778(2) -0.7050(2)
O5 O 1.1206(4) 0.4210(2) -0.4573(2)
N1 N 0.5496(5) 0.4040(2) -0.2616(2)
N2 N 0.4608(5) 0.4984(3) -0.2117(3)
N3 N 0.3634(4) 0.2469(2) -0.3536(2)
N4 N 0.1626(5) 0.1970(2) -0.4528(3)
C1 C 0.7519(5) 0.3219(3) -0.3694(3)
C2 C 0.8032(5) 0.3322(3) -0.4348(3)
C3 C 0.7162(5) 0.3024(3) -0.5108(3)
H1 H 0.6261 0.2756 -0.5209
C4 C 0.7624(5) 0.3123(3) -0.5718(3)
C5 C 0.8980(5) 0.3527(3) -0.5566(3)
H2 H 0.9295 0.3599 -0.5973
C6 C 0.9851(5) 0.3819(3) -0.4801(3)
C7 C 0.9367(5) 0.3722(3) -0.4195(3)
H3 H 0.9945 0.3926 -0.3687
C8 C 0.6686(6) 0.2764(3) -0.6527(3)
C9 C 1.1867(5) 0.4273(3) -0.5138(3)
H4 H 1.1217 0.4586 -0.5598
H5 H 1.1995 0.3753 -0.5323
C10 C 1.3389(5) 0.4669(3) -0.4702(3)
H6 H 1.4011 0.4351 -0.4239
H7 H 1.3236 0.5179 -0.4508
C11 C 1.4239(5) 0.4786(3) -0.5224(3)
H8 H 1.3606 0.5089 -0.5696
H9 H 1.4428 0.4274 -0.5403
C12 C 0.2504(6) 0.2332(3) -0.3285(3)
H10 H 0.2577 0.2440 -0.2774
C13 C 0.3050(6) 0.2244(3) -0.4297(3)
H11 H 0.3558 0.2272 -0.4627
C14 C 0.1282(6) 0.2022(3) -0.3888(4)
H12 H 0.0373 0.1871 -0.3872
C15 C 0.0665(6) 0.1603(3) -0.5305(4)
H13 H 0.1196 0.1608 -0.5648
H14 H -0.0273 0.1902 -0.5569
C16 C 0.0304(6) 0.0770(3) -0.5174(3)
C17 C 0.1404(6) 0.0190(3) -0.4955(4)
H15 H 0.2368 0.0312 -0.4917
C18 C -0.1103(7) 0.0566(3) -0.5210(5)
H16 H -0.1863 0.0949 -0.5349
C19 C 0.4400(6) 0.4257(3) -0.2417(3)
H17 H 0.3575 0.3938 -0.2479
C20 C 0.6420(8) 0.4683(4) -0.2447(4)
H18 H 0.7291 0.4716 -0.2538
C21 C 0.5904(8) 0.5261(4) -0.2131(4)
H19 H 0.6349 0.5754 -0.1957
C22 C 0.3744(7) 0.5347(4) -0.1716(4)
H20 H 0.2700 0.5158 -0.1965
H21 H 0.3724 0.5916 -0.1790
C23 C 0.4417(6) 0.5165(3) -0.0824(3)
C24 C 0.4883(6) 0.4408(3) -0.0534(4)
H22 H 0.4803 0.4005 -0.0893
C25 C 0.4539(6) 0.5761(3) -0.0273(4)
H23 H 0.4228 0.6272 -0.0453
O1B O 2.1717(4) 0.6517(3) -0.6990(2)
O2B O 2.3738(4) 0.7140(2) -0.6133(2)
O3B O 2.4566(4) 0.7552(2) -0.3334(2)
O4B O 2.2779(4) 0.7222(2) -0.2950(2)
O5B O 1.8794(4) 0.5790(2) -0.5427(2)
C1B C 2.2481(5) 0.6781(3) -0.6306(3)
C2B C 2.1968(5) 0.6678(3) -0.5652(3)
C3B C 2.2838(5) 0.6976(3) -0.4892(3)
H1B H 2.3739 0.7244 -0.4791
C4B C 2.2376(5) 0.6877(3) -0.4282(3)
C5B C 2.1020(5) 0.6473(3) -0.4434(3)
H2B H 2.0705 0.6401 -0.4027
C6B C 2.0149(5) 0.6181(3) -0.5199(3)
C7B C 2.0633(5) 0.6278(3) -0.5805(3)
H3B H 2.0055 0.6074 -0.6313
C8B C 2.3314(6) 0.7236(3) -0.3473(3)
C9B C 1.8133(5) 0.5727(3) -0.4862(3)
H4B H 1.8783 0.5414 -0.4402
H5B H 1.8005 0.6247 -0.4677
C10B C 1.6611(5) 0.5331(3) -0.5298(3)
H6B H 1.5989 0.5649 -0.5761
H7B H 1.6764 0.4821 -0.5492
C11B C 1.5761(5) 0.5214(3) -0.4776(3)
H8B H 1.6394 0.4911 -0.4304
H9B H 1.5572 0.5726 -0.4597
N1B N 0.4504(5) 0.5960(2) 0.2616(2)
N2B N 0.5392(5) 0.5016(3) 0.2117(3)
C19B C 0.5600(6) 0.5743(3) 0.2417(3)
H17B H 0.6425 0.6062 0.2479
C20B C 0.3580(8) 0.5317(4) 0.2447(4)
H18B H 0.2709 0.5284 0.2538
C21B C 0.4096(8) 0.4739(4) 0.2131(4)
H19B H 0.3651 0.4246 0.1957
C22B C 0.6256(7) 0.4653(4) 0.1716(4)
H20B H 0.7300 0.4842 0.1965
H21B H 0.6276 0.4084 0.1790
C23B C 0.5583(6) 0.4835(3) 0.0824(3)
C24B C 0.5117(6) 0.5592(3) 0.0534(4)
H22B H 0.5197 0.5995 0.0893
C25B C 0.5461(6) 0.4239(3) 0.0273(4)
H23B H 0.5772 0.3728 0.0453
N3B N -0.3634(4) -0.2469(2) -0.6464(2)
N4B N -0.1626(5) -0.1970(2) -0.5472(3)
C12B C -0.2504(6) -0.2332(3) -0.6715(3)
H10B H -0.2577 -0.2440 -0.7226
C13B C -0.3050(6) -0.2244(3) -0.5703(3)
H11B H -0.3558 -0.2272 -0.5373
C14B C -0.1282(6) -0.2022(3) -0.6112(4)
H12B H -0.0373 -0.1871 -0.6128
C15B C -0.0665(6) -0.1603(3) -0.4695(4)
H13B H -0.1196 -0.1608 -0.4352
H14B H 0.0273 -0.1902 -0.4431
C16B C -0.0304(6) -0.0770(3) -0.4826(3)
C17B C -0.1404(6) -0.0190(3) -0.5045(4)
H15B H -0.2368 -0.0312 -0.5083
C18B C 0.1103(7) -0.0566(3) -0.4790(5)
H16B H 0.1863 -0.0949 -0.4651
Co1B Co -0.57640(7) -0.29222(4) -0.70733(4)
Co1A Co 2.42360(7) 0.79222(4) -0.20733(4)
Co1B_2 Co 0.42360(7) 0.70778(4) 0.29267(4)
Co1B_3 Co 2.42360(7) 0.70778(4) -0.70733(4)
Co1C Co 0.57640(7) 0.20778(4) -0.79267(4)
O2B_2 O -0.6262(4) -0.2860(2) -0.6133(2)
O4A O -0.7221(4) -0.2222(2) -0.7950(2)
O4C O 0.7221(4) 0.2222(2) -0.2050(2)
N1B_2 N -0.5496(5) -0.4040(2) -0.7384(2)
O6 O 0.9913(9) 0.0417(5) -0.3062(6)
H24 H 1.0133 -0.0050 -0.2882
H25 H 0.9408 0.0432 -0.3572
O7 O 1.1207(6) 0.3914(3) -0.2068(3)
H26 H 1.1775 0.4044 -0.1586
H27 H 1.0419 0.3658 -0.2114
O8 O 1.2983(5) 0.2580(3) -0.1173(3)
H28 H 1.2221 0.2650 -0.1622
H29 H 1.3691 0.2397 -0.1282
O9 O 1.0237(7) 0.1804(4) -0.2153(4)
H30 H 0.9912 0.2251 -0.2081
H31 H 0.9522 0.1475 -0.2390
loop_
_geom_bond_atom_site_label_1
_geom_bond_atom_site_label_2
_geom_bond_site_symmetry_1
_geom_bond_site_symmetry_2
Co1 O2 1_555 1_555
O1 C1 1_555 1_555
O2 C1 1_555 1_555
O3 C8 1_555 1_555
O4 C8 1_555 1_555
O5 C6 1_555 1_555
N1 Co1 1_555 1_555
N2 C19 1_555 1_555
N3 Co1 1_555 1_555
N4 C13 1_555 1_555
C1 C2 1_555 1_555
C2 C3 1_555 1_555
C3 H1 1_555 1_555
C4 C3 1_555 1_555
C5 C4 1_555 1_555
H2 C5 1_555 1_555
C6 C5 1_555 1_555
C7 C2 1_555 1_555
H3 C7 1_555 1_555
C8 C4 1_555 1_555
C9 O5 1_555 1_555
H4 C9 1_555 1_555
H5 C9 1_555 1_555
C10 C9 1_555 1_555
H6 C10 1_555 1_555
H7 C10 1_555 1_555
C11 C10 1_555 1_555
H8 C11 1_555 1_555
H9 C11 1_555 1_555
C12 N3 1_555 1_555
H10 C12 1_555 1_555
C13 N3 1_555 1_555
H11 C13 1_555 1_555
C14 N4 1_555 1_555
H12 C14 1_555 1_555
C15 N4 1_555 1_555
H13 C15 1_555 1_555
H14 C15 1_555 1_555
C16 C15 1_555 1_555
C17 C16 1_555 1_555
H15 C17 1_555 1_555
C18 C16 1_555 1_555
H16 C18 1_555 1_555
C19 N1 1_555 1_555
H17 C19 1_555 1_555
C20 N1 1_555 1_555
H18 C20 1_555 1_555
C21 N2 1_555 1_555
H19 C21 1_555 1_555
C22 N2 1_555 1_555
H20 C22 1_555 1_555
H21 C22 1_555 1_555
C23 C22 1_555 1_555
C24 C23 1_555 1_555
H22 C24 1_555 1_555
C25 C23 1_555 1_555
H23 C25 1_555 1_555
O6 H24 1_555 1_555
H25 O6 1_555 1_555
O7 H26 1_555 1_555
H27 O7 1_555 1_555
O8 H28 1_555 1_555
H29 O8 1_555 1_555
O9 H30 1_555 1_555
H31 O9 1_555 1_555
O1B C1B 1_555 1_555
O2B C1B 1_555 1_555
O3B C8B 1_555 1_555
O4B C8B 1_555 1_555
O5B C6B 1_555 1_555
C1B C2B 1_555 1_555
C2B C3B 1_555 1_555
C3B H1B 1_555 1_555
C4B C3B 1_555 1_555
C5B C4B 1_555 1_555
H2B C5B 1_555 1_555
C6B C5B 1_555 1_555
C7B C2B 1_555 1_555
H3B C7B 1_555 1_555
C8B C4B 1_555 1_555
C9B O5B 1_555 1_555
H4B C9B 1_555 1_555
H5B C9B 1_555 1_555
C10B C9B 1_555 1_555
H6B C10B 1_555 1_555
H7B C10B 1_555 1_555
C11B C11 1_555 1_555
H8B C11B 1_555 1_555
H9B C11B 1_555 1_555
N1B C19B 1_555 1_555
N2B C19B 1_555 1_555
C19B H17B 1_555 1_555
C20B N1B 1_555 1_555
H18B C20B 1_555 1_555
C21B N2B 1_555 1_555
H19B C21B 1_555 1_555
C22B N2B 1_555 1_555
H20B C22B 1_555 1_555
H21B C22B 1_555 1_555
C23B C22B 1_555 1_555
C24B C25 1_555 1_555
H22B C24B 1_555 1_555
C25B C24 1_555 1_555
H23B C25B 1_555 1_555
N3B C12B 1_555 1_555
N4B C13B 1_555 1_555
C12B H10B 1_555 1_555
C13B N3B 1_555 1_555
H11B C13B 1_555 1_555
C14B N4B 1_555 1_555
H12B C14B 1_555 1_555
C15B N4B 1_555 1_555
H13B C15B 1_555 1_555
H14B C15B 1_555 1_555
C16B C15B 1_555 1_555
C17B C18 1_555 1_555
H15B C17B 1_555 1_555
C18B C17 1_555 1_555
H16B C18B 1_555 1_555
Co1B N3B 1_555 1_555
Co1A O4B 1_555 1_555
Co1B_2 N1B 1_555 1_555
Co1B_3 O2B 1_555 1_555
Co1C O4 1_555 1_555
O2B_2 Co1B 1_555 1_555
O4A Co1B 1_555 1_555
O4C Co1 1_555 1_555
N1B_2 Co1B 1_555 1_555
C6 C7 1_555 1_555
C12 C14 1_555 1_555
C20 C21 1_555 1_555
C6B C7B 1_555 1_555
C10B C11B 1_555 1_555
C20B C21B 1_555 1_555
C23B C24B 1_555 1_555
C23B C25B 1_555 1_555
C12B C14B 1_555 1_555
C16B C17B 1_555 1_555
C16B C18B 1_555 1_555

#END
