
#######################################################################
#
#                 Cambridge Crystallographic Data Centre
#                                CCDC 
#
#######################################################################
#
# If this CIF has been generated from an entry in the Cambridge 
# Structural Database, then it will include bibliographic, chemical, 
# crystal, experimental, refinement or atomic coordinate data resulting 
# from the CCDC's data processing and validation procedures.
#
#######################################################################

data_DULCAQ
_symmetry_cell_setting           triclinic
_symmetry_space_group_name_H-M   'P -1'
_symmetry_Int_Tables_number      2
_space_group_name_Hall           '-P 1'
loop_
_symmetry_equiv_pos_site_id
_symmetry_equiv_pos_as_xyz
1 x,y,z
2 -x,-y,-z
_cell_length_a                   12.8860(6)
_cell_length_b                   16.4783(5)
_cell_length_c                   18.2541(7)
_cell_angle_alpha                80.202(4)
_cell_angle_beta                 86.039(7)
_cell_angle_gamma                81.673(6)
_cell_volume                     3775.33
loop_
_atom_site_label
_atom_site_type_symbol
_atom_site_fract_x
_atom_site_fract_y
_atom_site_fract_z
Zn1 Zn 0.83226(4) 0.70857(3) 0.32595(3)
Zn2 Zn 1.75666(4) 0.23695(3) -0.01226(3)
Zn3 Zn 1.48660(5) 0.27513(4) 0.26392(3)
C1 C 0.9342(4) 0.5883(3) 0.4266(3)
C2 C 0.9524(5) 0.5303(4) 0.4997(3)
H1 H 0.9558 0.5635 0.5383
H2 H 0.8923 0.5004 0.5122
C3 C 1.9015(6) 0.1025(4) -0.0126(4)
C4 C 1.9457(6) 0.0101(4) -0.0052(6)
H3 H 1.9087 -0.0199 0.0365
H4 H 1.9302 -0.0099 -0.0497
C5 C 1.5346(4) 0.2859(4) 0.0001(3)
C6 C 1.4261(5) 0.2615(5) 0.0160(4)
H5 H 1.4014 0.2493 -0.0295
H6 H 1.3793 0.3085 0.0299
C7 C 1.4185(6) 0.1867(5) 0.0770(4)
H7 H 1.4665 0.1397 0.0640
H8 H 1.3479 0.1720 0.0797
C8 C 1.4441(5) 0.2024(6) 0.1536(4)
C9 C 0.9477(6) 0.8469(4) 0.2393(4)
H9 H 0.8951 0.8673 0.2058
C10 C 1.0391(6) 0.8758(4) 0.2381(4)
H10 H 1.0615 0.9194 0.2043
C11 C 1.0329(5) 0.7752(4) 0.3292(4)
H11 H 1.0514 0.7361 0.3709
C12 C 1.5066(6) 0.4435(4) 0.1755(5)
H12 H 1.4914 0.4218 0.1342
C13 C 1.5229(6) 0.5197(5) 0.1723(4)
H13 H 1.5212 0.5616 0.1310
C14 C 1.5321(7) 0.4483(6) 0.2855(5)
H14 H 1.5378 0.4367 0.3368
C15 C 1.2005(6) 0.8386(5) 0.3176(6)
H15 H 1.2170 0.8933 0.2953
H16 H 1.1989 0.8355 0.3712
C16 C 1.2851(5) 0.7755(4) 0.2958(5)
C17 C 1.3544(7) 0.7930(5) 0.2352(6)
H17 H 1.3442 0.8446 0.2048
C18 C 1.4376(7) 0.7356(6) 0.2194(7)
H18 H 1.4798 0.7448 0.1761
C19 C 1.4566(6) 0.6609(4) 0.2725(7)
C20 C 1.3848(8) 0.6431(7) 0.3242(8)
H19 H 1.3915 0.5902 0.3525
C21 C 1.3003(7) 0.6990(7) 0.3386(7)
H20 H 1.2528 0.6848 0.3777
C22 C 1.5583(7) 0.6020(6) 0.2685(9)
H21 H 1.6083 0.6295 0.2344
H22 H 1.5877 0.5890 0.3173
C23 C 1.8868(4) 0.3032(3) -0.1481(3)
H23 H 1.9389 0.2575 -0.1422
C24 C 1.8859(5) 0.3693(4) -0.2031(3)
H24 H 1.9362 0.3777 -0.2417
C25 C 1.7472(4) 0.3861(3) -0.1303(3)
H25 H 1.6839 0.4097 -0.1103
C26 C 2.2691(5) 0.6799(4) -0.1259(4)
H26 H 2.3353 0.6526 -0.1130
C27 C 2.2242(6) 0.6751(4) -0.1879(4)
H27 H 2.2507 0.6442 -0.2249
C28 C 2.1220(6) 0.7573(4) -0.1216(4)
H28 H 2.0649 0.7932 -0.1068
C29 C 1.7621(5) 0.5026(5) -0.2357(4)
H29 H 1.6938 0.5247 -0.2162
H30 H 1.7545 0.4954 -0.2866
C30 C 1.8376(4) 0.5638(3) -0.2351(3)
C31 C 1.8325(7) 0.6132(5) -0.1785(4)
H31 H 1.7819 0.6075 -0.1398
C32 C 1.9013(8) 0.6691(5) -0.1803(4)
H32 H 1.8969 0.7010 -0.1425
C33 C 1.9771(6) 0.6796(3) -0.2369(3)
C34 C 1.9829(4) 0.6310(3) -0.2905(3)
H33 H 2.0347 0.6359 -0.3285
C35 C 1.9138(4) 0.5746(3) -0.2898(3)
H34 H 1.9193 0.5429 -0.3278
C36 C 2.0504(8) 0.7443(5) -0.2420(5)
H35 H 2.0858 0.7498 -0.2909
H36 H 2.0090 0.7974 -0.2374
C37 C 1.3322(5) 0.3129(4) 0.3914(3)
H37 H 1.3693 0.3524 0.4042
C38 C 1.2430(5) 0.2903(4) 0.4253(3)
H38 H 1.2082 0.3103 0.4663
C39 C 1.2851(4) 0.2207(3) 0.3344(3)
H39 H 1.2832 0.1842 0.3010
C40 C 1.3309(6) -0.2249(5) 0.6363(4)
H40 H 1.3509 -0.2679 0.6090
C41 C 1.2447(7) -0.1682(5) 0.6270(5)
H41 H 1.1957 -0.1647 0.5912
C42 C 1.3302(6) -0.1449(4) 0.7169(4)
H42 H 1.3485 -0.1205 0.7557
C43 C 1.1198(4) 0.1881(4) 0.4086(3)
H43 H 1.1096 0.1580 0.3690
H44 H 1.0578 0.2284 0.4132
C44 C 1.1323(4) 0.1277(3) 0.4809(4)
C45 C 1.2286(6) 0.1006(5) 0.5136(5)
H45 H 1.2886 0.1199 0.4899
C46 C 1.2379(6) 0.0455(6) 0.5808(5)
H46 H 1.3029 0.0300 0.6019
C47 C 1.1509(5) 0.0143(4) 0.6156(4)
C48 C 1.0562(5) 0.0459(4) 0.5874(4)
H47 H 0.9960 0.0275 0.6117
C49 C 1.0464(5) 0.1046(4) 0.5237(3)
H48 H 0.9797 0.1292 0.5093
C50 C 1.1617(7) -0.0485(5) 0.6871(4)
H49 H 1.1809 -0.0219 0.7267
H50 H 1.0948 -0.0684 0.7017
C51 C 0.8368(5) 0.5569(3) 0.2541(3)
H51 H 0.8430 0.5215 0.2995
C52 C 0.8373(5) 0.5327(3) 0.1864(3)
H52 H 0.8440 0.4784 0.1769
C53 C 0.8197(4) 0.6669(3) 0.1720(3)
H53 H 0.8118 0.7223 0.1495
C54 C 0.8234(5) 0.6072(4) 0.0538(3)
H54 H 0.8252 0.6641 0.0292
H55 H 0.7584 0.5900 0.0422
C55 C 0.9143(4) 0.5524(3) 0.0250(3)
C56 C 1.0148(5) 0.5762(4) 0.0169(3)
H56 H 1.0251 0.6271 0.0285
C57 C 0.6570(7) 0.8438(5) 0.2761(4)
H57 H 0.6902 0.8564 0.2296
C58 C 0.5673(7) 0.8823(6) 0.2983(5)
H58 H 0.5261 0.9262 0.2705
C59 C 0.6248(5) 0.7867(5) 0.3856(4)
H59 H 0.6301 0.7515 0.4312
C60 C 0.4551(6) 0.8752(6) 0.4159(6)
H60 H 0.4326 0.8282 0.4496
H61 H 0.3976 0.8994 0.3841
N1 N 0.9427(4) 0.7832(3) 0.2966(3)
N2 N 1.0932(4) 0.8297(3) 0.2953(4)
N3 N 1.5139(4) 0.3965(3) 0.2473(4)
N4 N 1.5429(4) 0.5242(3) 0.2437(3)
N5 N 1.7987(3) 0.3140(2) -0.1021(2)
N6 N 1.7972(3) 0.4207(3) -0.1908(3)
N7 N 2.2065(4) 0.7301(3) -0.0827(3)
N8 N 2.1297(5) 0.7259(3) -0.1857(3)
N9 N 1.3598(4) 0.2676(3) 0.3341(2)
N10 N 1.2124(3) 0.2323(3) 0.3888(2)
N11 N 1.3845(4) -0.2076(3) 0.6940(3)
N12 N 1.2403(4) -0.1178(3) 0.6770(3)
N13 N 0.8258(3) 0.6418(2) 0.2445(2)
N14 N 0.8261(3) 0.6035(2) 0.1354(2)
N15 N 0.6946(4) 0.7820(3) 0.3321(3)
N16 N 0.5448(4) 0.8460(4) 0.3703(3)
O1 O 0.8441(3) 0.6353(2) 0.42185(19)
O2 O 1.0010(3) 0.5910(2) 0.37611(19)
O3 O 1.8041(4) 0.1187(3) -0.0131(4)
O4 O 1.9610(4) 0.1566(3) -0.0175(3)
O5 O 1.6071(3) 0.2244(3) 0.0006(3)
O6 O 1.5520(4) 0.3587(3) -0.0134(3)
O7 O 1.4590(4) 0.2739(4) 0.1598(2)
O8 O 1.4476(6) 0.1469(5) 0.2071(4)
C61 C 0.9023(5) 0.4749(4) 0.0079(3)
H62 H 0.8361 0.4578 0.0135
C62 C 0.4787(5) 0.9391(5) 0.4607(6)
C63 C 0.4768(5) 1.0213(6) 0.4273(5)
H63 H 0.4606 1.0363 0.3775
C64 C 0.5016(6) 0.9181(5) 0.5338(6)
H64 H 0.5028 0.8634 0.5576
C1A C 1.0658(4) 0.4117(3) 0.5734(3)
C2A C 1.0476(5) 0.4697(4) 0.5003(3)
H1A H 1.0442 0.4365 0.4617
H2A H 1.1077 0.4996 0.4878
O1A O 1.1559(3) 0.3647(2) 0.57815(19)
O2A O 0.9990(3) 0.4090(2) 0.62389(19)
C3A C 2.0985(6) -0.1025(4) 0.0126(4)
C4A C 2.0543(6) -0.0101(4) 0.0052(6)
H3A H 2.0913 0.0199 -0.0365
H4A H 2.0698 0.0099 0.0497
O3A O 2.1959(4) -0.1187(3) 0.0131(4)
O4A O 2.0390(4) -0.1566(3) 0.0175(3)
C51A C 1.1632(5) 0.4431(3) -0.2541(3)
H51A H 1.1570 0.4785 -0.2995
C52A C 1.1627(5) 0.4673(3) -0.1864(3)
H52A H 1.1560 0.5216 -0.1769
C53A C 1.1803(4) 0.3331(3) -0.1720(3)
H53A H 1.1882 0.2777 -0.1495
C54A C 1.1766(5) 0.3928(4) -0.0538(3)
H54A H 1.1748 0.3359 -0.0292
H55A H 1.2416 0.4100 -0.0422
C55A C 1.0857(4) 0.4476(3) -0.0250(3)
C56A C 0.9852(5) 0.4238(4) -0.0169(3)
H56A H 0.9749 0.3729 -0.0285
N13A N 1.1742(3) 0.3582(2) -0.2445(2)
N14A N 1.1739(3) 0.3965(2) -0.1354(2)
C61A C 1.0977(5) 0.5251(4) -0.0079(3)
H62A H 1.1639 0.5422 -0.0135
C57A C 0.3430(7) 1.1562(5) 0.7239(4)
H57A H 0.3098 1.1436 0.7704
C58A C 0.4327(7) 1.1177(6) 0.7017(5)
H58A H 0.4739 1.0738 0.7295
C59A C 0.3752(5) 1.2133(5) 0.6144(4)
H59A H 0.3699 1.2485 0.5688
C60A C 0.5449(6) 1.1248(6) 0.5841(6)
H60A H 0.5674 1.1718 0.5504
H61A H 0.6024 1.1006 0.6159
N15A N 0.3054(4) 1.2180(3) 0.6679(3)
N16A N 0.4552(4) 1.1540(4) 0.6297(3)
C62A C 0.5213(5) 1.0609(5) 0.5393(6)
C63A C 0.5232(5) 0.9787(6) 0.5727(5)
H63A H 0.5394 0.9637 0.6225
C64A C 0.4984(6) 1.0819(5) 0.4662(6)
H64A H 0.4972 1.1366 0.4424
Zn1A Zn 0.16774(4) 1.29143(3) 0.67405(3)
Zn2A Zn -0.75666(4) 1.76305(3) 1.01226(3)
Zn3A Zn -0.48660(5) 1.72487(4) 0.73608(3)
C5A C -0.5346(4) 1.7141(4) 0.9999(3)
C6A C -0.4261(5) 1.7385(5) 0.9840(4)
H5A H -0.4014 1.7507 1.0295
H6A H -0.3793 1.6915 0.9701
C7A C -0.4185(6) 1.8133(5) 0.9230(4)
H7A H -0.4665 1.8603 0.9360
H8A H -0.3479 1.8280 0.9203
C8A C -0.4441(5) 1.7976(6) 0.8464(4)
C9A C 0.0523(6) 1.1531(4) 0.7607(4)
H9A H 0.1049 1.1327 0.7942
C10A C -0.0391(6) 1.1242(4) 0.7619(4)
H10A H -0.0615 1.0806 0.7957
C11A C -0.0329(5) 1.2248(4) 0.6708(4)
H11A H -0.0514 1.2639 0.6291
C12A C -0.5066(6) 1.5565(4) 0.8245(5)
H12A H -0.4914 1.5782 0.8658
C13A C -0.5229(6) 1.4803(5) 0.8277(4)
H13A H -0.5212 1.4384 0.8690
C14A C -0.5321(7) 1.5517(6) 0.7145(5)
H14A H -0.5378 1.5633 0.6632
C15A C -0.2005(6) 1.1614(5) 0.6824(6)
H15A H -0.2170 1.1067 0.7047
H16A H -0.1989 1.1645 0.6288
C16A C -0.2851(5) 1.2245(4) 0.7042(5)
C17A C -0.3544(7) 1.2070(5) 0.7648(6)
H17A H -0.3442 1.1554 0.7952
C18A C -0.4376(7) 1.2644(6) 0.7806(7)
H18A H -0.4798 1.2552 0.8239
C19A C -0.4566(6) 1.3391(4) 0.7275(7)
C20A C -0.3848(8) 1.3569(7) 0.6758(8)
H19A H -0.3915 1.4098 0.6475
C21A C -0.3003(7) 1.3010(7) 0.6614(7)
H20A H -0.2528 1.3152 0.6223
C22A C -0.5583(7) 1.3980(6) 0.7315(9)
H21A H -0.6083 1.3705 0.7656
H22A H -0.5877 1.4110 0.6827
C23A C -0.8868(4) 1.6968(3) 1.1481(3)
H23A H -0.9389 1.7425 1.1422
C24A C -0.8859(5) 1.6307(4) 1.2031(3)
H24A H -0.9362 1.6223 1.2417
C25A C -0.7472(4) 1.6139(3) 1.1303(3)
H25A H -0.6839 1.5903 1.1103
C26A C -1.2691(5) 1.3201(4) 1.1259(4)
H26A H -1.3353 1.3474 1.1130
C27A C -1.2242(6) 1.3249(4) 1.1879(4)
H27A H -1.2507 1.3558 1.2249
C28A C -1.1220(6) 1.2427(4) 1.1216(4)
H28A H -1.0649 1.2068 1.1068
C29A C -0.7621(5) 1.4974(5) 1.2357(4)
H29A H -0.6938 1.4753 1.2162
H30A H -0.7545 1.5046 1.2866
C30A C -0.8376(4) 1.4362(3) 1.2351(3)
C31A C -0.8325(7) 1.3868(5) 1.1785(4)
H31A H -0.7819 1.3925 1.1398
C32A C -0.9013(8) 1.3309(5) 1.1803(4)
H32A H -0.8969 1.2990 1.1425
C33A C -0.9771(6) 1.3204(3) 1.2369(3)
C34A C -0.9829(4) 1.3690(3) 1.2905(3)
H33A H -1.0347 1.3641 1.3285
C35A C -0.9138(4) 1.4254(3) 1.2898(3)
H34A H -0.9193 1.4571 1.3278
C36A C -1.0504(8) 1.2557(5) 1.2420(5)
H35A H -1.0858 1.2502 1.2909
H36A H -1.0090 1.2026 1.2374
C37A C -0.3322(5) 1.6871(4) 0.6086(3)
H37A H -0.3693 1.6476 0.5958
C38A C -0.2430(5) 1.7097(4) 0.5747(3)
H38A H -0.2082 1.6897 0.5337
C39A C -0.2851(4) 1.7793(3) 0.6656(3)
H39A H -0.2832 1.8158 0.6990
C40A C -0.3309(6) 2.2249(5) 0.3637(4)
H40A H -0.3509 2.2679 0.3910
C41A C -0.2447(7) 2.1682(5) 0.3730(5)
H41A H -0.1957 2.1647 0.4088
C42A C -0.3302(6) 2.1449(4) 0.2831(4)
H42A H -0.3485 2.1205 0.2443
C43A C -0.1198(4) 1.8119(4) 0.5914(3)
H43A H -0.1096 1.8420 0.6310
H44A H -0.0578 1.7716 0.5868
C44A C -0.1323(4) 1.8723(3) 0.5191(4)
C45A C -0.2286(6) 1.8994(5) 0.4864(5)
H45A H -0.2886 1.8801 0.5101
C46A C -0.2379(6) 1.9545(6) 0.4192(5)
H46A H -0.3029 1.9700 0.3981
C47A C -0.1509(5) 1.9857(4) 0.3844(4)
C48A C -0.0562(5) 1.9541(4) 0.4126(4)
H47A H 0.0040 1.9725 0.3883
C49A C -0.0464(5) 1.8954(4) 0.4763(3)
H48A H 0.0203 1.8708 0.4907
C50A C -0.1617(7) 2.0485(5) 0.3129(4)
H49A H -0.1809 2.0219 0.2733
H50A H -0.0948 2.0684 0.2983
N1A N 0.0573(4) 1.2168(3) 0.7034(3)
N2A N -0.0932(4) 1.1703(3) 0.7047(4)
N3A N -0.5139(4) 1.6035(3) 0.7527(4)
N4A N -0.5429(4) 1.4758(3) 0.7563(3)
N5A N -0.7987(3) 1.6860(2) 1.1021(2)
N6A N -0.7972(3) 1.5793(3) 1.1908(3)
N7A N -1.2065(4) 1.2699(3) 1.0827(3)
N8A N -1.1297(5) 1.2741(3) 1.1857(3)
N9A N -0.3598(4) 1.7324(3) 0.6659(2)
N10A N -0.2124(3) 1.7677(3) 0.6112(2)
N11A N -0.3845(4) 2.2076(3) 0.3060(3)
N12A N -0.2403(4) 2.1178(3) 0.3230(3)
O5A O -0.6071(3) 1.7756(3) 0.9994(3)
O6A O -0.5520(4) 1.6413(3) 1.0134(3)
O7A O -0.4590(4) 1.7261(4) 0.8402(2)
O8A O -0.4476(6) 1.8531(5) 0.7929(4)
Zn1A_2 Zn 1.16774(4) 0.29143(3) -0.32595(3)
Zn1A_3 Zn 1.16774(4) 0.29143(3) 0.67405(3)
Zn2_2 Zn -1.24334(4) 1.23695(3) 0.98774(3)
Zn2A_2 Zn 2.24334(4) -0.23695(3) 0.01226(3)
Zn2A_3 Zn 2.24334(4) 0.76305(3) 0.01226(3)
Zn3_2 Zn -0.51340(5) 2.27513(4) 0.26392(3)
Zn3A_2 Zn 1.51340(5) -0.27513(4) 0.73608(3)
N7_2 N -0.7935(4) 1.7301(3) 0.9173(3)
N7A_2 N 1.7935(4) 0.2699(3) 0.0827(3)
N11_2 N -0.6155(4) 1.7924(3) 0.6940(3)
N11A_2 N 1.6155(4) 0.2076(3) 0.3060(3)
N13A_2 N 0.1742(3) 1.3582(2) 0.7555(2)
O1A_2 O 0.1559(3) 1.3647(2) 0.57815(19)
O3A_2 O -0.8041(4) 1.8813(3) 1.0131(4)
N17 N 1.1252(8) 0.0753(5) 0.2078(6)
O9 O 1.1264(9) 0.0607(6) 0.2755(5)
O10 O 1.0408(9) 0.0809(7) 0.1778(7)
O11 O 1.2015(10) 0.0841(17) 0.1706(7)
N18 N 1.1950(7) -0.3498(7) 0.5463(5)
O12 O 1.1205(10) -0.2987(8) 0.5269(6)
O13 O 1.2773(8) -0.3480(13) 0.5110(7)
O14 O 1.1881(13) -0.4029(8) 0.6007(8)
O15 O 2.1486(6) 0.1856(5) 0.0243(5)
O16 O 0.6595(6) 0.5582(6) 0.4607(6)
O17 O 1.6224(8) 0.5165(6) -0.0108(7)
O18 O 2.2630(11) 0.1431(7) -0.0970(5)
O19 O 0.4788(8) 0.6319(11) 0.5265(7)
O20 O 1.7188(13) 0.0339(9) 0.1405(6)
O21 O 1.655(2) 0.0319(13) -0.0605(11)
loop_
_geom_bond_atom_site_label_1
_geom_bond_atom_site_label_2
_geom_bond_site_symmetry_1
_geom_bond_site_symmetry_2
Zn1 N1 1_555 1_555
Zn2 N5 1_555 1_555
Zn3 N3 1_555 1_555
C1 C2 1_555 1_555
C2 H1 1_555 1_555
H2 C2 1_555 1_555
C3 C4 1_555 1_555
C4 H3 1_555 1_555
H4 C4 1_555 1_555
C5 C6 1_555 1_555
C6 H5 1_555 1_555
H6 C6 1_555 1_555
C7 C6 1_555 1_555
H7 C7 1_555 1_555
H8 C7 1_555 1_555
C8 C7 1_555 1_555
C9 H9 1_555 1_555
C10 C9 1_555 1_555
H10 C10 1_555 1_555
C11 H11 1_555 1_555
C12 H12 1_555 1_555
C13 C12 1_555 1_555
H13 C13 1_555 1_555
C14 H14 1_555 1_555
C15 H15 1_555 1_555
H16 C15 1_555 1_555
C16 C15 1_555 1_555
C17 C16 1_555 1_555
H17 C17 1_555 1_555
C18 C17 1_555 1_555
H18 C18 1_555 1_555
C19 C18 1_555 1_555
C20 C19 1_555 1_555
H19 C20 1_555 1_555
C21 C16 1_555 1_555
H20 C21 1_555 1_555
C22 C19 1_555 1_555
H21 C22 1_555 1_555
H22 C22 1_555 1_555
C23 H23 1_555 1_555
C24 C23 1_555 1_555
H24 C24 1_555 1_555
C25 H25 1_555 1_555
C26 H26 1_555 1_555
C27 C26 1_555 1_555
H27 C27 1_555 1_555
C28 H28 1_555 1_555
C29 H29 1_555 1_555
H30 C29 1_555 1_555
C30 C29 1_555 1_555
C31 C30 1_555 1_555
H31 C31 1_555 1_555
C32 C31 1_555 1_555
H32 C32 1_555 1_555
C33 C32 1_555 1_555
C34 C33 1_555 1_555
H33 C34 1_555 1_555
C35 C30 1_555 1_555
H34 C35 1_555 1_555
C36 C33 1_555 1_555
H35 C36 1_555 1_555
H36 C36 1_555 1_555
C37 H37 1_555 1_555
C38 C37 1_555 1_555
H38 C38 1_555 1_555
C39 H39 1_555 1_555
C40 H40 1_555 1_555
C41 C40 1_555 1_555
H41 C41 1_555 1_555
C42 H42 1_555 1_555
C43 H43 1_555 1_555
H44 C43 1_555 1_555
C44 C43 1_555 1_555
C45 C44 1_555 1_555
H45 C45 1_555 1_555
C46 C45 1_555 1_555
H46 C46 1_555 1_555
C47 C46 1_555 1_555
C48 C47 1_555 1_555
H47 C48 1_555 1_555
C49 C44 1_555 1_555
H48 C49 1_555 1_555
C50 C47 1_555 1_555
H49 C50 1_555 1_555
H50 C50 1_555 1_555
C51 H51 1_555 1_555
C52 C51 1_555 1_555
H52 C52 1_555 1_555
C53 H53 1_555 1_555
C54 H54 1_555 1_555
H55 C54 1_555 1_555
C55 C54 1_555 1_555
C56 C55 1_555 1_555
H56 C56 1_555 1_555
C57 H57 1_555 1_555
C58 C57 1_555 1_555
H58 C58 1_555 1_555
C59 H59 1_555 1_555
C60 H60 1_555 1_555
H61 C60 1_555 1_555
N1 C9 1_555 1_555
N2 C10 1_555 1_555
N3 C12 1_555 1_555
N4 C13 1_555 1_555
N5 C23 1_555 1_555
N6 C24 1_555 1_555
N7 C26 1_555 1_555
N8 C27 1_555 1_555
N9 Zn3 1_555 1_555
N10 C38 1_555 1_555
N11 C40 1_555 1_555
N12 C41 1_555 1_555
N13 Zn1 1_555 1_555
N14 C52 1_555 1_555
N15 Zn1 1_555 1_555
N16 C58 1_555 1_555
O1 Zn1 1_555 1_555
O2 C1 1_555 1_555
O3 Zn2 1_555 1_555
O4 C3 1_555 1_555
O5 Zn2 1_555 1_555
O6 C5 1_555 1_555
O7 Zn3 1_555 1_555
O8 C8 1_555 1_555
C61 C55 1_555 1_555
H62 C61 1_555 1_555
C62 C60 1_555 1_555
C63 C62 1_555 1_555
H63 C63 1_555 1_555
C64 C62 1_555 1_555
H64 C64 1_555 1_555
N17 O9 1_555 1_555
O10 N17 1_555 1_555
O11 N17 1_555 1_555
N18 O12 1_555 1_555
O13 N18 1_555 1_555
O14 N18 1_555 1_555
C1A C2A 1_555 1_555
C2A C2 1_555 1_555
H1A C2A 1_555 1_555
H2A C2A 1_555 1_555
O1A C1A 1_555 1_555
O2A C1A 1_555 1_555
C3A C4A 1_555 1_555
C4A C4 1_555 1_555
H3A C4A 1_555 1_555
H4A C4A 1_555 1_555
O3A C3A 1_555 1_555
O4A C3A 1_555 1_555
C51A H51A 1_555 1_555
C52A C51A 1_555 1_555
H52A C52A 1_555 1_555
C53A H53A 1_555 1_555
C54A H54A 1_555 1_555
H55A C54A 1_555 1_555
C55A C54A 1_555 1_555
C56A C61 1_555 1_555
H56A C56A 1_555 1_555
N13A C51A 1_555 1_555
N14A C52A 1_555 1_555
C61A C56 1_555 1_555
H62A C61A 1_555 1_555
C57A H57A 1_555 1_555
C58A C57A 1_555 1_555
H58A C58A 1_555 1_555
C59A H59A 1_555 1_555
C60A H60A 1_555 1_555
H61A C60A 1_555 1_555
N15A C57A 1_555 1_555
N16A C58A 1_555 1_555
C62A C60A 1_555 1_555
C63A C64 1_555 1_555
H63A C63A 1_555 1_555
C64A C63 1_555 1_555
H64A C64A 1_555 1_555
Zn1A N15A 1_555 1_555
Zn2A N5A 1_555 1_555
Zn3A N3A 1_555 1_555
C5A C6A 1_555 1_555
C6A H5A 1_555 1_555
H6A C6A 1_555 1_555
C7A C6A 1_555 1_555
H7A C7A 1_555 1_555
H8A C7A 1_555 1_555
C8A C7A 1_555 1_555
C9A H9A 1_555 1_555
C10A C9A 1_555 1_555
H10A C10A 1_555 1_555
C11A H11A 1_555 1_555
C12A H12A 1_555 1_555
C13A C12A 1_555 1_555
H13A C13A 1_555 1_555
C14A H14A 1_555 1_555
C15A H15A 1_555 1_555
H16A C15A 1_555 1_555
C16A C15A 1_555 1_555
C17A C16A 1_555 1_555
H17A C17A 1_555 1_555
C18A C17A 1_555 1_555
H18A C18A 1_555 1_555
C19A C18A 1_555 1_555
C20A C19A 1_555 1_555
H19A C20A 1_555 1_555
C21A C16A 1_555 1_555
H20A C21A 1_555 1_555
C22A C19A 1_555 1_555
H21A C22A 1_555 1_555
H22A C22A 1_555 1_555
C23A H23A 1_555 1_555
C24A C23A 1_555 1_555
H24A C24A 1_555 1_555
C25A H25A 1_555 1_555
C26A H26A 1_555 1_555
C27A C26A 1_555 1_555
H27A C27A 1_555 1_555
C28A H28A 1_555 1_555
C29A H29A 1_555 1_555
H30A C29A 1_555 1_555
C30A C29A 1_555 1_555
C31A C30A 1_555 1_555
H31A C31A 1_555 1_555
C32A C31A 1_555 1_555
H32A C32A 1_555 1_555
C33A C32A 1_555 1_555
C34A C33A 1_555 1_555
H33A C34A 1_555 1_555
C35A C30A 1_555 1_555
H34A C35A 1_555 1_555
C36A C33A 1_555 1_555
H35A C36A 1_555 1_555
H36A C36A 1_555 1_555
C37A H37A 1_555 1_555
C38A C37A 1_555 1_555
H38A C38A 1_555 1_555
C39A H39A 1_555 1_555
C40A H40A 1_555 1_555
C41A C40A 1_555 1_555
H41A C41A 1_555 1_555
C42A H42A 1_555 1_555
C43A H43A 1_555 1_555
H44A C43A 1_555 1_555
C44A C43A 1_555 1_555
C45A C44A 1_555 1_555
H45A C45A 1_555 1_555
C46A C45A 1_555 1_555
H46A C46A 1_555 1_555
C47A C46A 1_555 1_555
C48A C47A 1_555 1_555
H47A C48A 1_555 1_555
C49A C44A 1_555 1_555
H48A C49A 1_555 1_555
C50A C47A 1_555 1_555
H49A C50A 1_555 1_555
H50A C50A 1_555 1_555
N1A Zn1A 1_555 1_555
N2A C10A 1_555 1_555
N3A C12A 1_555 1_555
N4A C13A 1_555 1_555
N5A C23A 1_555 1_555
N6A C24A 1_555 1_555
N7A C26A 1_555 1_555
N8A C27A 1_555 1_555
N9A Zn3A 1_555 1_555
N10A C38A 1_555 1_555
N11A C40A 1_555 1_555
N12A C41A 1_555 1_555
O5A Zn2A 1_555 1_555
O6A C5A 1_555 1_555
O7A Zn3A 1_555 1_555
O8A C8A 1_555 1_555
Zn1A_2 N13A 1_555 1_555
Zn1A_3 O1A 1_555 1_555
Zn2_2 N7A 1_555 1_555
Zn2A_2 O3A 1_555 1_555
Zn2A_3 N7 1_555 1_555
Zn3_2 N11A 1_555 1_555
Zn3A_2 N11 1_555 1_555
N7_2 Zn2A 1_555 1_555
N7A_2 Zn2 1_555 1_555
N11_2 Zn3A 1_555 1_555
N11A_2 Zn3 1_555 1_555
N13A_2 Zn1A 1_555 1_555
O1A_2 Zn1A 1_555 1_555
O3A_2 Zn2A 1_555 1_555
C1 O1 1_555 1_555
C3 O3 1_555 1_555
C5 O5 1_555 1_555
C8 O7 1_555 1_555
C11 N1 1_555 1_555
C11 N2 1_555 1_555
C14 N3 1_555 1_555
C14 N4 1_555 1_555
C15 N2 1_555 1_555
C20 C21 1_555 1_555
C22 N4 1_555 1_555
C25 N5 1_555 1_555
C25 N6 1_555 1_555
C28 N7 1_555 1_555
C28 N8 1_555 1_555
C29 N6 1_555 1_555
C34 C35 1_555 1_555
C36 N8 1_555 1_555
C37 N9 1_555 1_555
C39 N9 1_555 1_555
C39 N10 1_555 1_555
C42 N11 1_555 1_555
C42 N12 1_555 1_555
C43 N10 1_555 1_555
C48 C49 1_555 1_555
C50 N12 1_555 1_555
C51 N13 1_555 1_555
C53 N13 1_555 1_555
C53 N14 1_555 1_555
C54 N14 1_555 1_555
C57 N15 1_555 1_555
C59 N15 1_555 1_555
C59 N16 1_555 1_555
C60 N16 1_555 1_555
C53A N13A 1_555 1_555
C53A N14A 1_555 1_555
C54A N14A 1_555 1_555
C55A C56A 1_555 1_555
C55A C61A 1_555 1_555
C59A N15A 1_555 1_555
C59A N16A 1_555 1_555
C60A N16A 1_555 1_555
C62A C63A 1_555 1_555
C62A C64A 1_555 1_555
C5A O5A 1_555 1_555
C8A O7A 1_555 1_555
C9A N1A 1_555 1_555
C11A N1A 1_555 1_555
C11A N2A 1_555 1_555
C14A N3A 1_555 1_555
C14A N4A 1_555 1_555
C15A N2A 1_555 1_555
C20A C21A 1_555 1_555
C22A N4A 1_555 1_555
C25A N5A 1_555 1_555
C25A N6A 1_555 1_555
C28A N7A 1_555 1_555
C28A N8A 1_555 1_555
C29A N6A 1_555 1_555
C34A C35A 1_555 1_555
C36A N8A 1_555 1_555
C37A N9A 1_555 1_555
C39A N9A 1_555 1_555
C39A N10A 1_555 1_555
C42A N11A 1_555 1_555
C42A N12A 1_555 1_555
C43A N10A 1_555 1_555
C48A C49A 1_555 1_555
C50A N12A 1_555 1_555

#END
