
#######################################################################
#
#                 Cambridge Crystallographic Data Centre
#                                CCDC 
#
#######################################################################
#
# If this CIF has been generated from an entry in the Cambridge 
# Structural Database, then it will include bibliographic, chemical, 
# crystal, experimental, refinement or atomic coordinate data resulting 
# from the CCDC's data processing and validation procedures.
#
#######################################################################

data_DUPJAB
_symmetry_cell_setting           orthorhombic
_symmetry_space_group_name_H-M   'C c c m'
_symmetry_Int_Tables_number      66
_space_group_name_Hall           '-C 2 2n'
loop_
_symmetry_equiv_pos_site_id
_symmetry_equiv_pos_as_xyz
1 x,y,z
2 -x,-y,z
3 x,-y,1/2-z
4 -x,y,1/2-z
5 1/2+x,1/2+y,z
6 1/2-x,1/2-y,z
7 1/2+x,1/2-y,1/2-z
8 1/2-x,1/2+y,1/2-z
9 -x,-y,-z
10 x,y,-z
11 -x,y,1/2+z
12 x,-y,1/2+z
13 1/2-x,1/2-y,-z
14 1/2+x,1/2+y,-z
15 1/2-x,1/2+y,1/2+z
16 1/2+x,1/2-y,1/2+z
_cell_length_a                   20.7471(5)
_cell_length_b                   26.2764(6)
_cell_length_c                   36.8943(5)
_cell_angle_alpha                90
_cell_angle_beta                 90
_cell_angle_gamma                90
_cell_volume                     20113.3
loop_
_atom_site_label
_atom_site_type_symbol
_atom_site_fract_x
_atom_site_fract_y
_atom_site_fract_z
Cd1 Cd 0.23151(2) 0.0000 0.2500
Cd2 Cd 0.20251(2) -0.06060(2) 0.15126(2)
Cd3 Cd 0.07923(3) 0.16344(2) 0.15047(2)
Cd4 Cd 0.0000 0.19109(4) 0.2500
O1 O 0.0983(2) 0.19111(17) 0.21922(12)
O2 O 0.2680(2) 0.42155(19) 0.27900(13)
N1 N 0.1269(3) 0.0931(2) 0.16985(15)
O3 O 0.2265(3) 0.3821(2) 0.32668(14)
N2 N -0.1179(3) 0.1122(2) 0.16836(16)
N3 N 0.1621(3) 0.0124(2) 0.17207(14)
O4 O 0.3327(2) 0.0120(2) 0.22122(15)
C1 C 0.1336(3) 0.0475(3) 0.15237(16)
H1 H 0.1193 0.0419 0.1288
O5 O 0.1467(3) -0.0390(2) 0.09523(13)
N4 N 0.1753(2) 0.0357(2) 0.20465(13)
C2 C 0.1534(4) 0.2697(3) 0.22714(19)
N5 N -0.0209(3) 0.1476(3) 0.16843(17)
O6 O 0.3027(3) -0.0094(3) 0.14774(19)
H2 H 0.2948 0.0257 0.1463
H3 H 0.3284 -0.0171 0.1275
C3 C 0.3587(5) 0.0000 0.2500
C4 C 0.4331(4) 0.0000 0.2500
C5 C 0.4666(3) -0.0002(4) 0.2175(2)
H4 H 0.4442 -0.0006 0.1957
C6 C 0.1535(3) 0.0826(3) 0.20192(16)
H5 H 0.1564 0.1063 0.2206
O7 O 0.0525(3) 0.1179(2) 0.09460(13)
O8 O 0.1309(4) 0.2317(3) 0.17069(16)
C7 C -0.0636(4) 0.1204(3) 0.1506(2)
H6 H -0.0561 0.1080 0.1274
O9 O 0.2289(3) -0.0901(3) 0.09450(15)
C8 C 0.1868(4) -0.0654(3) 0.07849(19)
O10 O 0.0970(6) 0.1889(4) 0.0948(2)
C9 C 0.1835(4) -0.0680(3) 0.0380(2)
C10 C 0.1260(4) 0.2287(3) 0.2047(2)
N6 N -0.0499(3) 0.1587(3) 0.20103(18)
C11 C 0.1997(4) 0.3526(3) 0.2327(2)
H7 H 0.2141 0.3825 0.2219
C12 C 0.1840(4) 0.3029(3) 0.2850(2)
H8 H 0.1863 0.2991 0.3101
C13 C 0.1731(5) 0.3146(3) 0.2115(2)
H9 H 0.1686 0.3194 0.1866
C14 C 0.1592(4) 0.2640(3) 0.2639(2)
H10 H 0.1463 0.2337 0.2748
C15 C 0.2049(3) 0.3466(3) 0.26933(17)
C16 C 0.0475(4) 0.1121(3) 0.01893(19)
H11 H 0.0283 0.0853 0.0314
C17 C 0.1343(4) -0.0417(4) 0.0189(2)
H12 H 0.1022 -0.0246 0.0315
C18 C 0.2276(5) -0.0962(4) 0.0191(2)
H13 H 0.2579 -0.1155 0.0316
C19 C 0.0755(6) 0.1511(5) 0.0378(3)
C20 C 0.2339(3) 0.3865(3) 0.29311(19)
C21 C -0.1066(4) 0.1372(3) 0.1997(2)
H14 H -0.1364 0.1390 0.2186
C22 C 0.0775(5) 0.1512(5) 0.0786(2)
C23 C 0.1063(9) 0.1882(7) 0.0199(5)
H15 H 0.1276 0.2138 0.0325
O11 O 0.0000 0.2762(7) 0.2500
O4A O 0.6673(2) -0.0120(2) 0.22122(15)
C3A C 0.6413(5) 0.0000 0.2500
C4A C 0.5669(4) 0.0000 0.2500
C5A C 0.5334(3) 0.0002(4) 0.2175(2)
H4A H 0.5558 0.0006 0.1957
O4B O 0.3327(2) -0.0120(2) 0.27878(15)
C5B C 0.4666(3) 0.0002(4) 0.2825(2)
H4B H 0.4442 0.0006 0.3043
O4C O 0.6673(2) 0.0120(2) 0.27878(15)
C5C C 0.5334(3) -0.0002(4) 0.2825(2)
H4C H 0.5558 -0.0006 0.3043
O5I O 0.1467(3) -0.0390(2) -0.09523(13)
O9I O 0.2289(3) -0.0901(3) -0.09450(15)
C8I C 0.1868(4) -0.0654(3) -0.07849(19)
C9I C 0.1835(4) -0.0680(3) -0.0380(2)
C17I C 0.1343(4) -0.0417(4) -0.0189(2)
H12I H 0.1022 -0.0246 -0.0315
C18I C 0.2276(5) -0.0962(4) -0.0191(2)
H13I H 0.2579 -0.1155 -0.0316
O7I O 0.0525(3) 0.1179(2) -0.09460(13)
O10I O 0.0970(6) 0.1889(4) -0.0948(2)
C16I C 0.0475(4) 0.1121(3) -0.01893(19)
H11I H 0.0283 0.0853 -0.0314
C19I C 0.0755(6) 0.1511(5) -0.0378(3)
C22I C 0.0775(5) 0.1512(5) -0.0786(2)
C23I C 0.1063(9) 0.1882(7) -0.0199(5)
H15I H 0.1276 0.2138 -0.0325
Cd1A Cd -0.23151(2) 0.0000 0.2500
Cd2A Cd -0.20251(2) 0.06060(2) 0.15126(2)
Cd3A Cd -0.07923(3) -0.16344(2) 0.15047(2)
Cd4A Cd 0.0000 -0.19109(4) 0.2500
O1A O -0.0983(2) -0.19111(17) 0.21922(12)
O2A O -0.2680(2) -0.42155(19) 0.27900(13)
N1A N -0.1269(3) -0.0931(2) 0.16985(15)
O3A O -0.2265(3) -0.3821(2) 0.32668(14)
N2A N 0.1179(3) -0.1122(2) 0.16836(16)
N3A N -0.1621(3) -0.0124(2) 0.17207(14)
C1A C -0.1336(3) -0.0475(3) 0.15237(16)
H1A H -0.1193 -0.0419 0.1288
O5A O -0.1467(3) 0.0390(2) 0.09523(13)
N4A N -0.1753(2) -0.0357(2) 0.20465(13)
C2A C -0.1534(4) -0.2697(3) 0.22714(19)
N5A N 0.0209(3) -0.1476(3) 0.16843(17)
O6A O -0.3027(3) 0.0094(3) 0.14774(19)
H2A H -0.2948 -0.0257 0.1463
H3A H -0.3284 0.0171 0.1275
C6A C -0.1535(3) -0.0826(3) 0.20192(16)
H5A H -0.1564 -0.1063 0.2206
O7A O -0.0525(3) -0.1179(2) 0.09460(13)
O8A O -0.1309(4) -0.2317(3) 0.17069(16)
C7A C 0.0636(4) -0.1204(3) 0.1506(2)
H6A H 0.0561 -0.1080 0.1274
O9A O -0.2289(3) 0.0901(3) 0.09450(15)
C8A C -0.1868(4) 0.0654(3) 0.07849(19)
O10A O -0.0970(6) -0.1889(4) 0.0948(2)
C9A C -0.1835(4) 0.0680(3) 0.0380(2)
C10A C -0.1260(4) -0.2287(3) 0.2047(2)
N6A N 0.0499(3) -0.1587(3) 0.20103(18)
C11A C -0.1997(4) -0.3526(3) 0.2327(2)
H7A H -0.2141 -0.3825 0.2219
C12A C -0.1840(4) -0.3029(3) 0.2850(2)
H8A H -0.1863 -0.2991 0.3101
C13A C -0.1731(5) -0.3146(3) 0.2115(2)
H9A H -0.1686 -0.3194 0.1866
C14A C -0.1592(4) -0.2640(3) 0.2639(2)
H10A H -0.1463 -0.2337 0.2748
C15A C -0.2049(3) -0.3466(3) 0.26933(17)
C16A C -0.0475(4) -0.1121(3) 0.01893(19)
H11A H -0.0283 -0.0853 0.0314
C17A C -0.1343(4) 0.0417(4) 0.0189(2)
H12A H -0.1022 0.0246 0.0315
C18A C -0.2276(5) 0.0962(4) 0.0191(2)
H13A H -0.2579 0.1155 0.0316
C19A C -0.0755(6) -0.1511(5) 0.0378(3)
C20A C -0.2339(3) -0.3865(3) 0.29311(19)
C21A C 0.1066(4) -0.1372(3) 0.1997(2)
H14A H 0.1364 -0.1390 0.2186
C22A C -0.0775(5) -0.1512(5) 0.0786(2)
C23A C -0.1063(9) -0.1882(7) 0.0199(5)
H15A H -0.1276 -0.2138 0.0325
O11A O 0.0000 -0.2762(7) 0.2500
O5H O -0.1467(3) 0.0390(2) -0.09523(13)
O9H O -0.2289(3) 0.0901(3) -0.09450(15)
C8H C -0.1868(4) 0.0654(3) -0.07849(19)
C9H C -0.1835(4) 0.0680(3) -0.0380(2)
C17H C -0.1343(4) 0.0417(4) -0.0189(2)
H12H H -0.1022 0.0246 -0.0315
C18H C -0.2276(5) 0.0962(4) -0.0191(2)
H13H H -0.2579 0.1155 -0.0316
O7H O -0.0525(3) -0.1179(2) -0.09460(13)
O10H O -0.0970(6) -0.1889(4) -0.0948(2)
C16H C -0.0475(4) -0.1121(3) -0.01893(19)
H11H H -0.0283 -0.0853 -0.0314
C19H C -0.0755(6) -0.1511(5) -0.0378(3)
C22H C -0.0775(5) -0.1512(5) -0.0786(2)
C23H C -0.1063(9) -0.1882(7) -0.0199(5)
H15H H -0.1276 -0.2138 -0.0325
Cd2B Cd 0.20251(2) 0.06060(2) 0.34874(2)
Cd3B Cd 0.07923(3) -0.16344(2) 0.34953(2)
O1B O 0.0983(2) -0.19111(17) 0.28078(12)
O2B O 0.2680(2) -0.42155(19) 0.22100(13)
N1B N 0.1269(3) -0.0931(2) 0.33015(15)
O3B O 0.2265(3) -0.3821(2) 0.17332(14)
N2B N -0.1179(3) -0.1122(2) 0.33164(16)
N3B N 0.1621(3) -0.0124(2) 0.32793(14)
C1B C 0.1336(3) -0.0475(3) 0.34763(16)
H1B H 0.1193 -0.0419 0.3712
N4B N 0.1753(2) -0.0357(2) 0.29535(13)
C2B C 0.1534(4) -0.2697(3) 0.27286(19)
N5B N -0.0209(3) -0.1476(3) 0.33157(17)
O6B O 0.3027(3) 0.0094(3) 0.35226(19)
H2B H 0.2948 -0.0257 0.3537
H3B H 0.3284 0.0171 0.3725
C6B C 0.1535(3) -0.0826(3) 0.29808(16)
H5B H 0.1564 -0.1063 0.2794
O8B O 0.1309(4) -0.2317(3) 0.32931(16)
C7B C -0.0636(4) -0.1204(3) 0.3494(2)
H6B H -0.0561 -0.1080 0.3726
C10B C 0.1260(4) -0.2287(3) 0.2953(2)
N6B N -0.0499(3) -0.1587(3) 0.29897(18)
C11B C 0.1997(4) -0.3526(3) 0.2673(2)
H7B H 0.2141 -0.3825 0.2781
C12B C 0.1840(4) -0.3029(3) 0.2150(2)
H8B H 0.1863 -0.2991 0.1899
C13B C 0.1731(5) -0.3146(3) 0.2885(2)
H9B H 0.1686 -0.3194 0.3134
C14B C 0.1592(4) -0.2640(3) 0.2361(2)
H10B H 0.1463 -0.2337 0.2252
C15B C 0.2049(3) -0.3466(3) 0.23067(17)
C20B C 0.2339(3) -0.3865(3) 0.20689(19)
C21B C -0.1066(4) -0.1372(3) 0.3003(2)
H14B H -0.1364 -0.1390 0.2814
Cd2C Cd -0.20251(2) -0.06060(2) 0.34874(2)
Cd3C Cd -0.07923(3) 0.16344(2) 0.34953(2)
O1C O -0.0983(2) 0.19111(17) 0.28078(12)
O2C O -0.2680(2) 0.42155(19) 0.22100(13)
N1C N -0.1269(3) 0.0931(2) 0.33015(15)
O3C O -0.2265(3) 0.3821(2) 0.17332(14)
N2C N 0.1179(3) 0.1122(2) 0.33164(16)
N3C N -0.1621(3) 0.0124(2) 0.32793(14)
C1C C -0.1336(3) 0.0475(3) 0.34763(16)
H1C H -0.1193 0.0419 0.3712
N4C N -0.1753(2) 0.0357(2) 0.29535(13)
C2C C -0.1534(4) 0.2697(3) 0.27286(19)
N5C N 0.0209(3) 0.1476(3) 0.33157(17)
O6C O -0.3027(3) -0.0094(3) 0.35226(19)
H2C H -0.2948 0.0257 0.3537
H3C H -0.3284 -0.0171 0.3725
C6C C -0.1535(3) 0.0826(3) 0.29808(16)
H5C H -0.1564 0.1063 0.2794
O8C O -0.1309(4) 0.2317(3) 0.32931(16)
C7C C 0.0636(4) 0.1204(3) 0.3494(2)
H6C H 0.0561 0.1080 0.3726
C10C C -0.1260(4) 0.2287(3) 0.2953(2)
N6C N 0.0499(3) 0.1587(3) 0.29897(18)
C11C C -0.1997(4) 0.3526(3) 0.2673(2)
H7C H -0.2141 0.3825 0.2781
C12C C -0.1840(4) 0.3029(3) 0.2150(2)
H8C H -0.1863 0.2991 0.1899
C13C C -0.1731(5) 0.3146(3) 0.2885(2)
H9C H -0.1686 0.3194 0.3134
C14C C -0.1592(4) 0.2640(3) 0.2361(2)
H10C H -0.1463 0.2337 0.2252
C15C C -0.2049(3) 0.3466(3) 0.23067(17)
C20C C -0.2339(3) 0.3865(3) 0.20689(19)
C21C C 0.1066(4) 0.1372(3) 0.3003(2)
H14C H 0.1364 0.1390 0.2814
Cd1A_2 Cd 0.76849(2) 0.0000 0.2500
Cd1D Cd -0.26849(2) -0.5000 0.2500
Cd1D_2 Cd -0.26849(2) 0.5000 0.2500
Cd1E Cd 0.26849(2) -0.5000 0.2500
Cd1E_2 Cd 0.26849(2) 0.5000 0.2500
Cd2D Cd -0.29749(2) 0.43940(2) 0.15126(2)
Cd2E Cd 0.29749(2) -0.43940(2) 0.15126(2)
Cd2F Cd -0.29749(2) -0.43940(2) 0.34874(2)
Cd2G Cd 0.29749(2) 0.43940(2) 0.34874(2)
Cd2H Cd -0.20251(2) 0.06060(2) -0.15126(2)
Cd2I Cd 0.20251(2) -0.06060(2) -0.15126(2)
Cd3H Cd -0.07923(3) -0.16344(2) -0.15047(2)
Cd3I Cd 0.07923(3) 0.16344(2) -0.15047(2)
O2D O -0.2320(2) -0.07845(19) 0.27900(13)
O2E O 0.2320(2) 0.07845(19) 0.27900(13)
O2F O -0.2320(2) 0.07845(19) 0.22100(13)
O2G O 0.2320(2) -0.07845(19) 0.22100(13)
O3D O -0.2735(3) -0.1179(2) 0.32668(14)
O3E O 0.2735(3) 0.1179(2) 0.32668(14)
O3F O -0.2735(3) 0.1179(2) 0.17332(14)
O3G O 0.2735(3) -0.1179(2) 0.17332(14)
O4A_2 O -0.3327(2) -0.0120(2) 0.22122(15)
O4C_2 O -0.3327(2) 0.0120(2) 0.27878(15)
O5B O 0.1467(3) 0.0390(2) 0.40477(13)
O5C O -0.1467(3) -0.0390(2) 0.40477(13)
O7B O 0.0525(3) -0.1179(2) 0.40540(13)
O7C O -0.0525(3) 0.1179(2) 0.40540(13)
O9B O 0.2289(3) 0.0901(3) 0.40550(15)
O9C O -0.2289(3) -0.0901(3) 0.40550(15)
O10B O 0.0970(6) -0.1889(4) 0.4052(2)
O10C O -0.0970(6) 0.1889(4) 0.4052(2)
loop_
_geom_bond_atom_site_label_1
_geom_bond_atom_site_label_2
_geom_bond_site_symmetry_1
_geom_bond_site_symmetry_2
Cd1 O4 1_555 1_555
Cd2 N3 1_555 1_555
Cd3 O1 1_555 1_555
Cd4 O1 1_555 1_555
O1 C10 1_555 1_555
O2 C20 1_555 1_555
N1 Cd3 1_555 1_555
O3 C20 1_555 1_555
N2 C7 1_555 1_555
N3 C1 1_555 1_555
O4 C3 1_555 1_555
C1 N1 1_555 1_555
H1 C1 1_555 1_555
O5 Cd2 1_555 1_555
N4 Cd1 1_555 1_555
C2 C10 1_555 1_555
N5 Cd3 1_555 1_555
O6 Cd2 1_555 1_555
H2 O6 1_555 1_555
H3 O6 1_555 1_555
C3 C4 1_555 1_555
C4 C5 1_555 1_555
C5 H4 1_555 1_555
C6 N1 1_555 1_555
H5 C6 1_555 1_555
O7 Cd3 1_555 1_555
O8 Cd3 1_555 1_555
C7 N5 1_555 1_555
H6 C7 1_555 1_555
O9 Cd2 1_555 1_555
C8 O5 1_555 1_555
O10 Cd3 1_555 1_555
C9 C8 1_555 1_555
C10 O8 1_555 1_555
N6 Cd4 1_555 1_555
C11 H7 1_555 1_555
C12 H8 1_555 1_555
C13 C2 1_555 1_555
H9 C13 1_555 1_555
C14 C2 1_555 1_555
H10 C14 1_555 1_555
C15 C11 1_555 1_555
C16 H11 1_555 1_555
C17 C9 1_555 1_555
H12 C17 1_555 1_555
C18 C9 1_555 1_555
H13 C18 1_555 1_555
C19 C16 1_555 1_555
C20 C15 1_555 1_555
C21 N2 1_555 1_555
H14 C21 1_555 1_555
C22 O7 1_555 1_555
C23 C19 1_555 1_555
H15 C23 1_555 1_555
O11 Cd4 1_555 1_555
O4A C3A 1_555 1_555
C3A C4A 1_555 1_555
C4A C5A 1_555 1_555
C5A C5 1_555 1_555
H4A C5A 1_555 1_555
O4B Cd1 1_555 1_555
C5B C4 1_555 1_555
H4B C5B 1_555 1_555
O4C C3A 1_555 1_555
C5C C4A 1_555 1_555
H4C C5C 1_555 1_555
O5I C8I 1_555 1_555
O9I C8I 1_555 1_555
C8I C9I 1_555 1_555
C9I C17I 1_555 1_555
C17I C17 1_555 1_555
H12I C17I 1_555 1_555
C18I C18 1_555 1_555
H13I C18I 1_555 1_555
O7I C22I 1_555 1_555
O10I C22I 1_555 1_555
C16I C16 1_555 1_555
H11I C16I 1_555 1_555
C19I C16I 1_555 1_555
C22I C19I 1_555 1_555
C23I C23 1_555 1_555
H15I C23I 1_555 1_555
Cd1A N4A 1_555 1_555
Cd2A N2 1_555 1_555
Cd3A O1A 1_555 1_555
Cd4A O1A 1_555 1_555
O1A C10A 1_555 1_555
O2A C20A 1_555 1_555
N1A Cd3A 1_555 1_555
O3A C20A 1_555 1_555
N2A Cd2 1_555 1_555
N3A Cd2A 1_555 1_555
C1A N1A 1_555 1_555
H1A C1A 1_555 1_555
O5A Cd2A 1_555 1_555
N4A N3A 1_555 1_555
C2A C10A 1_555 1_555
N5A Cd3A 1_555 1_555
O6A Cd2A 1_555 1_555
H2A O6A 1_555 1_555
H3A O6A 1_555 1_555
C6A N1A 1_555 1_555
H5A C6A 1_555 1_555
O7A Cd3A 1_555 1_555
O8A Cd3A 1_555 1_555
C7A N2A 1_555 1_555
H6A C7A 1_555 1_555
O9A Cd2A 1_555 1_555
C8A O5A 1_555 1_555
O10A Cd3A 1_555 1_555
C9A C8A 1_555 1_555
C10A O8A 1_555 1_555
N6A Cd4A 1_555 1_555
C11A H7A 1_555 1_555
C12A H8A 1_555 1_555
C13A C2A 1_555 1_555
H9A C13A 1_555 1_555
C14A C2A 1_555 1_555
H10A C14A 1_555 1_555
C15A C11A 1_555 1_555
C16A H11A 1_555 1_555
C17A C9A 1_555 1_555
H12A C17A 1_555 1_555
C18A C9A 1_555 1_555
H13A C18A 1_555 1_555
C19A C16A 1_555 1_555
C20A C15A 1_555 1_555
C21A N2A 1_555 1_555
H14A C21A 1_555 1_555
C22A O7A 1_555 1_555
C23A C19A 1_555 1_555
H15A C23A 1_555 1_555
O11A Cd4A 1_555 1_555
O5H C8H 1_555 1_555
O9H C8H 1_555 1_555
C8H C9H 1_555 1_555
C9H C17H 1_555 1_555
C17H C17A 1_555 1_555
H12H C17H 1_555 1_555
C18H C18A 1_555 1_555
H13H C18H 1_555 1_555
O7H C22H 1_555 1_555
O10H C22H 1_555 1_555
C16H C16A 1_555 1_555
H11H C16H 1_555 1_555
C19H C16H 1_555 1_555
C22H C19H 1_555 1_555
C23H C23A 1_555 1_555
H15H C23H 1_555 1_555
Cd2B N3B 1_555 1_555
Cd3B O1B 1_555 1_555
O1B Cd4A 1_555 1_555
O2B C20B 1_555 1_555
N1B Cd3B 1_555 1_555
O3B C20B 1_555 1_555
N2B C7B 1_555 1_555
N3B C1B 1_555 1_555
C1B N1B 1_555 1_555
H1B C1B 1_555 1_555
N4B Cd1 1_555 1_555
C2B C10B 1_555 1_555
N5B Cd3B 1_555 1_555
O6B Cd2B 1_555 1_555
H2B O6B 1_555 1_555
H3B O6B 1_555 1_555
C6B N1B 1_555 1_555
H5B C6B 1_555 1_555
O8B Cd3B 1_555 1_555
C7B N5B 1_555 1_555
H6B C7B 1_555 1_555
C10B O1B 1_555 1_555
N6B Cd4A 1_555 1_555
C11B H7B 1_555 1_555
C12B H8B 1_555 1_555
C13B C2B 1_555 1_555
H9B C13B 1_555 1_555
C14B C2B 1_555 1_555
H10B C14B 1_555 1_555
C15B C11B 1_555 1_555
C20B C15B 1_555 1_555
C21B N2B 1_555 1_555
H14B C21B 1_555 1_555
Cd2C N2B 1_555 1_555
Cd3C O1C 1_555 1_555
O1C Cd4 1_555 1_555
O2C C20C 1_555 1_555
N1C Cd3C 1_555 1_555
O3C C20C 1_555 1_555
N2C Cd2B 1_555 1_555
N3C Cd2C 1_555 1_555
C1C N1C 1_555 1_555
H1C C1C 1_555 1_555
N4C Cd1A 1_555 1_555
C2C C10C 1_555 1_555
N5C Cd3C 1_555 1_555
O6C Cd2C 1_555 1_555
H2C O6C 1_555 1_555
H3C O6C 1_555 1_555
C6C N1C 1_555 1_555
H5C C6C 1_555 1_555
O8C Cd3C 1_555 1_555
C7C N2C 1_555 1_555
H6C C7C 1_555 1_555
C10C O1C 1_555 1_555
N6C Cd4 1_555 1_555
C11C H7C 1_555 1_555
C12C H8C 1_555 1_555
C13C C2C 1_555 1_555
H9C C13C 1_555 1_555
C14C C2C 1_555 1_555
H10C C14C 1_555 1_555
C15C C11C 1_555 1_555
C20C C15C 1_555 1_555
C21C N2C 1_555 1_555
H14C C21C 1_555 1_555
Cd1A_2 O4A 1_555 1_555
Cd1D O2A 1_555 1_555
Cd1D_2 O2C 1_555 1_555
Cd1E O2B 1_555 1_555
Cd1E_2 O2 1_555 1_555
Cd2D O2C 1_555 1_555
Cd2E O2B 1_555 1_555
Cd2F O2A 1_555 1_555
Cd2G O2 1_555 1_555
Cd2H O5H 1_555 1_555
Cd2I O5I 1_555 1_555
Cd3H O7H 1_555 1_555
Cd3I O7I 1_555 1_555
O2D Cd1A 1_555 1_555
O2E Cd1 1_555 1_555
O2F Cd1A 1_555 1_555
O2G Cd1 1_555 1_555
O3D Cd2C 1_555 1_555
O3E Cd2B 1_555 1_555
O3F Cd2A 1_555 1_555
O3G Cd2 1_555 1_555
O4A_2 Cd1A 1_555 1_555
O4C_2 Cd1A 1_555 1_555
O5B Cd2B 1_555 1_555
O5C Cd2C 1_555 1_555
O7B Cd3B 1_555 1_555
O7C Cd3C 1_555 1_555
O9B Cd2B 1_555 1_555
O9C Cd2C 1_555 1_555
O10B Cd3B 1_555 1_555
O10C Cd3C 1_555 1_555
Cd2 O2G 1_555 1_555
O3 Cd2G 1_555 1_555
N3 N4 1_555 1_555
N4 C6 1_555 1_555
N5 N6 1_555 1_555
C3 O4B 1_555 1_555
O9 C8 1_555 1_555
O10 C22 1_555 1_555
N6 C21 1_555 1_555
C11 C13 1_555 1_555
C12 C14 1_555 1_555
C12 C15 1_555 1_555
C19 C22 1_555 1_555
C5B C5C 1_555 1_555
O4C Cd1A_2 1_555 1_555
O9I Cd2I 1_555 1_555
C9I C18I 1_555 1_555
O10I Cd3I 1_555 1_555
C19I C23I 1_555 1_555
Cd2A O2F 1_555 1_555
O3A Cd2F 1_555 1_555
N3A C1A 1_555 1_555
N4A C6A 1_555 1_555
N5A C7A 1_555 1_555
N5A N6A 1_555 1_555
O9A C8A 1_555 1_555
O10A C22A 1_555 1_555
N6A C21A 1_555 1_555
C11A C13A 1_555 1_555
C12A C14A 1_555 1_555
C12A C15A 1_555 1_555
C19A C22A 1_555 1_555
O9H Cd2H 1_555 1_555
C9H C18H 1_555 1_555
O10H Cd3H 1_555 1_555
C19H C23H 1_555 1_555
Cd2B O2E 1_555 1_555
O3B Cd2E 1_555 1_555
N3B N4B 1_555 1_555
N4B C6B 1_555 1_555
N5B N6B 1_555 1_555
O8B C10B 1_555 1_555
N6B C21B 1_555 1_555
C11B C13B 1_555 1_555
C12B C14B 1_555 1_555
C12B C15B 1_555 1_555
Cd2C O2D 1_555 1_555
O3C Cd2D 1_555 1_555
N3C C1C 1_555 1_555
N3C N4C 1_555 1_555
N4C C6C 1_555 1_555
N5C C7C 1_555 1_555
N5C N6C 1_555 1_555
O8C C10C 1_555 1_555
N6C C21C 1_555 1_555
C11C C13C 1_555 1_555
C12C C14C 1_555 1_555
C12C C15C 1_555 1_555

#END
