
#######################################################################
#
#                 Cambridge Crystallographic Data Centre
#                                CCDC 
#
#######################################################################
#
# If this CIF has been generated from an entry in the Cambridge 
# Structural Database, then it will include bibliographic, chemical, 
# crystal, experimental, refinement or atomic coordinate data resulting 
# from the CCDC's data processing and validation procedures.
#
#######################################################################

data_EBEGID
_symmetry_cell_setting           monoclinic
_symmetry_space_group_name_H-M   'C 2/c'
_symmetry_Int_Tables_number      15
_space_group_name_Hall           '-C 2yn'
loop_
_symmetry_equiv_pos_site_id
_symmetry_equiv_pos_as_xyz
1 x,y,z
2 -x,y,1/2-z
3 1/2+x,1/2+y,z
4 1/2-x,1/2+y,1/2-z
5 -x,-y,-z
6 x,-y,1/2+z
7 1/2-x,1/2-y,-z
8 1/2+x,1/2-y,1/2+z
_cell_length_a                   31.119(4)
_cell_length_b                   11.2984(11)
_cell_length_c                   7.4916(10)
_cell_angle_alpha                90
_cell_angle_beta                 92.839(11)
_cell_angle_gamma                90
_cell_volume                     2630.78
loop_
_atom_site_label
_atom_site_type_symbol
_atom_site_fract_x
_atom_site_fract_y
_atom_site_fract_z
Mo1 Mo -0.20683(3) 0.48500(8) 0.32829(11)
Mo2 Mo -0.08949(3) 0.47766(9) 0.26989(12)
Mo3 Mo 0.0000 0.66933(13) 0.2500
Mn1 Mn -0.2500 0.7500 0.5000
O1 O -0.2471(2) 0.5932(6) 0.3410(10)
O2 O -0.2330(2) 0.3646(7) 0.2265(10)
O3 O -0.1997(2) 0.5554(7) 0.0537(9)
O4 O -0.1461(2) 0.4360(7) 0.2761(10)
O5 O -0.0661(3) 0.3453(7) 0.2445(11)
O6 O -0.0895(2) 0.5412(7) 0.0526(10)
O7 O -0.0386(2) 0.5759(7) 0.3549(10)
O8 O 0.0253(3) 0.7585(8) 0.4088(12)
N1 N -0.1018(3) 1.1351(9) 0.5028(13)
N2 N -0.1784(3) 0.7616(8) 0.4330(12)
N3 N -0.1642(3) 0.6535(8) 0.3877(11)
N4 N -0.1228(3) 0.6578(8) 0.3636(11)
N5 N -0.1086(3) 0.7669(8) 0.3874(13)
H1 H -0.0829 0.7927 0.3765
C1 C -0.1425(4) 0.9585(10) 0.4564(15)
C2 C -0.1034(4) 1.0136(11) 0.4873(16)
H2 H -0.0782 0.9692 0.4976
C3 C -0.1378(4) 1.2014(11) 0.4904(15)
H3 H -0.1361 1.2832 0.5033
C4 C -0.1772(4) 1.1476(12) 0.4585(17)
H4 H -0.2022 1.1929 0.4484
C5 C -0.1795(4) 1.0250(11) 0.4414(17)
H5 H -0.2059 0.9881 0.4199
C6 C -0.1434(4) 0.8294(10) 0.4326(15)
Mo1A Mo 0.20683(3) 0.48500(8) 0.17171(11)
Mo1E Mo -0.20683(3) 0.51500(8) -0.17171(11)
Mo1E_2 Mo -0.20683(3) 0.51500(8) 0.82829(11)
Mo1F Mo -0.29317(3) 1.01500(8) 0.67171(11)
Mo2A Mo 0.08949(3) 0.47766(9) 0.23011(12)
Mo2E Mo -0.08949(3) 0.52234(9) -0.23011(12)
Mo2E_2 Mo -0.08949(3) 0.52234(9) 0.76989(12)
Mn1C Mn -0.2500 0.2500 0.0000
Mn1A Mn 0.2500 0.7500 0.0000
O1F O -0.2529(2) 0.9068(6) 0.6590(10)
O1A O 0.2471(2) 0.5932(6) 0.1590(10)
O2C O -0.2670(2) 0.8646(7) 0.2735(10)
O2E O -0.2330(2) 0.6354(7) 0.7265(10)
O2A O 0.2330(2) 0.3646(7) 0.2735(10)
O3E O -0.1997(2) 0.4446(7) 0.5537(9)
O3A O 0.1997(2) 0.5554(7) 0.4463(9)
O3D O 0.1997(2) 0.4446(7) -0.0537(9)
O4A O 0.1461(2) 0.4360(7) 0.2239(10)
O5A O 0.0661(3) 0.3453(7) 0.2555(11)
O6E O -0.0895(2) 0.4588(7) 0.5526(10)
O6A O 0.0895(2) 0.5412(7) 0.4474(10)
O6D O 0.0895(2) 0.4588(7) -0.0526(10)
O7A O 0.0386(2) 0.5759(7) 0.1451(10)
O8A O -0.0253(3) 0.7585(8) 0.0912(12)
N1A N 0.1018(3) 1.1351(9) -0.0028(13)
N2A N 0.1784(3) 0.7616(8) 0.0670(12)
N2F N -0.3216(3) 0.7384(8) 0.5670(12)
N3A N 0.1642(3) 0.6535(8) 0.1123(11)
N4A N 0.1228(3) 0.6578(8) 0.1364(11)
N5A N 0.1086(3) 0.7669(8) 0.1126(13)
H1A H 0.0829 0.7927 0.1235
C1A C 0.1425(4) 0.9585(10) 0.0436(15)
C2A C 0.1034(4) 1.0136(11) 0.0127(16)
H2A H 0.0782 0.9692 0.0024
C3A C 0.1378(4) 1.2014(11) 0.0096(15)
H3A H 0.1361 1.2832 -0.0033
C4A C 0.1772(4) 1.1476(12) 0.0415(17)
H4A H 0.2022 1.1929 0.0516
C5A C 0.1795(4) 1.0250(11) 0.0586(17)
H5A H 0.2059 0.9881 0.0801
C6A C 0.1434(4) 0.8294(10) 0.0674(15)
O9 O 0.0035(11) 0.973(3) -0.063(4)
loop_
_geom_bond_atom_site_label_1
_geom_bond_atom_site_label_2
_geom_bond_site_symmetry_1
_geom_bond_site_symmetry_2
Mo1 O1 1_555 1_555
Mo2 O4 1_555 1_555
Mo3 O7 1_555 1_555
Mn1 O1 1_555 1_555
O2 Mo1 1_555 1_555
O3 Mo1 1_555 1_555
O4 Mo1 1_555 1_555
O5 Mo2 1_555 1_555
O6 Mo2 1_555 1_555
O7 Mo2 1_555 1_555
O8 Mo3 1_555 1_555
N1 C2 1_555 1_555
N2 Mn1 1_555 1_555
N3 Mo1 1_555 1_555
N4 Mo2 1_555 1_555
N5 N4 1_555 1_555
H1 N5 1_555 1_555
C1 C2 1_555 1_555
C2 H2 1_555 1_555
C3 N1 1_555 1_555
H3 C3 1_555 1_555
C4 C3 1_555 1_555
H4 C4 1_555 1_555
C5 C1 1_555 1_555
H5 C5 1_555 1_555
C6 N2 1_555 1_555
Mo1A O1A 1_555 1_555
Mo1E O3 1_555 1_555
Mo1E_2 O2E 1_555 1_555
Mo1F O1F 1_555 1_555
Mo2A O4A 1_555 1_555
Mo2E O6 1_555 1_555
Mo2E_2 O6E 1_555 1_555
Mn1C O2 1_555 1_555
Mn1A O1A 1_555 1_555
O1F Mn1 1_555 1_555
O2C Mn1 1_555 1_555
O2E Mn1 1_555 1_555
O2A Mo1A 1_555 1_555
O3E Mo1 1_555 1_555
O3A Mo1A 1_555 1_555
O3D Mo1A 1_555 1_555
O4A Mo1A 1_555 1_555
O5A Mo2A 1_555 1_555
O6E Mo2 1_555 1_555
O6A Mo2A 1_555 1_555
O6D Mo2A 1_555 1_555
O7A Mo3 1_555 1_555
O8A Mo3 1_555 1_555
N1A C2A 1_555 1_555
N2A Mn1A 1_555 1_555
N2F Mn1 1_555 1_555
N3A Mo1A 1_555 1_555
N4A Mo2A 1_555 1_555
N5A N4A 1_555 1_555
H1A N5A 1_555 1_555
C1A C2A 1_555 1_555
C2A H2A 1_555 1_555
C3A N1A 1_555 1_555
H3A C3A 1_555 1_555
C4A C3A 1_555 1_555
H4A C4A 1_555 1_555
C5A C1A 1_555 1_555
H5A C5A 1_555 1_555
C6A N2A 1_555 1_555
N2 N3 1_555 1_555
N3 N4 1_555 1_555
N5 C6 1_555 1_555
C1 C6 1_555 1_555
C4 C5 1_555 1_555
Mo1E_2 O3E 1_555 1_555
Mo2A O7A 1_555 1_555
N2A N3A 1_555 1_555
N3A N4A 1_555 1_555
N5A C6A 1_555 1_555
C1A C6A 1_555 1_555
C4A C5A 1_555 1_555

#END
