
#######################################################################
#
#                 Cambridge Crystallographic Data Centre
#                                CCDC 
#
#######################################################################
#
# If this CIF has been generated from an entry in the Cambridge 
# Structural Database, then it will include bibliographic, chemical, 
# crystal, experimental, refinement or atomic coordinate data resulting 
# from the CCDC's data processing and validation procedures.
#
#######################################################################

data_EBEGEZ
_symmetry_cell_setting           monoclinic
_symmetry_space_group_name_H-M   'C 2/c'
_symmetry_Int_Tables_number      15
_space_group_name_Hall           '-C 2yn'
loop_
_symmetry_equiv_pos_site_id
_symmetry_equiv_pos_as_xyz
1 x,y,z
2 -x,y,1/2-z
3 1/2+x,1/2+y,z
4 1/2-x,1/2+y,1/2-z
5 -x,-y,-z
6 x,-y,1/2+z
7 1/2-x,1/2-y,-z
8 1/2+x,1/2-y,1/2+z
_cell_length_a                   30.907(3)
_cell_length_b                   11.1447(10)
_cell_length_c                   7.4349(13)
_cell_angle_alpha                90
_cell_angle_beta                 92.63(2)
_cell_angle_gamma                90
_cell_volume                     2558.25
loop_
_atom_site_label
_atom_site_type_symbol
_atom_site_fract_x
_atom_site_fract_y
_atom_site_fract_z
Mo1 Mo -0.208689(13) -0.01499(3) 0.82655(6)
Mo2 Mo -0.090634(13) -0.02314(3) 0.76878(6)
Mo3 Mo 0.0000 0.16931(5) 0.7500
Co1 Co -0.2500 0.2500 1.0000
O1 O -0.23492(10) -0.1355(3) 0.7189(4)
O2 O -0.24859(10) 0.0960(3) 0.8458(4)
O3 O -0.20188(10) -0.0605(3) 1.0516(4)
O4 O -0.14774(10) -0.0663(3) 0.7736(4)
O5 O -0.06652(11) -0.1559(3) 0.7404(5)
O6 O -0.09083(11) 0.0432(3) 0.5524(4)
O7 O -0.03907(11) 0.0749(3) 0.8521(5)
O8 O -0.02535(12) 0.2595(3) 0.5900(5)
N1 N -0.10279(15) 0.6337(4) 1.0082(7)
N2 N -0.18102(13) 0.2597(3) 0.9379(5)
N3 N -0.16648(12) 0.1518(3) 0.8894(5)
N4 N -0.12465(13) 0.1571(3) 0.8646(5)
N5 N -0.11055(13) 0.2664(3) 0.8943(5)
H1 H -0.0845 0.2927 0.8874
C1 C -0.14440(16) 0.4580(4) 0.9653(7)
C2 C -0.10473(18) 0.5123(4) 0.9974(8)
H2 H -0.0797 0.4664 1.0114
C3 C -0.13842(18) 0.7022(4) 0.9928(7)
H3 H -0.1359 0.7851 1.0030
C4 C -0.17811(18) 0.6520(4) 0.9623(7)
H4 H -0.2028 0.6995 0.9515
C5 C -0.18095(17) 0.5269(4) 0.9473(7)
H5 H -0.2078 0.4906 0.9251
C6 C -0.14566(15) 0.3281(4) 0.9377(7)
Mo1A Mo 0.208689(13) -0.01499(3) 0.67345(6)
Mo1E Mo -0.208689(13) 0.01499(3) 1.32655(6)
Mo1E_2 Mo -0.208689(13) 0.01499(3) 0.32655(6)
Mo1F Mo -0.291311(13) 0.51499(3) 1.17345(6)
Mo2A Mo 0.090634(13) -0.02314(3) 0.73122(6)
Mo2E Mo -0.090634(13) 0.02314(3) 0.26878(6)
Mo2E_2 Mo -0.090634(13) 0.02314(3) 1.26878(6)
Co1C Co -0.2500 -0.2500 0.5000
Co1A Co 0.2500 0.2500 0.5000
O1E O -0.23492(10) 0.1355(3) 1.2189(4)
O1C O -0.26508(10) 0.3645(3) 0.7811(4)
O1A O 0.23492(10) -0.1355(3) 0.7811(4)
O2F O -0.25141(10) 0.4040(3) 1.1542(4)
O2A O 0.24859(10) 0.0960(3) 0.6542(4)
O3E O -0.20188(10) 0.0605(3) 0.5516(4)
O3A O 0.20188(10) -0.0605(3) 0.4484(4)
O3D O 0.20188(10) 0.0605(3) 0.9484(4)
O4A O 0.14774(10) -0.0663(3) 0.7264(4)
O5A O 0.06652(11) -0.1559(3) 0.7596(5)
O6E O -0.09083(11) -0.0432(3) 1.0524(4)
O6A O 0.09083(11) 0.0432(3) 0.9476(4)
O6D O 0.09083(11) -0.0432(3) 0.4476(4)
O7A O 0.03907(11) 0.0749(3) 0.6479(5)
O8A O 0.02535(12) 0.2595(3) 0.9100(5)
N1A N 0.10279(15) 0.6337(4) 0.4918(7)
N2A N 0.18102(13) 0.2597(3) 0.5621(5)
N2F N -0.31898(13) 0.2403(3) 1.0621(5)
N3A N 0.16648(12) 0.1518(3) 0.6106(5)
N4A N 0.12465(13) 0.1571(3) 0.6354(5)
N5A N 0.11055(13) 0.2664(3) 0.6057(5)
H1A H 0.0845 0.2927 0.6126
C1A C 0.14440(16) 0.4580(4) 0.5347(7)
C2A C 0.10473(18) 0.5123(4) 0.5026(8)
H2A H 0.0797 0.4664 0.4886
C3A C 0.13842(18) 0.7022(4) 0.5072(7)
H3A H 0.1359 0.7851 0.4970
C4A C 0.17811(18) 0.6520(4) 0.5377(7)
H4A H 0.2028 0.6995 0.5485
C5A C 0.18095(17) 0.5269(4) 0.5527(7)
H5A H 0.2078 0.4906 0.5749
C6A C 0.14566(15) 0.3281(4) 0.5623(7)
O9 O -0.0030(5) 0.4739(11) 1.0577(18)
loop_
_geom_bond_atom_site_label_1
_geom_bond_atom_site_label_2
_geom_bond_site_symmetry_1
_geom_bond_site_symmetry_2
Mo1 O1 1_555 1_555
Mo2 O4 1_555 1_555
Mo3 O7 1_555 1_555
Co1 O2 1_555 1_555
O1 Co1C 1_555 1_555
O2 Mo1 1_555 1_555
O3 Mo1 1_555 1_555
O4 Mo1 1_555 1_555
O5 Mo2 1_555 1_555
O6 Mo2 1_555 1_555
O7 Mo2 1_555 1_555
O8 Mo3 1_555 1_555
N1 C2 1_555 1_555
N2 Co1 1_555 1_555
N3 Mo1 1_555 1_555
N4 Mo2 1_555 1_555
N5 N4 1_555 1_555
H1 N5 1_555 1_555
C1 C2 1_555 1_555
C2 H2 1_555 1_555
C3 N1 1_555 1_555
H3 C3 1_555 1_555
C4 C3 1_555 1_555
H4 C4 1_555 1_555
C5 C1 1_555 1_555
H5 C5 1_555 1_555
C6 N2 1_555 1_555
Mo1A O1A 1_555 1_555
Mo1E O3 1_555 1_555
Mo1E_2 O3E 1_555 1_555
Mo1F O2F 1_555 1_555
Mo2A O4A 1_555 1_555
Mo2E O6 1_555 1_555
Mo2E_2 O6E 1_555 1_555
Co1A O2A 1_555 1_555
O1E Co1 1_555 1_555
O1C Co1 1_555 1_555
O2F Co1 1_555 1_555
O2A Mo1A 1_555 1_555
O3E Mo1 1_555 1_555
O3A Mo1A 1_555 1_555
O3D Mo1A 1_555 1_555
O4A Mo1A 1_555 1_555
O5A Mo2A 1_555 1_555
O6E Mo2 1_555 1_555
O6A Mo2A 1_555 1_555
O6D Mo2A 1_555 1_555
O7A Mo3 1_555 1_555
O8A Mo3 1_555 1_555
N1A C2A 1_555 1_555
N2A Co1A 1_555 1_555
N2F Co1 1_555 1_555
N3A Mo1A 1_555 1_555
N4A Mo2A 1_555 1_555
N5A N4A 1_555 1_555
H1A N5A 1_555 1_555
C1A C2A 1_555 1_555
C2A H2A 1_555 1_555
C3A N1A 1_555 1_555
H3A C3A 1_555 1_555
C4A C3A 1_555 1_555
H4A C4A 1_555 1_555
C5A C1A 1_555 1_555
H5A C5A 1_555 1_555
C6A N2A 1_555 1_555
N2 N3 1_555 1_555
N3 N4 1_555 1_555
N5 C6 1_555 1_555
C1 C6 1_555 1_555
C4 C5 1_555 1_555
Mo1E O1E 1_555 1_555
Mo2A O7A 1_555 1_555
N2A N3A 1_555 1_555
N3A N4A 1_555 1_555
N5A C6A 1_555 1_555
C1A C6A 1_555 1_555
C4A C5A 1_555 1_555

#END
