
#######################################################################
#
#                 Cambridge Crystallographic Data Centre
#                                CCDC 
#
#######################################################################
#
# If this CIF has been generated from an entry in the Cambridge 
# Structural Database, then it will include bibliographic, chemical, 
# crystal, experimental, refinement or atomic coordinate data resulting 
# from the CCDC's data processing and validation procedures.
#
#######################################################################

data_EBEWOZ01
_symmetry_cell_setting           tetragonal
_symmetry_space_group_name_H-M   'P 43 2 2'
_symmetry_Int_Tables_number      95
_space_group_name_Hall           'P 4cw 2c'
loop_
_symmetry_equiv_pos_site_id
_symmetry_equiv_pos_as_xyz
1 x,y,z
2 -x,-y,1/2+z
3 -y,x,3/4+z
4 y,-x,1/4+z
5 -x,y,-z
6 x,-y,1/2-z
7 y,x,1/4-z
8 -y,-x,3/4-z
_cell_length_a                   10.3625(7)
_cell_length_b                   10.3625(7)
_cell_length_c                   13.8473(19)
_cell_angle_alpha                90
_cell_angle_beta                 90
_cell_angle_gamma                90
_cell_volume                     1486.94
loop_
_atom_site_label
_atom_site_type_symbol
_atom_site_fract_x
_atom_site_fract_y
_atom_site_fract_z
Gd1 Gd 0.877264(19) 0.877264(19) 0.6250
O1 O 0.9187(5) 0.6842(3) 0.5525(2)
O2 O 0.9177(5) 0.2692(4) 0.7490(3)
O3 O 0.9144(4) 0.0913(3) 0.6695(3)
C1 C 1.0000 0.6266(7) 0.5000
C2 C 0.9287(6) 0.2093(5) 0.6715(4)
C3 C 1.0000 0.4844(7) 0.5000
C4 C 0.9629(6) 0.4169(5) 0.5819(4)
H1 H 0.9374 0.4618 0.6368
C5 C 0.9636(6) 0.2834(5) 0.5827(3)
C6 C 1.0000 0.2169(7) 0.5000
H2 H 1.0000 0.1272 0.5000
Gd1C Gd 0.877264(19) 0.122736(19) 0.8750
Gd1_2 Gd 0.877264(19) -0.122736(19) 0.6250
Gd1B Gd 1.122736(19) 0.877264(19) 0.3750
Gd1A Gd 1.122736(19) 0.122736(19) 0.1250
Gd1B_2 Gd 1.122736(19) -0.122736(19) 0.3750
O1D O 1.0813(5) 0.6842(3) 0.4475(2)
O1F O 0.6842(3) 0.9187(5) 0.6975(2)
O2D O 1.0823(5) 0.2692(4) 0.2510(3)
O2E O 0.9177(5) 0.7308(4) 0.7510(3)
O2B O 0.7308(4) 0.9177(5) 0.4990(3)
O3D O 1.0856(4) 0.0913(3) 0.3305(3)
O3_2 O 0.9144(4) 1.0913(3) 0.6695(3)
O3F O 1.0913(3) 0.9144(4) 0.5805(3)
O3E O 0.9144(4) 0.9087(3) 0.8305(3)
O3B O 0.9087(3) 0.9144(4) 0.4195(3)
C2D C 1.0713(6) 0.2093(5) 0.3285(4)
C4D C 1.0371(6) 0.4169(5) 0.4181(4)
H1D H 1.0626 0.4618 0.3632
C5D C 1.0364(6) 0.2834(5) 0.4173(3)
loop_
_geom_bond_atom_site_label_1
_geom_bond_atom_site_label_2
_geom_bond_site_symmetry_1
_geom_bond_site_symmetry_2
Gd1 O1 1_555 1_555
O1 C1 1_555 1_555
O2 C2 1_555 1_555
O3 C2 1_555 1_555
C1 C3 1_555 1_555
C2 C5 1_555 1_555
C3 C4 1_555 1_555
C4 H1 1_555 1_555
C5 C4 1_555 1_555
C6 C5 1_555 1_555
H2 C6 1_555 1_555
Gd1C O2 1_555 1_555
Gd1_2 O3 1_555 1_555
Gd1B O1D 1_555 1_555
Gd1A O2D 1_555 1_555
Gd1B_2 O3D 1_555 1_555
O1D C1 1_555 1_555
O1F Gd1 1_555 1_555
O2D C2D 1_555 1_555
O2E Gd1 1_555 1_555
O2B Gd1 1_555 1_555
O3D Gd1A 1_555 1_555
O3_2 Gd1 1_555 1_555
O3F Gd1 1_555 1_555
O3E Gd1 1_555 1_555
O3B Gd1 1_555 1_555
C2D O3D 1_555 1_555
C4D C3 1_555 1_555
H1D C4D 1_555 1_555
C5D C6 1_555 1_555
O3 Gd1C 1_555 1_555
Gd1B O3F 1_555 1_555
Gd1B O3B 1_555 1_555
C2D C5D 1_555 1_555
C4D C5D 1_555 1_555

#END
