
#######################################################################
#
#                 Cambridge Crystallographic Data Centre
#                                CCDC 
#
#######################################################################
#
# If this CIF has been generated from an entry in the Cambridge 
# Structural Database, then it will include bibliographic, chemical, 
# crystal, experimental, refinement or atomic coordinate data resulting 
# from the CCDC's data processing and validation procedures.
#
#######################################################################

data_EBEXAM
_symmetry_cell_setting           tetragonal
_symmetry_space_group_name_H-M   'P 41 2 2'
_symmetry_Int_Tables_number      91
_space_group_name_Hall           'P 4w 2c'
loop_
_symmetry_equiv_pos_site_id
_symmetry_equiv_pos_as_xyz
1 x,y,z
2 -x,-y,1/2+z
3 -y,x,1/4+z
4 y,-x,3/4+z
5 -x,y,-z
6 x,-y,1/2-z
7 y,x,3/4-z
8 -y,-x,1/4-z
_cell_length_a                   10.4710(15)
_cell_length_b                   10.4710(15)
_cell_length_c                   14.645(4)
_cell_angle_alpha                90
_cell_angle_beta                 90
_cell_angle_gamma                90
_cell_volume                     1605.7
loop_
_atom_site_label
_atom_site_type_symbol
_atom_site_fract_x
_atom_site_fract_y
_atom_site_fract_z
Gd1 Gd 0.85727(3) 0.14273(3) 0.1250
O1 O 0.9314(6) 0.3318(4) 0.0592(4)
O2 O 0.9243(6) 0.7525(6) 0.2393(4)
O3 O 0.8972(6) 0.9238(5) 0.1570(4)
O4 O 0.6884(6) 0.3116(6) 0.1250
C1 C 1.0000 0.3873(10) 0.0000
C2 C 0.9245(7) 0.8103(7) 0.1633(5)
C3 C 1.0000 0.5331(9) 0.0000
C4 C 0.9616(7) 0.6005(6) 0.0791(4)
H1 H 0.9357 0.5560 0.1308
C5 C 0.9624(7) 0.7351(7) 0.0794(4)
C6 C 1.0000 0.8017(10) 0.0000
H2 H 1.0000 0.8905 0.0000
Gd1_2 Gd 0.85727(3) 1.14273(3) 0.1250
Gd1A Gd 1.14273(3) 0.85727(3) -0.3750
Gd1B Gd 0.85727(3) 0.85727(3) 0.3750
Gd1C Gd 1.14273(3) 0.14273(3) -0.1250
Gd1C_2 Gd 1.14273(3) 1.14273(3) -0.1250
O1D O 1.0686(6) 0.3318(4) -0.0592(4)
O1G O 0.6682(4) 0.0686(6) 0.1908(4)
O2D O 1.0757(6) 0.7525(6) -0.2393(4)
O2C O 0.7525(6) 0.0757(6) -0.0107(4)
O2E O 0.9243(6) 0.2475(6) 0.2607(4)
O3D O 1.1028(6) 0.9238(5) -0.1570(4)
O3_2 O 0.8972(6) -0.0762(5) 0.1570(4)
O3G O 1.0762(5) 0.1028(6) 0.0930(4)
C2D C 1.0755(7) 0.8103(7) -0.1633(5)
C4D C 1.0384(7) 0.6005(6) -0.0791(4)
H1D H 1.0643 0.5560 -0.1308
C5D C 1.0376(7) 0.7351(7) -0.0794(4)
O5 O 0.8177(12) 0.3743(9) -0.2251(8)
O6 O 0.6493(16) 0.6493(16) -0.1250
O7 O 0.644(2) 0.404(2) -0.0777(17)
loop_
_geom_bond_atom_site_label_1
_geom_bond_atom_site_label_2
_geom_bond_site_symmetry_1
_geom_bond_site_symmetry_2
Gd1 O1 1_555 1_555
O1 C1 1_555 1_555
O2 C2 1_555 1_555
O3 C2 1_555 1_555
O4 Gd1 1_555 1_555
C1 C3 1_555 1_555
C2 C5 1_555 1_555
C3 C4 1_555 1_555
C4 H1 1_555 1_555
C5 C4 1_555 1_555
C6 C5 1_555 1_555
H2 C6 1_555 1_555
Gd1_2 O3 1_555 1_555
Gd1A O2D 1_555 1_555
Gd1B O2 1_555 1_555
Gd1C O1D 1_555 1_555
Gd1C_2 O3D 1_555 1_555
O1D C1 1_555 1_555
O1G Gd1 1_555 1_555
O2D C2D 1_555 1_555
O2C Gd1 1_555 1_555
O2E Gd1 1_555 1_555
O3D C2D 1_555 1_555
O3_2 Gd1 1_555 1_555
O3G Gd1 1_555 1_555
C2D C5D 1_555 1_555
C4D C3 1_555 1_555
H1D C4D 1_555 1_555
C5D C6 1_555 1_555
C4D C5D 1_555 1_555

#END
