
#######################################################################
#
#                 Cambridge Crystallographic Data Centre
#                                CCDC 
#
#######################################################################
#
# If this CIF has been generated from an entry in the Cambridge 
# Structural Database, then it will include bibliographic, chemical, 
# crystal, experimental, refinement or atomic coordinate data resulting 
# from the CCDC's data processing and validation procedures.
#
#######################################################################

data_EBIMOT
_symmetry_cell_setting           orthorhombic
_symmetry_space_group_name_H-M   'P c a 21'
_symmetry_Int_Tables_number      29
_space_group_name_Hall           'P 2c -2ac'
loop_
_symmetry_equiv_pos_site_id
_symmetry_equiv_pos_as_xyz
1 x,y,z
2 -x,-y,1/2+z
3 1/2+x,-y,z
4 1/2-x,y,1/2+z
_cell_length_a                   10.7810(5)
_cell_length_b                   15.8837(7)
_cell_length_c                   25.1737(11)
_cell_angle_alpha                90
_cell_angle_beta                 90
_cell_angle_gamma                90
_cell_volume                     4310.8
loop_
_atom_site_label
_atom_site_type_symbol
_atom_site_fract_x
_atom_site_fract_y
_atom_site_fract_z
Mg1 Mg 0.29454(17) 0.17574(11) -0.28175(7)
Mg2 Mg 0.43367(17) 0.24978(12) -0.39740(7)
Mg3 Mg 0.07241(16) -0.32989(12) -0.51669(7)
C1 C 0.3260(5) 0.0132(4) -0.4007(2)
C2 C 0.2484(5) -0.0571(4) -0.4048(2)
H1 H 0.1884 -0.0678 -0.3780
C3 C 0.2588(5) -0.1116(3) -0.4481(2)
C4 C 0.3452(5) -0.0937(3) -0.4879(2)
H2 H 0.3507 -0.1296 -0.5179
C5 C 0.4245(5) -0.0234(3) -0.4843(2)
C6 C 0.4153(5) 0.0274(3) -0.4393(2)
H3 H 0.4715 0.0729 -0.4350
C7 C 0.5045(5) 0.0037(4) -0.5294(2)
H4 H 0.5512 0.0540 -0.5176
H5 H 0.4490 0.0221 -0.5585
C8 C 0.5967(5) -0.0571(4) -0.5527(2)
C9 C 0.6021(5) -0.0667(4) -0.6079(2)
H6 H 0.5428 -0.0393 -0.6298
C10 C 0.6945(5) -0.1167(4) -0.6309(2)
C11 C 0.7769(5) -0.1605(4) -0.5988(2)
H7 H 0.8391 -0.1947 -0.6146
C12 C 0.7691(5) -0.1546(4) -0.5443(2)
C13 C 0.6786(5) -0.1035(4) -0.5217(2)
H8 H 0.6727 -0.1001 -0.4841
C14 C 0.3123(5) 0.0732(3) -0.3565(2)
C15 C 0.1735(5) -0.1859(3) -0.4524(2)
C16 C 0.7010(5) -0.1263(4) -0.6898(2)
C17 C 0.8581(5) -0.2043(3) -0.5106(2)
C18 C 0.0460(5) 0.5168(4) -0.3895(2)
C19 C 0.1219(5) 0.4474(4) -0.3854(2)
H9 H 0.1845 0.4382 -0.4113
C20 C 0.1078(5) 0.3913(3) -0.3442(2)
C21 C 0.0217(5) 0.4063(4) -0.3042(2)
H10 H 0.0143 0.3686 -0.2751
C22 C -0.0534(5) 0.4771(3) -0.3074(2)
C23 C -0.0442(5) 0.5301(3) -0.3508(2)
H11 H -0.0999 0.5761 -0.3543
C24 C -0.1385(5) 0.5013(4) -0.2607(2)
H12 H -0.1948 0.5467 -0.2726
H13 H -0.0863 0.5246 -0.2318
C25 C -0.2160(5) 0.4313(4) -0.2380(2)
C26 C -0.2059(5) 0.4065(4) -0.1856(2)
H14 H -0.1441 0.4313 -0.1636
C27 C -0.2854(5) 0.3455(4) -0.1642(2)
C28 C -0.3770(5) 0.3102(4) -0.1952(2)
H15 H -0.4335 0.2711 -0.1801
C29 C -0.3871(5) 0.3321(4) -0.2493(2)
C30 C -0.3069(5) 0.3932(3) -0.2699(2)
H16 H -0.3142 0.4093 -0.3061
C31 C 0.0599(5) 0.5774(4) -0.4355(2)
C32 C 0.1908(5) 0.3138(3) -0.3409(2)
C33 C -0.2695(5) 0.3188(4) -0.1072(2)
C34 C -0.4811(5) 0.2909(3) -0.2836(2)
C35 C -0.1736(8) -0.4048(6) -0.5636(3)
H17 H -0.2325 -0.4162 -0.5364
C36 C -0.1275(7) -0.3707(6) -0.6569(3)
H18 H -0.0421 -0.3787 -0.6445
H19 H -0.1453 -0.4107 -0.6855
H20 H -0.1377 -0.3131 -0.6701
C37 C -0.3441(7) -0.3747(6) -0.6224(3)
H21 H -0.3914 -0.3878 -0.5902
H22 H -0.3602 -0.3164 -0.6330
H23 H -0.3695 -0.4128 -0.6511
O1 O 0.3770(3) 0.1398(2) -0.35436(14)
O2 O 0.2335(4) 0.0606(3) -0.31924(15)
O3 O 0.0870(3) -0.1879(2) -0.41941(15)
O4 O 0.1938(4) -0.2398(2) -0.48741(15)
O5 O 0.6194(4) -0.0949(3) -0.71923(16)
O6 O 0.7897(4) -0.1678(3) -0.70888(15)
O7 O 0.9513(4) -0.2355(3) -0.53358(15)
O8 O 0.8344(4) -0.2114(3) -0.46214(14)
O9 O -0.0090(3) 0.6422(2) -0.43803(13)
O10 O 0.1369(3) 0.5628(2) -0.47140(14)
O11 O 0.2779(3) 0.3100(3) -0.37276(16)
O12 O 0.1650(4) 0.2584(3) -0.30610(15)
O13 O -0.1778(4) 0.3456(3) -0.08214(16)
O14 O -0.3513(4) 0.2703(3) -0.08849(17)
H24 H -0.3343 0.2589 -0.0567
O15 O -0.5763(4) 0.2620(3) -0.26160(15)
O16 O -0.4603(4) 0.2887(3) -0.33275(14)
O17 O -0.0604(5) -0.4085(4) -0.5525(2)
N1 N -0.2146(6) -0.3853(4) -0.6121(3)
Mg1A Mg 0.70546(17) -0.17574(11) -0.78175(7)
Mg1_2 Mg -0.70546(17) 0.17574(11) -0.28175(7)
Mg2B Mg -0.06633(17) -0.24978(12) -0.39740(7)
Mg2B_2 Mg 0.93367(17) -0.24978(12) -0.39740(7)
Mg2B_3 Mg -0.06633(17) 0.75022(12) -0.39740(7)
Mg2_2 Mg -0.56633(17) 0.24978(12) -0.39740(7)
Mg3_2 Mg 1.07241(16) -0.32989(12) -0.51669(7)
Mg3_3 Mg 0.07241(16) 0.67011(12) -0.51669(7)
Mg3A Mg -0.07241(16) 0.32989(12) -0.01669(7)
O3B O 0.5870(3) 0.1879(2) -0.41941(15)
O5A O 0.3806(4) 0.0949(3) -0.21923(16)
O6A O 0.2103(4) 0.1678(3) -0.20888(15)
O7_2 O -0.0487(4) -0.2355(3) -0.53358(15)
O8B O 0.3344(4) 0.2114(3) -0.46214(14)
O9B O 0.4910(3) 0.3578(2) -0.43803(13)
O9_2 O -0.0090(3) -0.3578(2) -0.43803(13)
O10_2 O 0.1369(3) -0.4372(2) -0.47140(14)
O13A O 0.1778(4) -0.3456(3) -0.58214(16)
O15_2 O 0.4237(4) 0.2620(3) -0.26160(15)
O16_2 O 0.5397(4) 0.2887(3) -0.33275(14)
C38 C -0.4249(7) 0.4089(5) -0.0029(3)
H25 H -0.3415 0.4330 -0.0057
H26 H -0.4743 0.4423 0.0221
H27 H -0.4647 0.4096 -0.0379
C39 C -0.5306(7) 0.2782(5) 0.0242(4)
H28 H -0.5134 0.2212 0.0374
H29 H -0.5757 0.2746 -0.0095
H30 H -0.5810 0.3086 0.0503
N2 N -0.4163(5) 0.3218(4) 0.0162(3)
O18 O -0.3044(6) 0.3046(5) 0.1203(3)
O19 O 0.6317(13) 0.1476(9) -0.6024(5)
O20 O 0.3648(15) -0.0548(11) -0.7352(6)
O21 O 0.8008(18) 0.1021(14) -0.6273(8)
O22 O 1.062(4) -0.103(3) -0.7782(19)
O23? O 0.571(2) 0.1578(15) -0.6368(9)
O24? O 1.067(3) -0.097(2) -0.7195(14)
O25? O 1.038(3) -0.1587(19) -0.7425(11)
O26? O 0.297(3) -0.095(2) -0.7311(13)
loop_
_geom_bond_atom_site_label_1
_geom_bond_atom_site_label_2
_geom_bond_site_symmetry_1
_geom_bond_site_symmetry_2
Mg1 O1 1_555 1_555
Mg2 O1 1_555 1_555
Mg3 O4 1_555 1_555
C1 C2 1_555 1_555
C2 H1 1_555 1_555
C3 C2 1_555 1_555
C4 C3 1_555 1_555
H2 C4 1_555 1_555
C5 C4 1_555 1_555
C6 C1 1_555 1_555
H3 C6 1_555 1_555
C7 C5 1_555 1_555
H4 C7 1_555 1_555
H5 C7 1_555 1_555
C8 C7 1_555 1_555
C9 C8 1_555 1_555
H6 C9 1_555 1_555
C10 C9 1_555 1_555
C11 C10 1_555 1_555
H7 C11 1_555 1_555
C12 C11 1_555 1_555
C13 C8 1_555 1_555
H8 C13 1_555 1_555
C14 C1 1_555 1_555
C15 C3 1_555 1_555
C16 C10 1_555 1_555
C17 C12 1_555 1_555
C18 C19 1_555 1_555
C19 H9 1_555 1_555
C20 C19 1_555 1_555
C21 C20 1_555 1_555
H10 C21 1_555 1_555
C22 C21 1_555 1_555
C23 C18 1_555 1_555
H11 C23 1_555 1_555
C24 C22 1_555 1_555
H12 C24 1_555 1_555
H13 C24 1_555 1_555
C25 C24 1_555 1_555
C26 C25 1_555 1_555
H14 C26 1_555 1_555
C27 C26 1_555 1_555
C28 C27 1_555 1_555
H15 C28 1_555 1_555
C29 C28 1_555 1_555
C30 C25 1_555 1_555
H16 C30 1_555 1_555
C31 C18 1_555 1_555
C32 C20 1_555 1_555
C33 C27 1_555 1_555
C34 C29 1_555 1_555
C35 H17 1_555 1_555
C36 H18 1_555 1_555
H19 C36 1_555 1_555
H20 C36 1_555 1_555
C37 H21 1_555 1_555
H22 C37 1_555 1_555
H23 C37 1_555 1_555
O1 C14 1_555 1_555
O2 Mg1 1_555 1_555
O3 C15 1_555 1_555
O4 C15 1_555 1_555
O5 C16 1_555 1_555
O6 C16 1_555 1_555
O7 C17 1_555 1_555
O8 C17 1_555 1_555
O9 C31 1_555 1_555
O10 C31 1_555 1_555
O11 Mg2 1_555 1_555
O12 Mg1 1_555 1_555
O13 C33 1_555 1_555
O14 C33 1_555 1_555
H24 O14 1_555 1_555
O15 C34 1_555 1_555
O16 C34 1_555 1_555
O17 Mg3 1_555 1_555
N1 C35 1_555 1_555
C38 H25 1_555 1_555
H26 C38 1_555 1_555
H27 C38 1_555 1_555
C39 H28 1_555 1_555
H29 C39 1_555 1_555
H30 C39 1_555 1_555
N2 C38 1_555 1_555
Mg1A O5 1_555 1_555
Mg1_2 O15 1_555 1_555
Mg2B O3 1_555 1_555
Mg2B_2 O8 1_555 1_555
Mg2B_3 O9 1_555 1_555
Mg2_2 O16 1_555 1_555
Mg3_2 O7 1_555 1_555
Mg3_3 O9 1_555 1_555
Mg3A O13 1_555 1_555
O3B Mg2 1_555 1_555
O5A Mg1 1_555 1_555
O6A Mg1 1_555 1_555
O7_2 Mg3 1_555 1_555
O8B Mg2 1_555 1_555
O9B Mg2 1_555 1_555
O9_2 Mg3 1_555 1_555
O10_2 Mg3 1_555 1_555
O13A Mg3 1_555 1_555
O15_2 Mg1 1_555 1_555
O16_2 Mg2 1_555 1_555
C5 C6 1_555 1_555
C12 C13 1_555 1_555
C14 O2 1_555 1_555
C22 C23 1_555 1_555
C29 C30 1_555 1_555
C32 O11 1_555 1_555
C32 O12 1_555 1_555
C35 O17 1_555 1_555
C36 N1 1_555 1_555
C37 N1 1_555 1_555
O6 Mg1A 1_555 1_555
O10 Mg3_3 1_555 1_555
C39 N2 1_555 1_555
Mg2B O9_2 1_555 1_555

#END
