
#######################################################################
#
#                 Cambridge Crystallographic Data Centre
#                                CCDC 
#
#######################################################################
#
# If this CIF has been generated from an entry in the Cambridge 
# Structural Database, then it will include bibliographic, chemical, 
# crystal, experimental, refinement or atomic coordinate data resulting 
# from the CCDC's data processing and validation procedures.
#
#######################################################################

data_ECIWOC
_symmetry_cell_setting           monoclinic
_symmetry_space_group_name_H-M   'P 21/c'
_symmetry_Int_Tables_number      14
_space_group_name_Hall           '-P 2ybc'
loop_
_symmetry_equiv_pos_site_id
_symmetry_equiv_pos_as_xyz
1 x,y,z
2 x,1/2-y,1/2+z
3 -x,-y,-z
4 -x,1/2+y,1/2-z
_cell_length_a                   22.0278(14)
_cell_length_b                   6.7802(4)
_cell_length_c                   24.3992(15)
_cell_angle_alpha                90.00
_cell_angle_beta                 105.0960(10)
_cell_angle_gamma                90.00
_cell_volume                     3518.34
loop_
_atom_site_label
_atom_site_type_symbol
_atom_site_fract_x
_atom_site_fract_y
_atom_site_fract_z
Zn1 Zn 0.23876(3) 0.47028(9) 0.43670(3)
Zn2 Zn 0.26492(3) 0.47496(9) 0.58171(3)
O1 O 0.31073(17) 0.6266(6) 0.42871(17)
O2 O 0.16107(17) 0.6190(6) 0.41809(17)
O3 O 0.25575(18) 0.3415(6) 0.51037(15)
O4 O 0.2472(2) -0.8009(6) 0.13962(17)
C1 C 0.1121(3) 0.5337(8) 0.4249(3)
C2 C 0.3766(2) 0.9037(8) 0.4401(2)
C3 C 0.3214(2) 0.7966(9) 0.4517(2)
C4 C 0.4130(2) 0.8191(8) 0.4079(2)
H1 H 0.4031 0.6909 0.3925
C5 C 0.3919(2) 1.0932(8) 0.4620(2)
H2 H 0.3670 1.1541 0.4838
O5 O 0.28964(18) 0.8767(7) 0.48061(17)
O6 O 0.3485(2) -0.7280(7) 0.1591(2)
C6 C 0.0569(2) 0.6677(8) 0.4219(2)
O7 O 0.1089(2) 0.3562(6) 0.4346(2)
C7 C 0.2946(3) -0.7008(9) 0.1654(3)
C8 C 0.0587(3) 0.8645(9) 0.4080(3)
H3 H 0.0952 0.9151 0.3990
C9 C 0.0037(3) 0.5992(9) 0.4345(3)
H4 H 0.0006 0.4633 0.4429
N1 N 0.2425(2) 0.2601(6) 0.37708(18)
C10 C 0.2848(3) -0.5387(8) 0.2040(2)
C11 C 0.2259(3) -0.5065(8) 0.2129(2)
H5 H 0.1918 -0.5915 0.1961
C12 C 0.2570(3) -0.0522(8) 0.3075(2)
C13 C 0.2840(3) 0.2693(8) 0.3457(2)
H6 H 0.3088 0.3851 0.3474
C14 C 0.2922(3) 0.1188(8) 0.3113(2)
H7 H 0.3222 0.1313 0.2898
C15 C 0.2669(3) -0.2218(8) 0.2723(2)
C16 C 0.2170(3) -0.3512(8) 0.2461(2)
H8 H 0.1765 -0.3297 0.2517
C17 C 0.3265(3) -0.2578(9) 0.2629(2)
H9 H 0.3608 -0.1737 0.2794
C18 C 0.2071(3) 0.0948(9) 0.3724(2)
H10 H 0.1766 0.0869 0.3935
C19 C 0.3347(3) -0.4148(9) 0.2300(2)
H11 H 0.3753 -0.4397 0.2247
C20 C 0.2130(3) -0.0593(8) 0.3392(2)
H12 H 0.1872 -0.1726 0.3376
N2 N -0.1967(2) 1.3194(7) 0.42022(18)
C21 C -0.0971(2) 1.0564(8) 0.4212(2)
C22 C -0.1380(3) 1.0298(8) 0.4564(2)
H13 H -0.1327 0.9199 0.4813
C23 C -0.1089(3) 1.2209(9) 0.3855(2)
H14 H -0.0828 1.2474 0.3610
C24 C -0.1589(3) 1.3459(9) 0.3858(2)
H15 H -0.1665 1.4549 0.3605
C25 C -0.0442(2) 0.9212(8) 0.4214(2)
C26 C 0.0091(3) 0.9894(9) 0.4067(3)
H16 H 0.0113 1.1231 0.3958
C27 C -0.1855(3) 1.1623(8) 0.4546(2)
H17 H -0.2119 1.1414 0.4792
C28 C -0.0458(3) 0.7247(9) 0.4354(3)
H18 H -0.0814 0.6742 0.4459
N3 N 0.6507(2) 1.3892(6) 0.40998(18)
C29 C 0.5866(2) 1.1030(8) 0.4013(2)
H19 H 0.5821 0.9658 0.3934
C30 C 0.5372(2) 1.2075(8) 0.4142(2)
C31 C 0.6413(2) 1.1969(8) 0.4001(2)
H20 H 0.6741 1.1212 0.3919
C32 C 0.4802(2) 1.1071(8) 0.4206(2)
C33 C 0.4423(3) 1.1916(8) 0.4523(2)
H21 H 0.4519 1.3203 0.4675
C34 C 0.4635(3) 0.9195(8) 0.3983(2)
H22 H 0.4876 0.8594 0.3757
C35 C 0.6048(3) 1.4920(8) 0.4222(3)
H23 H 0.6112 1.6287 0.4301
C36 C 0.5473(2) 1.4079(8) 0.4238(2)
H24 H 0.5151 1.4881 0.4316
H25 H 0.219(11) 0.46(4) 0.505(11)
O4A O 0.2472(2) 0.3009(6) 0.63962(17)
N2B N 0.1967(2) 0.6806(7) 0.57978(18)
N3B N 0.3493(2) 0.6108(6) 0.59002(18)
Zn2A Zn 0.26492(3) -0.97496(9) 0.08171(3)
Zn2B Zn -0.26492(3) 1.52504(9) 0.41829(3)
Zn2B_2 Zn 0.73508(3) 1.52504(9) 0.41829(3)
O8 O 0.4782(7) 0.181(5) 0.7230(8)
C37 C 0.4799(15) 0.289(7) 0.7612(11)
C38 C 0.4852(15) 0.473(5) 0.737(2)
loop_
_geom_bond_atom_site_label_1
_geom_bond_atom_site_label_2
_geom_bond_site_symmetry_1
_geom_bond_site_symmetry_2
Zn1 O1 1_555 1_555
Zn2 O3 1_555 1_555
O1 C3 1_555 1_555
O2 Zn1 1_555 1_555
O3 Zn1 1_555 1_555
O4 C7 1_555 1_555
C1 O2 1_555 1_555
C2 C3 1_555 1_555
C3 O5 1_555 1_555
C4 C2 1_555 1_555
H1 C4 1_555 1_555
C5 C2 1_555 1_555
H2 C5 1_555 1_555
O6 C7 1_555 1_555
C6 C1 1_555 1_555
O7 C1 1_555 1_555
C7 C10 1_555 1_555
C8 C6 1_555 1_555
H3 C8 1_555 1_555
C9 C6 1_555 1_555
H4 C9 1_555 1_555
N1 Zn1 1_555 1_555
C10 C11 1_555 1_555
C11 H5 1_555 1_555
C12 C14 1_555 1_555
C13 N1 1_555 1_555
H6 C13 1_555 1_555
C14 C13 1_555 1_555
H7 C14 1_555 1_555
C15 C12 1_555 1_555
C16 C11 1_555 1_555
H8 C16 1_555 1_555
C17 C15 1_555 1_555
H9 C17 1_555 1_555
C18 N1 1_555 1_555
H10 C18 1_555 1_555
C19 C10 1_555 1_555
H11 C19 1_555 1_555
C20 C12 1_555 1_555
H12 C20 1_555 1_555
N2 C24 1_555 1_555
C21 C22 1_555 1_555
C22 H13 1_555 1_555
C23 C21 1_555 1_555
H14 C23 1_555 1_555
C24 C23 1_555 1_555
H15 C24 1_555 1_555
C25 C21 1_555 1_555
C26 C8 1_555 1_555
H16 C26 1_555 1_555
C27 N2 1_555 1_555
H17 C27 1_555 1_555
C28 C9 1_555 1_555
H18 C28 1_555 1_555
N3 C31 1_555 1_555
C29 H19 1_555 1_555
C30 C29 1_555 1_555
C31 C29 1_555 1_555
H20 C31 1_555 1_555
C32 C30 1_555 1_555
C33 C5 1_555 1_555
H21 C33 1_555 1_555
C34 C4 1_555 1_555
H22 C34 1_555 1_555
C35 N3 1_555 1_555
H23 C35 1_555 1_555
C36 C30 1_555 1_555
H24 C36 1_555 1_555
O8 C37 1_555 1_555
C37 C38 1_555 1_555
H25 O3 1_555 1_555
O4A Zn2 1_555 1_555
N2B Zn2 1_555 1_555
N3B Zn2 1_555 1_555
Zn2A O4 1_555 1_555
Zn2B N2 1_555 1_555
Zn2B_2 N3 1_555 1_555
C15 C16 1_555 1_555
C17 C19 1_555 1_555
C18 C20 1_555 1_555
C22 C27 1_555 1_555
C25 C26 1_555 1_555
C25 C28 1_555 1_555
C32 C34 1_555 1_555
C32 C33 1_555 1_555
C35 C36 1_555 1_555

#END
