
#######################################################################
#
#                 Cambridge Crystallographic Data Centre
#                                CCDC 
#
#######################################################################
#
# If this CIF has been generated from an entry in the Cambridge 
# Structural Database, then it will include bibliographic, chemical, 
# crystal, experimental, refinement or atomic coordinate data resulting 
# from the CCDC's data processing and validation procedures.
#
#######################################################################

data_ECUDEM
_symmetry_cell_setting           triclinic
_symmetry_space_group_name_H-M   'P -1'
_symmetry_Int_Tables_number      2
_space_group_name_Hall           '-P 1'
loop_
_symmetry_equiv_pos_site_id
_symmetry_equiv_pos_as_xyz
1 x,y,z
2 -x,-y,-z
_cell_length_a                   8.4310(11)
_cell_length_b                   10.841(2)
_cell_length_c                   11.11400(10)
_cell_angle_alpha                64.43(4)
_cell_angle_beta                 80.44(6)
_cell_angle_gamma                73.82(5)
_cell_volume                     878.807
loop_
_atom_site_label
_atom_site_type_symbol
_atom_site_fract_x
_atom_site_fract_y
_atom_site_fract_z
Sm1 Sm 0.25138(10) 0.99629(9) -0.00223(9)
O1 O 0.4717(15) 1.0612(13) 0.0860(12)
O2 O 0.220(2) 1.0869(16) 0.1761(16)
O3 O 0.2927(13) 1.0095(11) 0.7723(11)
O4 O -0.0009(13) 1.0512(11) 0.8689(11)
O5 O -0.215(2) 1.7628(17) 0.1115(18)
O6 O -0.183(3) 1.542(2) 0.139(2)
O7 O 0.2442(18) 0.7771(14) -0.0128(15)
O8 O 0.386(2) 0.7879(15) 0.1932(15)
C1 C 0.269(2) 1.232(2) 0.3172(19)
C2 C 0.203(2) 1.1445(18) 0.4409(17)
H1 H 0.2492 1.0462 0.4812
C3 C 0.068(2) 1.209(2) 0.5008(19)
C4 C -0.002(3) 1.353(2) 0.439(2)
H2 H -0.0976 1.3938 0.4797
C5 C 0.066(2) 1.439(2) 0.3194(19)
C6 C 0.195(3) 1.375(2) 0.261(2)
H3 H 0.2373 1.4306 0.1759
C7 C 0.413(2) 1.165(2) 0.245(2)
H4 H 0.4725 1.2380 0.1842
H5 H 0.4911 1.0916 0.3120
C8 C 0.364(2) 1.1010(19) 0.1663(18)
C9 C -0.009(3) 1.121(3) 0.630(2)
H6 H -0.0229 1.0356 0.6244
H7 H -0.1189 1.1744 0.6480
C10 C 0.1125(16) 1.077(2) 0.747(2)
C11 C -0.017(3) 1.594(2) 0.254(2)
H8 H -0.0672 1.6263 0.3250
H9 H 0.0695 1.6456 0.2046
C12 C -0.149(3) 1.633(2) 0.159(2)
Sm1A Sm 0.74862(10) 1.00371(9) 0.00223(9)
Sm1_2 Sm 0.25138(10) 0.99629(9) 0.99777(9)
Sm1A_2 Sm -0.25138(10) 1.00371(9) 1.00223(9)
Sm1A_3 Sm -0.25138(10) 2.00371(9) 0.00223(9)
O1A O 0.5283(15) 0.9388(13) -0.0860(12)
O3_2 O 0.2927(13) 1.0095(11) -0.2277(11)
O4_2 O -0.0009(13) 1.0512(11) -0.1311(11)
O4A O 0.0009(13) 0.9488(11) 0.1311(11)
O5A O 0.215(2) 1.2372(17) -0.1115(18)
O9 O 0.098(2) 0.7381(18) -0.1845(18)
O10 O 0.517(3) 0.551(3) 0.101(3)
O11 O 0.510(4) 0.799(3) 0.393(3)
O12 O 0.366(5) 0.687(4) 0.640(4)
O13 O 0.416(10) 0.544(9) 0.445(9)
loop_
_geom_bond_atom_site_label_1
_geom_bond_atom_site_label_2
_geom_bond_site_symmetry_1
_geom_bond_site_symmetry_2
Sm1 O1 1_555 1_555
O1 C8 1_555 1_555
O2 Sm1 1_555 1_555
O3 C10 1_555 1_555
O4 C10 1_555 1_555
O5 C12 1_555 1_555
O6 C12 1_555 1_555
O7 Sm1 1_555 1_555
O8 Sm1 1_555 1_555
C1 C2 1_555 1_555
C2 H1 1_555 1_555
C3 C2 1_555 1_555
C4 C3 1_555 1_555
H2 C4 1_555 1_555
C5 C4 1_555 1_555
C6 C1 1_555 1_555
H3 C6 1_555 1_555
C7 C1 1_555 1_555
H4 C7 1_555 1_555
H5 C7 1_555 1_555
C8 O2 1_555 1_555
C9 C3 1_555 1_555
H6 C9 1_555 1_555
H7 C9 1_555 1_555
C10 C9 1_555 1_555
C11 C5 1_555 1_555
H8 C11 1_555 1_555
H9 C11 1_555 1_555
C12 C11 1_555 1_555
Sm1A O1 1_555 1_555
Sm1_2 O3 1_555 1_555
Sm1A_2 O4 1_555 1_555
Sm1A_3 O5 1_555 1_555
O1A Sm1 1_555 1_555
O3_2 Sm1 1_555 1_555
O4_2 Sm1 1_555 1_555
O4A Sm1 1_555 1_555
O5A Sm1 1_555 1_555
O4 Sm1_2 1_555 1_555
C5 C6 1_555 1_555
C7 C8 1_555 1_555
Sm1A O1A 1_555 1_555

#END
