
#######################################################################
#
#                 Cambridge Crystallographic Data Centre
#                                CCDC 
#
#######################################################################
#
# If this CIF has been generated from an entry in the Cambridge 
# Structural Database, then it will include bibliographic, chemical, 
# crystal, experimental, refinement or atomic coordinate data resulting 
# from the CCDC's data processing and validation procedures.
#
#######################################################################

data_EDAFUM
_symmetry_cell_setting           monoclinic
_symmetry_space_group_name_H-M   'P 21/n'
_symmetry_Int_Tables_number      14
_space_group_name_Hall           '-P 2yn'
loop_
_symmetry_equiv_pos_site_id
_symmetry_equiv_pos_as_xyz
1 x,y,z
2 1/2-x,1/2+y,1/2-z
3 -x,-y,-z
4 1/2+x,1/2-y,1/2+z
_cell_length_a                   11.3612(7)
_cell_length_b                   9.9603(2)
_cell_length_c                   14.8001(9)
_cell_angle_alpha                90
_cell_angle_beta                 91.527(8)
_cell_angle_gamma                90
_cell_volume                     1674.2
loop_
_atom_site_label
_atom_site_type_symbol
_atom_site_fract_x
_atom_site_fract_y
_atom_site_fract_z
Co1 Co 0.25620(4) 0.07285(5) 0.13366(3)
Co2 Co 0.24057(4) -0.12129(5) 0.30515(3)
Co3 Co 0.5000 0.0000 0.0000
Co4 Co 0.0000 0.0000 0.0000
O1 O 0.3054(2) 0.1896(3) 0.24791(16)
O2 O 0.3074(3) 0.0481(3) 0.36570(18)
O3 O 0.3507(2) -0.0894(3) 0.19241(18)
O4 O 0.5154(3) -0.1181(3) 0.1158(2)
O5 O 0.1303(2) -0.0170(3) 0.21382(18)
O6 O -0.0414(3) -0.0076(4) 0.1375(2)
O7 O 0.1554(2) 0.2506(3) 0.11206(17)
O8 O 0.0171(3) 0.2064(3) 0.0055(2)
O9 O 0.1069(3) -0.1334(3) 0.39653(19)
O10 O 0.1002(2) -0.3515(3) 0.43407(18)
O11 O 0.1855(2) -0.0267(3) 0.02295(18)
O12 O 0.3491(3) -0.1057(3) -0.0390(2)
C1 C 0.3232(4) 0.1594(4) 0.3307(3)
H1 H 0.3507 0.2276 0.3687
C2 C 0.4503(4) -0.1416(5) 0.1790(3)
H2 H 0.4770 -0.2044 0.2213
C3 C 0.0193(4) -0.0287(5) 0.2056(3)
H3 H -0.0200 -0.0563 0.2567
C4 C 0.0748(4) 0.2841(4) 0.0552(3)
H4 H 0.0574 0.3751 0.0504
C5 C 0.0659(4) -0.2293(4) 0.4372(3)
H5 H 0.0032 -0.2111 0.4744
C6 C 0.2420(4) -0.1004(4) -0.0325(3)
H6 H 0.1973 -0.1548 -0.0712
Co1B Co -0.25620(4) -0.07285(5) -0.13366(3)
Co1A Co 0.24380(4) -0.42715(5) 0.36634(3)
Co1C Co -0.24380(4) 0.42715(5) -0.36634(3)
Co2B Co -0.24057(4) 0.12129(5) -0.30515(3)
Co2A Co 0.25943(4) 0.37871(5) 0.19485(3)
Co2C Co -0.25943(4) -0.37871(5) -0.19485(3)
Co3_2 Co -0.5000 0.0000 0.0000
Co3A Co 0.0000 -0.5000 0.5000
Co3A_2 Co 0.0000 0.5000 -0.5000
O1B O -0.3054(2) -0.1896(3) -0.24791(16)
O1A O 0.1946(2) -0.3104(3) 0.25209(16)
O1C O -0.1946(2) 0.3104(3) -0.25209(16)
O2B O -0.3074(3) -0.0481(3) -0.36570(18)
O3B O -0.3507(2) 0.0894(3) -0.19241(18)
O4B O -0.5154(3) 0.1181(3) -0.1158(2)
O4B_2 O 0.4846(3) 0.1181(3) -0.1158(2)
O5B O -0.1303(2) 0.0170(3) -0.21382(18)
O6B O 0.0414(3) 0.0076(4) -0.1375(2)
O7B O -0.1554(2) -0.2506(3) -0.11206(17)
O7A O 0.3446(2) -0.2494(3) 0.38794(17)
O7C O -0.3446(2) 0.2494(3) -0.38794(17)
O8B O -0.0171(3) -0.2064(3) -0.0055(2)
O9B O -0.1069(3) 0.1334(3) -0.39653(19)
O10B O -0.1002(2) 0.3515(3) -0.43407(18)
O10A O 0.3998(2) 0.1485(3) 0.06593(18)
O10C O -0.3998(2) -0.1485(3) -0.06593(18)
O10C_2 O 0.6002(2) -0.1485(3) -0.06593(18)
O11B O -0.1855(2) 0.0267(3) -0.02295(18)
O12B O -0.3491(3) 0.1057(3) 0.0390(2)
O12B_2 O 0.6509(3) 0.1057(3) 0.0390(2)
C1B C -0.3232(4) -0.1594(4) -0.3307(3)
H1B H -0.3507 -0.2276 -0.3687
C2B C -0.4503(4) 0.1416(5) -0.1790(3)
H2B H -0.4770 0.2044 -0.2213
C3B C -0.0193(4) 0.0287(5) -0.2056(3)
H3B H 0.0200 0.0563 -0.2567
C4B C -0.0748(4) -0.2841(4) -0.0552(3)
H4B H -0.0574 -0.3751 -0.0504
C5B C -0.0659(4) 0.2293(4) -0.4372(3)
H5B H -0.0032 0.2111 -0.4744
C6B C -0.2420(4) 0.1004(4) 0.0325(3)
H6B H -0.1973 0.1548 0.0712
O13 O 0.6169(13) -0.0621(14) 0.3362(8)
C7 C 0.6859(9) 0.0380(11) 0.3403(7)
C8 C 0.7830(12) 0.0107(14) 0.3996(8)
H7 H 0.7724 -0.0753 0.4276
H8 H 0.7882 0.0789 0.4454
H9 H 0.8542 0.0099 0.3661
C9 C 0.6720(16) 0.1432(17) 0.2913(10)
H10 H 0.5966 0.1395 0.2605
H11 H 0.7329 0.1472 0.2477
H12 H 0.6759 0.2216 0.3289
loop_
_geom_bond_atom_site_label_1
_geom_bond_atom_site_label_2
_geom_bond_site_symmetry_1
_geom_bond_site_symmetry_2
Co1 O1 1_555 1_555
Co2 O2 1_555 1_555
Co3 O4 1_555 1_555
Co4 O6 1_555 1_555
O1 C1 1_555 1_555
O2 C1 1_555 1_555
O3 Co1 1_555 1_555
O4 C2 1_555 1_555
O5 Co1 1_555 1_555
O6 C3 1_555 1_555
O7 Co1 1_555 1_555
O8 Co4 1_555 1_555
O9 Co2 1_555 1_555
O10 C5 1_555 1_555
O11 Co1 1_555 1_555
O12 Co3 1_555 1_555
C1 H1 1_555 1_555
C2 O3 1_555 1_555
H2 C2 1_555 1_555
C3 O5 1_555 1_555
H3 C3 1_555 1_555
C4 O7 1_555 1_555
H4 C4 1_555 1_555
C5 O9 1_555 1_555
H5 C5 1_555 1_555
C6 O11 1_555 1_555
H6 C6 1_555 1_555
O13 C7 1_555 1_555
C7 C8 1_555 1_555
C8 H7 1_555 1_555
H8 C8 1_555 1_555
H9 C8 1_555 1_555
C9 C7 1_555 1_555
H10 C9 1_555 1_555
H11 C9 1_555 1_555
H12 C9 1_555 1_555
Co1B O1B 1_555 1_555
Co1A O10 1_555 1_555
Co1C O1C 1_555 1_555
Co2B O1C 1_555 1_555
Co2A O1 1_555 1_555
Co2C O1B 1_555 1_555
Co3_2 O4B 1_555 1_555
Co3A O10 1_555 1_555
Co3A_2 O10B 1_555 1_555
O1B C1B 1_555 1_555
O1A Co2 1_555 1_555
O2B Co2B 1_555 1_555
O3B Co1B 1_555 1_555
O4B C2B 1_555 1_555
O4B_2 Co3 1_555 1_555
O5B Co1B 1_555 1_555
O6B Co4 1_555 1_555
O7B Co1B 1_555 1_555
O7A Co2 1_555 1_555
O7C Co1C 1_555 1_555
O8B Co4 1_555 1_555
O9B Co2B 1_555 1_555
O10B Co1C 1_555 1_555
O10A Co1 1_555 1_555
O10C Co1B 1_555 1_555
O10C_2 Co3 1_555 1_555
O11B Co4 1_555 1_555
O12B Co3_2 1_555 1_555
O12B_2 Co3 1_555 1_555
C1B O2B 1_555 1_555
H1B C1B 1_555 1_555
C2B O3B 1_555 1_555
H2B C2B 1_555 1_555
C3B O5B 1_555 1_555
H3B C3B 1_555 1_555
C4B O7B 1_555 1_555
H4B C4B 1_555 1_555
C5B O9B 1_555 1_555
H5B C5B 1_555 1_555
C6B O11B 1_555 1_555
H6B C6B 1_555 1_555
Co2 O3 1_555 1_555
Co2 O5 1_555 1_555
Co3 O10A 1_555 1_555
Co4 O11 1_555 1_555
O7 Co2A 1_555 1_555
O8 C4 1_555 1_555
O12 C6 1_555 1_555
Co1B O11B 1_555 1_555
Co1A O1A 1_555 1_555
Co1A O7A 1_555 1_555
Co2B O3B 1_555 1_555
Co2B O5B 1_555 1_555
Co2B O7C 1_555 1_555
Co2C O7B 1_555 1_555
Co3_2 O10C 1_555 1_555
O6B C3B 1_555 1_555
O8B C4B 1_555 1_555
O10B C5B 1_555 1_555
O12B C6B 1_555 1_555

#END
