
#######################################################################
#
#                 Cambridge Crystallographic Data Centre
#                                CCDC 
#
#######################################################################
#
# If this CIF has been generated from an entry in the Cambridge 
# Structural Database, then it will include bibliographic, chemical, 
# crystal, experimental, refinement or atomic coordinate data resulting 
# from the CCDC's data processing and validation procedures.
#
#######################################################################

data_EDUVII
_symmetry_cell_setting           cubic
_symmetry_space_group_name_H-M   'F m -3 m'
_symmetry_Int_Tables_number      225
_space_group_name_Hall           '-F 4 2 3'
loop_
_symmetry_equiv_pos_site_id
_symmetry_equiv_pos_as_xyz
1 x,y,z
2 z,x,y
3 y,z,x
4 y,x,-z
5 y,-x,z
6 -y,x,z
7 x,z,-y
8 -x,z,y
9 x,-z,y
10 z,y,-x
11 z,-y,x
12 -z,y,x
13 x,1/2+y,1/2+z
14 z,1/2+x,1/2+y
15 y,1/2+z,1/2+x
16 y,1/2+x,1/2-z
17 y,1/2-x,1/2+z
18 -y,1/2+x,1/2+z
19 x,1/2+z,1/2-y
20 -x,1/2+z,1/2+y
21 x,1/2-z,1/2+y
22 z,1/2+y,1/2-x
23 z,1/2-y,1/2+x
24 -z,1/2+y,1/2+x
25 1/2+x,y,1/2+z
26 1/2+z,x,1/2+y
27 1/2+y,z,1/2+x
28 1/2+y,x,1/2-z
29 1/2+y,-x,1/2+z
30 1/2-y,x,1/2+z
31 1/2+x,z,1/2-y
32 1/2-x,z,1/2+y
33 1/2+x,-z,1/2+y
34 1/2+z,y,1/2-x
35 1/2+z,-y,1/2+x
36 1/2-z,y,1/2+x
37 1/2+x,1/2+y,z
38 1/2+z,1/2+x,y
39 1/2+y,1/2+z,x
40 1/2+y,1/2+x,-z
41 1/2+y,1/2-x,z
42 1/2-y,1/2+x,z
43 1/2+x,1/2+z,-y
44 1/2-x,1/2+z,y
45 1/2+x,1/2-z,y
46 1/2+z,1/2+y,-x
47 1/2+z,1/2-y,x
48 1/2-z,1/2+y,x
49 x,y,-z
50 x,-y,z
51 -x,y,z
52 -z,x,y
53 z,x,-y
54 z,-x,y
55 y,-z,x
56 -y,z,x
57 y,z,-x
58 y,x,z
59 x,z,y
60 z,y,x
61 x,1/2+y,1/2-z
62 x,1/2-y,1/2+z
63 -x,1/2+y,1/2+z
64 -z,1/2+x,1/2+y
65 z,1/2+x,1/2-y
66 z,1/2-x,1/2+y
67 y,1/2-z,1/2+x
68 -y,1/2+z,1/2+x
69 y,1/2+z,1/2-x
70 y,1/2+x,1/2+z
71 x,1/2+z,1/2+y
72 z,1/2+y,1/2+x
73 1/2+x,y,1/2-z
74 1/2+x,-y,1/2+z
75 1/2-x,y,1/2+z
76 1/2-z,x,1/2+y
77 1/2+z,x,1/2-y
78 1/2+z,-x,1/2+y
79 1/2+y,-z,1/2+x
80 1/2-y,z,1/2+x
81 1/2+y,z,1/2-x
82 1/2+y,x,1/2+z
83 1/2+x,z,1/2+y
84 1/2+z,y,1/2+x
85 1/2+x,1/2+y,-z
86 1/2+x,1/2-y,z
87 1/2-x,1/2+y,z
88 1/2-z,1/2+x,y
89 1/2+z,1/2+x,-y
90 1/2+z,1/2-x,y
91 1/2+y,1/2-z,x
92 1/2-y,1/2+z,x
93 1/2+y,1/2+z,-x
94 1/2+y,1/2+x,z
95 1/2+x,1/2+z,y
96 1/2+z,1/2+y,x
97 -x,-y,-z
98 -z,-x,-y
99 -y,-z,-x
100 -y,-x,z
101 -y,x,-z
102 y,-x,-z
103 -x,-z,y
104 x,-z,-y
105 -x,z,-y
106 -z,-y,x
107 -z,y,-x
108 z,-y,-x
109 -x,1/2-y,1/2-z
110 -z,1/2-x,1/2-y
111 -y,1/2-z,1/2-x
112 -y,1/2-x,1/2+z
113 -y,1/2+x,1/2-z
114 y,1/2-x,1/2-z
115 -x,1/2-z,1/2+y
116 x,1/2-z,1/2-y
117 -x,1/2+z,1/2-y
118 -z,1/2-y,1/2+x
119 -z,1/2+y,1/2-x
120 z,1/2-y,1/2-x
121 1/2-x,-y,1/2-z
122 1/2-z,-x,1/2-y
123 1/2-y,-z,1/2-x
124 1/2-y,-x,1/2+z
125 1/2-y,x,1/2-z
126 1/2+y,-x,1/2-z
127 1/2-x,-z,1/2+y
128 1/2+x,-z,1/2-y
129 1/2-x,z,1/2-y
130 1/2-z,-y,1/2+x
131 1/2-z,y,1/2-x
132 1/2+z,-y,1/2-x
133 1/2-x,1/2-y,-z
134 1/2-z,1/2-x,-y
135 1/2-y,1/2-z,-x
136 1/2-y,1/2-x,z
137 1/2-y,1/2+x,-z
138 1/2+y,1/2-x,-z
139 1/2-x,1/2-z,y
140 1/2+x,1/2-z,-y
141 1/2-x,1/2+z,-y
142 1/2-z,1/2-y,x
143 1/2-z,1/2+y,-x
144 1/2+z,1/2-y,-x
145 -x,-y,z
146 -x,y,-z
147 x,-y,-z
148 z,-x,-y
149 -z,-x,y
150 -z,x,-y
151 -y,z,-x
152 y,-z,-x
153 -y,-z,x
154 -y,-x,-z
155 -x,-z,-y
156 -z,-y,-x
157 -x,1/2-y,1/2+z
158 -x,1/2+y,1/2-z
159 x,1/2-y,1/2-z
160 z,1/2-x,1/2-y
161 -z,1/2-x,1/2+y
162 -z,1/2+x,1/2-y
163 -y,1/2+z,1/2-x
164 y,1/2-z,1/2-x
165 -y,1/2-z,1/2+x
166 -y,1/2-x,1/2-z
167 -x,1/2-z,1/2-y
168 -z,1/2-y,1/2-x
169 1/2-x,-y,1/2+z
170 1/2-x,y,1/2-z
171 1/2+x,-y,1/2-z
172 1/2+z,-x,1/2-y
173 1/2-z,-x,1/2+y
174 1/2-z,x,1/2-y
175 1/2-y,z,1/2-x
176 1/2+y,-z,1/2-x
177 1/2-y,-z,1/2+x
178 1/2-y,-x,1/2-z
179 1/2-x,-z,1/2-y
180 1/2-z,-y,1/2-x
181 1/2-x,1/2-y,z
182 1/2-x,1/2+y,-z
183 1/2+x,1/2-y,-z
184 1/2+z,1/2-x,-y
185 1/2-z,1/2-x,y
186 1/2-z,1/2+x,-y
187 1/2-y,1/2+z,-x
188 1/2+y,1/2-z,-x
189 1/2-y,1/2-z,x
190 1/2-y,1/2-x,-z
191 1/2-x,1/2-z,-y
192 1/2-z,1/2-y,-x
_cell_length_a                   34.2807(18)
_cell_length_b                   34.2807(18)
_cell_length_c                   34.2807(18)
_cell_angle_alpha                90
_cell_angle_beta                 90
_cell_angle_gamma                90
_cell_volume                     40285.5
loop_
_atom_site_label
_atom_site_type_symbol
_atom_site_fract_x
_atom_site_fract_y
_atom_site_fract_z
Zn1 Zn 0.21728(7) 0.21728(7) 0.21728(7)
O1 O 0.2500 0.2500 0.2500
O2 O 0.2280(3) 0.2280(3) 0.1623(4)
C1 C 0.2500 0.2500 0.1459(15)
C2 C 0.2500 0.2500 0.1024(14)
C3 C 0.2267(5) 0.2267(5) 0.0793(9)
H1 H 0.2094 0.2094 0.0923
C4 C 0.2262(5) 0.2262(5) 0.0387(9)
C5 C 0.2500 0.2500 0.0203(9)
C6 C 0.191(2) 0.212(2) 0.0185(8)
O2A O 0.1623(4) 0.2280(3) 0.2280(3)
O2B O 0.2280(3) 0.1623(4) 0.2280(3)
Zn1TD Zn 0.28272(7) 0.21728(7) 0.28272(7)
Zn1KD Zn 0.21728(7) 0.28272(7) 0.28272(7)
Zn1KE Zn 0.28272(7) 0.28272(7) 0.21728(7)
O2EE O 0.2720(3) 0.2720(3) 0.1623(4)
C3EE C 0.2733(5) 0.2733(5) 0.0793(9)
C6EB C 0.212(2) 0.191(2) 0.0185(8)
C5C C 0.2500 0.2500 -0.0203(9)
C4EE C 0.2738(5) 0.2738(5) 0.0387(9)
C6C C 0.212(2) 0.191(2) -0.0185(8)
C6VA C 0.191(2) 0.212(2) -0.0185(8)
C7 C 0.3223(12) 0.1777(12) 0.1777(12)
loop_
_geom_bond_atom_site_label_1
_geom_bond_atom_site_label_2
_geom_bond_site_symmetry_1
_geom_bond_site_symmetry_2
Zn1 O1 1_555 1_555
O1 Zn1TD 1_555 1_555
O2 Zn1 1_555 1_555
C1 O2 1_555 1_555
C2 C1 1_555 1_555
C3 C2 1_555 1_555
H1 C3 1_555 1_555
C4 C3 1_555 1_555
C5 C4 1_555 1_555
C6 C4 1_555 1_555
O2A Zn1 1_555 1_555
O2B Zn1 1_555 1_555
Zn1KD O1 1_555 1_555
Zn1KE O1 1_555 1_555
O2EE C1 1_555 1_555
C3EE C2 1_555 1_555
C6EB C4 1_555 1_555
C5C C5 1_555 1_555
C4EE C5 1_555 1_555
C6C C6 1_555 1_555
C6VA C6 1_555 1_555
C6 C6EB 1_555 1_555
Zn1KE O2EE 1_555 1_555
C3EE C4EE 1_555 1_555
C6EB C6VA 1_555 1_555
C6EB C6C 1_555 1_555
C6C C6VA 1_555 1_555

#END
