
#######################################################################
#
#                 Cambridge Crystallographic Data Centre
#                                CCDC 
#
#######################################################################
#
# If this CIF has been generated from an entry in the Cambridge 
# Structural Database, then it will include bibliographic, chemical, 
# crystal, experimental, refinement or atomic coordinate data resulting 
# from the CCDC's data processing and validation procedures.
#
#######################################################################

data_EFESOZ
_symmetry_cell_setting           tetragonal
_symmetry_space_group_name_H-M   'P -4 21 c'
_symmetry_Int_Tables_number      114
_space_group_name_Hall           'P -4 2n'
loop_
_symmetry_equiv_pos_site_id
_symmetry_equiv_pos_as_xyz
1 x,y,z
2 1/2+x,1/2-y,1/2-z
3 -x,-y,z
4 1/2-x,1/2+y,1/2-z
5 1/2-y,1/2-x,1/2+z
6 -y,x,-z
7 y,-x,-z
8 1/2+y,1/2+x,1/2+z
_cell_length_a                   25.122(4)
_cell_length_b                   25.122(4)
_cell_length_c                   23.412(5)
_cell_angle_alpha                90
_cell_angle_beta                 90
_cell_angle_gamma                90
_cell_volume                     14775.7
loop_
_atom_site_label
_atom_site_type_symbol
_atom_site_fract_x
_atom_site_fract_y
_atom_site_fract_z
C1 C 0.598(4) 0.150(4) 0.120(3)
C2 C 0.610(3) 0.198(4) 0.154(3)
C3 C 0.578(4) 0.224(4) 0.185(4)
H1 H 0.544 0.2098 0.19
C4 C 0.7346 0.4658 0.1763
H2 H 0.7061 0.4668 0.1484
H3 H 0.7557 0.4339 0.1709
C5 C 0.7702 0.5188 0.1749
H4 H 0.7843 0.528 0.2122
H5 H 0.7988 0.5168 0.1472
C6 C 0.751(10) 0.601(6) 0.143(16)
H6 H 0.749 0.6041 0.1021
H7 H 0.7889 0.5992 0.1526
C7 C 0.732(17) 0.650(9) 0.166(11)
H8 H 0.6965 0.6551 0.1519
H9 H 0.7543 0.6781 0.151
C8 C 0.704(5) 0.655(3) 0.401(6)
H10 H 0.6662 0.6509 0.4101
H11 H 0.7156 0.6897 0.4148
C9 C 0.740(9) 0.607(3) 0.427(9)
H12 H 0.7739 0.6036 0.4077
H13 H 0.7452 0.6101 0.4677
C10 C 0.730(6) 0.514(4) 0.424(5)
H14 H 0.7358 0.5109 0.4647
H15 H 0.7648 0.5153 0.4051
C11 C 0.699(4) 0.471(3) 0.402(5)
H16 H 0.7117 0.4372 0.417
H17 H 0.6617 0.475 0.4139
C12 C 0.645(4) 0.824(3) 0.207(3)
C13 C 0.594(4) 0.830(4) 0.192(4)
H18 H 0.5682 0.8061 0.2052
C14 C 0.580(5) 0.874(5) 0.156(4)
H19 H 0.5454 0.8774 0.1432
C15 C 0.615(3) 0.910(4) 0.140(3)
C16 C 0.664(5) 0.907(4) 0.158(4)
H20 H 0.6868 0.9344 0.1493
C17 C 0.685(5) 0.862(4) 0.192(4)
H21 H 0.7204 0.8586 0.2019
C18 C 0.599(4) 0.959(5) 0.106(3)
C19 C 0.4994 0.1925 0.0117
H22 H 0.5189 0.1842 0.0443
C20 C 0.4401 0.2383 0.0691
H23 H 0.4176 0.269 0.0721
H24 H 0.4666 0.2394 0.0987
H25 H 0.4191 0.2067 0.0731
C21 C 0.4365 0.2582 -0.0394
H26 H 0.4602 0.2555 -0.0715
H27 H 0.4261 0.2947 -0.0343
H28 H 0.4055 0.2368 -0.0462
C22 C 0.551(4) 0.099(5) -0.169(3)
H29 H 0.5871 0.1033 -0.16
C23 C 0.4854 0.0937 -0.2398
H30 H 0.4803 0.0801 -0.2777
H31 H 0.4788 0.1313 -0.2395
H32 H 0.4612 0.0764 -0.2141
C24 C 0.573(6) 0.070(9) -0.269(5)
H33 H 0.5519 0.0587 -0.3009
H34 H 0.596 0.0409 -0.2576
H35 H 0.5943 0.0999 -0.2795
N1 N 0.4654 0.2382 0.0153
N2 N 0.539(4) 0.084(7) -0.222(4)
O1 O 0.634(2) 0.122(2) 0.100(2)
O2 O 0.548(2) 0.138(3) 0.118(2)
O3 O 0.716(3) 0.470(3) 0.231(3)
O4 O 0.729(5) 0.553(5) 0.158(6)
O5 O 0.731(3) 0.654(2) 0.226(3)
O6 O 0.712(3) 0.651(2) 0.342(3)
O7 O 0.702(3) 0.560(2) 0.412(3)
O8 O 0.703(3) 0.472(2) 0.341(3)
O9 O 0.563(2) 0.166(2) 0.490(2)
O10 O 0.621(2) 0.116(2) 0.444(2)
O11 O 0.5456(19) 0.9600(19) 0.465(2)
O12 O 0.477(2) 0.927(3) 0.422(2)
O13 O 0.633(2) 0.991(3) 0.092(2)
O14 O 0.549(2) 0.962(2) 0.0934(19)
O15 O 0.5054 0.1643 -0.0281
O16 O 0.517(2) 0.106(3) -0.132(2)
C25 C 0.661(5) 0.220(4) 0.152(5)
H36 H 0.6882 0.2019 0.1319
C26 C 0.672(4) 0.268(4) 0.179(4)
H37 H 0.704 0.2842 0.1718
C27 C 0.640(4) 0.291(4) 0.213(4)
C28 C 0.591(8) 0.273(4) 0.214(5)
H38 H 0.5643 0.2914 0.2335
C29 C 0.656(4) 0.338(4) 0.248(3)
C30 C 0.678(4) 0.382(4) 0.224(4)
H39 H 0.6844 0.3817 0.1851
C31 C 0.692(4) 0.425(3) 0.252(5)
C32 C 0.685(5) 0.425(4) 0.313(4)
C33 C 0.661(4) 0.385(3) 0.341(4)
H40 H 0.6541 0.3877 0.3797
C34 C 0.645(4) 0.338(3) 0.309(4)
C35 C 0.633(4) 0.291(4) 0.342(3)
C36 C 0.592(6) 0.293(4) 0.381(4)
H41 H 0.5712 0.3229 0.3849
C37 C 0.583(4) 0.249(5) 0.413(3)
H42 H 0.556 0.251 0.4406
C38 C 0.607(4) 0.205(2) 0.410(3)
C39 C 0.645(4) 0.201(3) 0.371(3)
H43 H 0.6638 0.1696 0.3674
C40 C 0.658(4) 0.244(3) 0.335(3)
H44 H 0.6837 0.239 0.3067
C41 C 0.596(4) 0.157(4) 0.450(3)
C42 C 0.696(5) 0.691(4) 0.312(3)
C43 C 0.705(6) 0.693(3) 0.251(4)
C44 C 0.686(4) 0.733(5) 0.222(4)
H45 H 0.6875 0.7297 0.1828
C45 C 0.662(4) 0.781(3) 0.244(3)
C46 C 0.651(3) 0.778(4) 0.303(3)
C47 C 0.667(3) 0.735(3) 0.337(4)
H46 H 0.6588 0.7348 0.3753
C48 C 0.618(4) 0.820(3) 0.330(3)
C49 C 0.567(5) 0.817(4) 0.329(5)
H47 H 0.5506 0.7926 0.3058
C50 C 0.535(4) 0.852(5) 0.364(5)
H48 H 0.4987 0.8466 0.3664
C51 C 0.560(3) 0.894(3) 0.395(3)
C52 C 0.614(4) 0.897(3) 0.396(3)
H49 H 0.6328 0.9191 0.4205
C53 C 0.641(4) 0.861(4) 0.356(7)
H50 H 0.6765 0.8683 0.3469
C54 C 0.526(3) 0.929(3) 0.429(3)
O17 O 0.546(2) 0.065(2) 0.033(2)
Zn1 Zn 0.5375(3) 0.0930(4) -0.0485(4)
Zn2 Zn 0.6193(3) 0.0582(4) 0.0545(3)
Zn3 Zn 0.5000 0.0000 0.0325(4)
C1B C 0.402(4) -0.150(4) 0.120(3)
C2B C 0.390(3) -0.198(4) 0.154(3)
C3B C 0.422(4) -0.224(4) 0.185(4)
H1B H 0.456 -0.2098 0.19
C4B C 0.2654 -0.4658 0.1763
H2B H 0.2939 -0.4668 0.1484
H3B H 0.2443 -0.4339 0.1709
C5B C 0.2298 -0.5188 0.1749
H4B H 0.2157 -0.528 0.2122
H5B H 0.2012 -0.5168 0.1472
C6B C 0.249(10) -0.601(6) 0.143(16)
H6B H 0.251 -0.6041 0.1021
H7B H 0.2111 -0.5992 0.1526
C7B C 0.268(17) -0.650(9) 0.166(11)
H8B H 0.3035 -0.6551 0.1519
H9B H 0.2457 -0.6781 0.151
C8B C 0.296(5) -0.655(3) 0.401(6)
H10B H 0.3338 -0.6509 0.4101
H11B H 0.2844 -0.6897 0.4148
C9B C 0.260(9) -0.607(3) 0.427(9)
H12B H 0.2261 -0.6036 0.4077
H13B H 0.2548 -0.6101 0.4677
C10B C 0.270(6) -0.514(4) 0.424(5)
H14B H 0.2642 -0.5109 0.4647
H15B H 0.2352 -0.5153 0.4051
C11B C 0.301(4) -0.471(3) 0.402(5)
H16B H 0.2883 -0.4372 0.417
H17B H 0.3383 -0.475 0.4139
C12B C 0.355(4) -0.824(3) 0.207(3)
C13B C 0.406(4) -0.830(4) 0.192(4)
H18B H 0.4318 -0.8061 0.2052
C14B C 0.420(5) -0.874(5) 0.156(4)
H19B H 0.4546 -0.8774 0.1432
C15B C 0.385(3) -0.910(4) 0.140(3)
C16B C 0.336(5) -0.907(4) 0.158(4)
H20B H 0.3132 -0.9344 0.1493
C17B C 0.315(5) -0.862(4) 0.192(4)
H21B H 0.2796 -0.8586 0.2019
C18B C 0.401(4) -0.959(5) 0.106(3)
C19B C 0.5006 -0.1925 0.0117
H22B H 0.4811 -0.1842 0.0443
C20B C 0.5599 -0.2383 0.0691
H23B H 0.5824 -0.269 0.0721
H24B H 0.5334 -0.2394 0.0987
H25B H 0.5809 -0.2067 0.0731
C21B C 0.5635 -0.2582 -0.0394
H26B H 0.5398 -0.2555 -0.0715
H27B H 0.5739 -0.2947 -0.0343
H28B H 0.5945 -0.2368 -0.0462
C22B C 0.449(4) -0.099(5) -0.169(3)
H29B H 0.4129 -0.1033 -0.16
C23B C 0.5146 -0.0937 -0.2398
H30B H 0.5197 -0.0801 -0.2777
H31B H 0.5212 -0.1313 -0.2395
H32B H 0.5388 -0.0764 -0.2141
C24B C 0.427(6) -0.070(9) -0.269(5)
H33B H 0.4481 -0.0587 -0.3009
H34B H 0.404 -0.0409 -0.2576
H35B H 0.4057 -0.0999 -0.2795
N1B N 0.5346 -0.2382 0.0153
N2B N 0.461(4) -0.084(7) -0.222(4)
O1B O 0.366(2) -0.122(2) 0.100(2)
O2B O 0.452(2) -0.138(3) 0.118(2)
O3B O 0.284(3) -0.470(3) 0.231(3)
O4B O 0.271(5) -0.553(5) 0.158(6)
O5B O 0.269(3) -0.654(2) 0.226(3)
O6B O 0.288(3) -0.651(2) 0.342(3)
O7B O 0.298(3) -0.560(2) 0.412(3)
O8B O 0.297(3) -0.472(2) 0.341(3)
O9B O 0.437(2) -0.166(2) 0.490(2)
O10B O 0.379(2) -0.116(2) 0.444(2)
O11B O 0.4544(19) -0.9600(19) 0.465(2)
O12B O 0.523(2) -0.927(3) 0.422(2)
O13B O 0.367(2) -0.991(3) 0.092(2)
O14B O 0.451(2) -0.962(2) 0.0934(19)
O15B O 0.4946 -0.1643 -0.0281
O16B O 0.483(2) -0.106(3) -0.132(2)
C25B C 0.339(5) -0.220(4) 0.152(5)
H36B H 0.3118 -0.2019 0.1319
C26B C 0.328(4) -0.268(4) 0.179(4)
H37B H 0.296 -0.2842 0.1718
C27B C 0.360(4) -0.291(4) 0.213(4)
C28B C 0.409(8) -0.273(4) 0.214(5)
H38B H 0.4357 -0.2914 0.2335
C29B C 0.344(4) -0.338(4) 0.248(3)
C30B C 0.322(4) -0.382(4) 0.224(4)
H39B H 0.3156 -0.3817 0.1851
C31B C 0.308(4) -0.425(3) 0.252(5)
C32B C 0.315(5) -0.425(4) 0.313(4)
C33B C 0.339(4) -0.385(3) 0.341(4)
H40B H 0.3459 -0.3877 0.3797
C34B C 0.355(4) -0.338(3) 0.309(4)
C35B C 0.367(4) -0.291(4) 0.342(3)
C36B C 0.408(6) -0.293(4) 0.381(4)
H41B H 0.4288 -0.3229 0.3849
C37B C 0.417(4) -0.249(5) 0.413(3)
H42B H 0.444 -0.251 0.4406
C38B C 0.393(4) -0.205(2) 0.410(3)
C39B C 0.355(4) -0.201(3) 0.371(3)
H43B H 0.3362 -0.1696 0.3674
C40B C 0.342(4) -0.244(3) 0.335(3)
H44B H 0.3163 -0.239 0.3067
C41B C 0.404(4) -0.157(4) 0.450(3)
C42B C 0.304(5) -0.691(4) 0.312(3)
C43B C 0.295(6) -0.693(3) 0.251(4)
C44B C 0.314(4) -0.733(5) 0.222(4)
H45B H 0.3125 -0.7297 0.1828
C45B C 0.338(4) -0.781(3) 0.244(3)
C46B C 0.349(3) -0.778(4) 0.303(3)
C47B C 0.333(3) -0.735(3) 0.337(4)
H46B H 0.3412 -0.7348 0.3753
C48B C 0.382(4) -0.820(3) 0.330(3)
C49B C 0.433(5) -0.817(4) 0.329(5)
H47B H 0.4494 -0.7926 0.3058
C50B C 0.465(4) -0.852(5) 0.364(5)
H48B H 0.5013 -0.8466 0.3664
C51B C 0.440(3) -0.894(3) 0.395(3)
C52B C 0.386(4) -0.897(3) 0.396(3)
H49B H 0.3672 -0.9191 0.4205
C53B C 0.359(4) -0.861(4) 0.356(7)
H50B H 0.3235 -0.8683 0.3469
C54B C 0.474(3) -0.929(3) 0.429(3)
O17B O 0.454(2) -0.065(2) 0.033(2)
Zn1B Zn 0.4625(3) -0.0930(4) -0.0485(4)
Zn2B Zn 0.3807(3) -0.0582(4) 0.0545(3)
O9D O 0.334(2) -0.063(2) -0.010(2)
O9G O 0.666(2) 0.063(2) -0.010(2)
O10D O 0.384(2) -0.121(2) -0.056(2)
O10G O 0.616(2) 0.121(2) -0.056(2)
O11D O 0.5400(19) -0.0456(19) -0.035(2)
O11G O 0.4600(19) 0.0456(19) -0.035(2)
O12D O 0.573(3) 0.023(2) -0.078(2)
O12G O 0.427(3) -0.023(2) -0.078(2)
O13_2 O 0.633(2) -0.009(3) 0.092(2)
O13B_2 O 0.367(2) 0.009(3) 0.092(2)
O14_2 O 0.549(2) -0.038(2) 0.0934(19)
O14B_2 O 0.451(2) 0.038(2) 0.0934(19)
Zn1D Zn 0.4070(4) -1.0375(3) 0.4515(4)
Zn1D_2 Zn 0.4070(4) -0.0375(3) 0.4515(4)
Zn1D_3 Zn 0.4070(4) 0.9625(3) 0.4515(4)
Zn1G Zn 0.5930(4) -0.9625(3) 0.4515(4)
Zn1G_2 Zn 0.5930(4) 0.0375(3) 0.4515(4)
Zn1G_3 Zn 0.5930(4) 1.0375(3) 0.4515(4)
Zn2_2 Zn 0.6193(3) 1.0582(4) 0.0545(3)
Zn2B_2 Zn 0.3807(3) -1.0582(4) 0.0545(3)
Zn2D Zn 0.4418(4) -0.1193(3) 0.5545(3)
Zn2G Zn 0.5582(4) 0.1193(3) 0.5545(3)
Zn3_2 Zn 0.5000 -1.0000 0.0325(4)
Zn3_3 Zn 0.5000 1.0000 0.0325(4)
Zn3D Zn 0.5000 -1.0000 0.5325(4)
Zn3D_2 Zn 0.5000 1.0000 0.5325(4)
N3 N 0.7802 0.5615 0.276
Cl1 Cl 0.720(11) 0.853(8) 0.012(5)
loop_
_geom_bond_atom_site_label_1
_geom_bond_atom_site_label_2
_geom_bond_site_symmetry_1
_geom_bond_site_symmetry_2
C1 C2 1_555 1_555
C2 C3 1_555 1_555
C3 H1 1_555 1_555
C4 H2 1_555 1_555
H3 C4 1_555 1_555
C5 C4 1_555 1_555
H4 C5 1_555 1_555
H5 C5 1_555 1_555
C6 H6 1_555 1_555
H7 C6 1_555 1_555
C7 C6 1_555 1_555
H8 C7 1_555 1_555
H9 C7 1_555 1_555
C8 H10 1_555 1_555
H11 C8 1_555 1_555
C9 C8 1_555 1_555
H12 C9 1_555 1_555
H13 C9 1_555 1_555
C10 H14 1_555 1_555
H15 C10 1_555 1_555
C11 C10 1_555 1_555
H16 C11 1_555 1_555
H17 C11 1_555 1_555
C12 C13 1_555 1_555
C13 H18 1_555 1_555
C14 C13 1_555 1_555
H19 C14 1_555 1_555
C15 C14 1_555 1_555
C16 C15 1_555 1_555
H20 C16 1_555 1_555
C17 C12 1_555 1_555
H21 C17 1_555 1_555
C18 C15 1_555 1_555
C19 H22 1_555 1_555
C20 H23 1_555 1_555
H24 C20 1_555 1_555
H25 C20 1_555 1_555
C21 H26 1_555 1_555
H27 C21 1_555 1_555
H28 C21 1_555 1_555
C22 H29 1_555 1_555
C23 H30 1_555 1_555
H31 C23 1_555 1_555
H32 C23 1_555 1_555
C24 H33 1_555 1_555
H34 C24 1_555 1_555
H35 C24 1_555 1_555
N1 C19 1_555 1_555
N2 C22 1_555 1_555
O1 C1 1_555 1_555
O2 C1 1_555 1_555
O3 C4 1_555 1_555
O4 C5 1_555 1_555
O5 C7 1_555 1_555
O6 C8 1_555 1_555
O7 C9 1_555 1_555
O8 C11 1_555 1_555
O9 C41 1_555 1_555
O10 C41 1_555 1_555
O11 C54 1_555 1_555
O12 C54 1_555 1_555
O13 C18 1_555 1_555
O14 C18 1_555 1_555
O15 C19 1_555 1_555
O16 C22 1_555 1_555
C25 C2 1_555 1_555
H36 C25 1_555 1_555
C26 C25 1_555 1_555
H37 C26 1_555 1_555
C27 C26 1_555 1_555
C28 C3 1_555 1_555
H38 C28 1_555 1_555
C29 C27 1_555 1_555
C30 C29 1_555 1_555
H39 C30 1_555 1_555
C31 O3 1_555 1_555
C32 O8 1_555 1_555
C33 C32 1_555 1_555
H40 C33 1_555 1_555
C34 C29 1_555 1_555
C35 C34 1_555 1_555
C36 C35 1_555 1_555
H41 C36 1_555 1_555
C37 C36 1_555 1_555
H42 C37 1_555 1_555
C38 C37 1_555 1_555
C39 C38 1_555 1_555
H43 C39 1_555 1_555
C40 C35 1_555 1_555
H44 C40 1_555 1_555
C41 C38 1_555 1_555
C42 O6 1_555 1_555
C43 O5 1_555 1_555
C44 C43 1_555 1_555
H45 C44 1_555 1_555
C45 C12 1_555 1_555
C46 C45 1_555 1_555
C47 C42 1_555 1_555
H46 C47 1_555 1_555
C48 C46 1_555 1_555
C49 C48 1_555 1_555
H47 C49 1_555 1_555
C50 C49 1_555 1_555
H48 C50 1_555 1_555
C51 C50 1_555 1_555
C52 C51 1_555 1_555
H49 C52 1_555 1_555
C53 C48 1_555 1_555
H50 C53 1_555 1_555
C54 C51 1_555 1_555
O17 Zn1 1_555 1_555
Zn1 O15 1_555 1_555
Zn2 O1 1_555 1_555
Zn3 O17 1_555 1_555
C1B C2B 1_555 1_555
C2B C3B 1_555 1_555
C3B H1B 1_555 1_555
C4B H2B 1_555 1_555
H3B C4B 1_555 1_555
C5B C4B 1_555 1_555
H4B C5B 1_555 1_555
H5B C5B 1_555 1_555
C6B H6B 1_555 1_555
H7B C6B 1_555 1_555
C7B C6B 1_555 1_555
H8B C7B 1_555 1_555
H9B C7B 1_555 1_555
C8B H10B 1_555 1_555
H11B C8B 1_555 1_555
C9B C8B 1_555 1_555
H12B C9B 1_555 1_555
H13B C9B 1_555 1_555
C10B H14B 1_555 1_555
H15B C10B 1_555 1_555
C11B C10B 1_555 1_555
H16B C11B 1_555 1_555
H17B C11B 1_555 1_555
C12B C13B 1_555 1_555
C13B H18B 1_555 1_555
C14B C13B 1_555 1_555
H19B C14B 1_555 1_555
C15B C14B 1_555 1_555
C16B C15B 1_555 1_555
H20B C16B 1_555 1_555
C17B C12B 1_555 1_555
H21B C17B 1_555 1_555
C18B C15B 1_555 1_555
C19B H22B 1_555 1_555
C20B H23B 1_555 1_555
H24B C20B 1_555 1_555
H25B C20B 1_555 1_555
C21B H26B 1_555 1_555
H27B C21B 1_555 1_555
H28B C21B 1_555 1_555
C22B H29B 1_555 1_555
C23B H30B 1_555 1_555
H31B C23B 1_555 1_555
H32B C23B 1_555 1_555
C24B H33B 1_555 1_555
H34B C24B 1_555 1_555
H35B C24B 1_555 1_555
N1B C19B 1_555 1_555
N2B C22B 1_555 1_555
O1B C1B 1_555 1_555
O2B C1B 1_555 1_555
O3B C4B 1_555 1_555
O4B C5B 1_555 1_555
O5B C7B 1_555 1_555
O6B C8B 1_555 1_555
O7B C9B 1_555 1_555
O8B C11B 1_555 1_555
O9B C41B 1_555 1_555
O10B C41B 1_555 1_555
O11B C54B 1_555 1_555
O12B C54B 1_555 1_555
O13B C18B 1_555 1_555
O14B C18B 1_555 1_555
O15B C19B 1_555 1_555
O16B C22B 1_555 1_555
C25B C2B 1_555 1_555
H36B C25B 1_555 1_555
C26B C25B 1_555 1_555
H37B C26B 1_555 1_555
C27B C26B 1_555 1_555
C28B C3B 1_555 1_555
H38B C28B 1_555 1_555
C29B C27B 1_555 1_555
C30B C29B 1_555 1_555
H39B C30B 1_555 1_555
C31B O3B 1_555 1_555
C32B O8B 1_555 1_555
C33B C32B 1_555 1_555
H40B C33B 1_555 1_555
C34B C29B 1_555 1_555
C35B C34B 1_555 1_555
C36B C35B 1_555 1_555
H41B C36B 1_555 1_555
C37B C36B 1_555 1_555
H42B C37B 1_555 1_555
C38B C37B 1_555 1_555
C39B C38B 1_555 1_555
H43B C39B 1_555 1_555
C40B C35B 1_555 1_555
H44B C40B 1_555 1_555
C41B C38B 1_555 1_555
C42B O6B 1_555 1_555
C43B O5B 1_555 1_555
C44B C43B 1_555 1_555
H45B C44B 1_555 1_555
C45B C12B 1_555 1_555
C46B C45B 1_555 1_555
C47B C42B 1_555 1_555
H46B C47B 1_555 1_555
C48B C46B 1_555 1_555
C49B C48B 1_555 1_555
H47B C49B 1_555 1_555
C50B C49B 1_555 1_555
H48B C50B 1_555 1_555
C51B C50B 1_555 1_555
C52B C51B 1_555 1_555
H49B C52B 1_555 1_555
C53B C48B 1_555 1_555
H50B C53B 1_555 1_555
C54B C51B 1_555 1_555
O17B Zn3 1_555 1_555
Zn1B O15B 1_555 1_555
Zn2B O1B 1_555 1_555
O9D Zn2B 1_555 1_555
O9G Zn2 1_555 1_555
O10D Zn1B 1_555 1_555
O10G Zn1 1_555 1_555
O11D Zn3 1_555 1_555
O11G Zn1 1_555 1_555
O12D Zn1 1_555 1_555
O12G Zn1B 1_555 1_555
O13_2 Zn2 1_555 1_555
O13B_2 Zn2B 1_555 1_555
O14_2 Zn3 1_555 1_555
O14B_2 Zn3 1_555 1_555
Zn1D O11B 1_555 1_555
Zn1D_2 O10B 1_555 1_555
Zn1D_3 O12 1_555 1_555
Zn1G O12B 1_555 1_555
Zn1G_2 O10 1_555 1_555
Zn1G_3 O11 1_555 1_555
Zn2_2 O13 1_555 1_555
Zn2B_2 O13B 1_555 1_555
Zn2D O9B 1_555 1_555
Zn2G O9 1_555 1_555
Zn3_2 O14B 1_555 1_555
Zn3_3 O14 1_555 1_555
Zn3D O11B 1_555 1_555
Zn3D_2 O11 1_555 1_555
C6 O4 1_555 1_555
C10 O7 1_555 1_555
C16 C17 1_555 1_555
C20 N1 1_555 1_555
C21 N1 1_555 1_555
C23 N2 1_555 1_555
C24 N2 1_555 1_555
O16 Zn1 1_555 1_555
C27 C28 1_555 1_555
C30 C31 1_555 1_555
C31 C32 1_555 1_555
C33 C34 1_555 1_555
C39 C40 1_555 1_555
C42 C43 1_555 1_555
C44 C45 1_555 1_555
C46 C47 1_555 1_555
C52 C53 1_555 1_555
O17 Zn2 1_555 1_555
Zn3 O11G 1_555 1_555
C6B O4B 1_555 1_555
C10B O7B 1_555 1_555
C16B C17B 1_555 1_555
C20B N1B 1_555 1_555
C21B N1B 1_555 1_555
C23B N2B 1_555 1_555
C24B N2B 1_555 1_555
O16B Zn1B 1_555 1_555
C27B C28B 1_555 1_555
C30B C31B 1_555 1_555
C31B C32B 1_555 1_555
C33B C34B 1_555 1_555
C39B C40B 1_555 1_555
C42B C43B 1_555 1_555
C44B C45B 1_555 1_555
C46B C47B 1_555 1_555
C52B C53B 1_555 1_555
O17B Zn1B 1_555 1_555
O17B Zn2B 1_555 1_555
Zn1B O11D 1_555 1_555

#END
