
#######################################################################
#
#                 Cambridge Crystallographic Data Centre
#                                CCDC 
#
#######################################################################
#
# If this CIF has been generated from an entry in the Cambridge 
# Structural Database, then it will include bibliographic, chemical, 
# crystal, experimental, refinement or atomic coordinate data resulting 
# from the CCDC's data processing and validation procedures.
#
#######################################################################

data_EGAGEA
_symmetry_cell_setting           triclinic
_symmetry_space_group_name_H-M   'P -1'
_symmetry_Int_Tables_number      2
_space_group_name_Hall           '-P 1'
loop_
_symmetry_equiv_pos_site_id
_symmetry_equiv_pos_as_xyz
1 x,y,z
2 -x,-y,-z
_cell_length_a                   9.1742(5)
_cell_length_b                   11.1153(5)
_cell_length_c                   11.1714(5)
_cell_angle_alpha                77.009(4)
_cell_angle_beta                 68.082(5)
_cell_angle_gamma                78.222(4)
_cell_volume                     1020.66
loop_
_atom_site_label
_atom_site_type_symbol
_atom_site_fract_x
_atom_site_fract_y
_atom_site_fract_z
Gd1 Gd 0.725401(19) 0.515980(15) 0.020279(16)
C1 C 0.0060(4) 0.6728(3) 0.8333(4)
S1 S 0.8478(2) 0.05570(13) -0.12389(19)
C2 C 0.1035(5) 0.7575(4) 0.7188(4)
H1 H 0.2146 0.7307 0.7076
H2 H 0.0775 0.8412 0.7395
C3 C 0.1144(5) 0.5995(4) 0.5532(4)
H3 H 0.0527 0.5543 0.6356
H4 H 0.0767 0.5887 0.4865
S2 S 0.30642(13) 0.37908(10) 0.50674(10)
O1 O 0.9123(3) 0.4051(2) -0.1623(3)
S3 S 0.07667(14) 0.76291(10) 0.56563(11)
O2 O 0.7294(3) 0.2985(3) -0.0158(3)
C4 C 0.2867(5) 0.5413(4) 0.5206(4)
H5 H 0.3251 0.5477 0.5886
H6 H 0.3506 0.5860 0.4387
O3 O 0.5677(3) 0.4319(3) 0.2445(3)
C5 C 0.2932(5) 0.3974(4) 0.3474(4)
H7 H 0.2654 0.3207 0.3393
H8 H 0.2068 0.4626 0.3418
O4 O -0.1365(3) 0.6725(3) 0.8516(3)
C6 C 0.4389(4) 0.4283(3) 0.2327(4)
C7 C 0.9128(7) 0.0153(6) 0.0182(7)
H9 H 0.8773 0.0847 0.0661
H10 H 0.8634 -0.0557 0.0758
O5 O 0.7800(4) 0.6273(3) 0.1588(3)
O6 O 0.0751(4) 0.6052(3) 0.9074(3)
C8 C 0.9151(8) 0.2013(4) -0.1969(6)
H11 H 1.0293 0.1896 -0.2188
H12 H 0.8940 0.2272 -0.2784
O7 O 0.5394(4) 0.7014(3) 0.0615(4)
C9 C 0.8458(5) 0.3074(4) -0.1181(4)
O8 O 0.4250(3) 0.4532(3) 0.1214(3)
H13 H 0.464(7) 0.712(5) 0.039(5)
H14 H 0.860(7) 0.620(5) 0.165(5)
H15 H 0.728(6) 0.683(5) 0.193(5)
H16 H 0.547(6) 0.748(5) 0.091(5)
S1A S 1.1522(2) -0.05570(13) 0.12389(19)
O1A O 1.0877(3) -0.4051(2) 0.1623(3)
O2A O 1.2706(3) -0.2985(3) 0.0158(3)
C7A C 1.0872(7) -0.0153(6) -0.0182(7)
H9A H 1.1227 -0.0847 -0.0661
H10A H 1.1366 0.0557 -0.0758
C8A C 1.0849(8) -0.2013(4) 0.1969(6)
H11A H 0.9707 -0.1896 0.2188
H12A H 1.1060 -0.2272 0.2784
C9A C 1.1542(5) -0.3074(4) 0.1181(4)
Gd1A Gd 0.274599(19) 0.484020(15) -0.020279(16)
C1A C 0.9940(4) 0.3272(3) -0.8333(4)
C2A C 0.8965(5) 0.2425(4) -0.7188(4)
H1A H 0.7854 0.2693 -0.7076
H2A H 0.9225 0.1588 -0.7395
C3A C 0.8856(5) 0.4005(4) -0.5532(4)
H3A H 0.9473 0.4457 -0.6356
H4A H 0.9233 0.4113 -0.4865
S2A S 0.69358(13) 0.62092(10) -0.50674(10)
S3A S 0.92333(14) 0.23709(10) -0.56563(11)
C4A C 0.7133(5) 0.4587(4) -0.5206(4)
H5A H 0.6749 0.4523 -0.5886
H6A H 0.6494 0.4140 -0.4387
O3A O 0.4323(3) 0.5681(3) -0.2445(3)
C5A C 0.7068(5) 0.6026(4) -0.3474(4)
H7A H 0.7346 0.6793 -0.3393
H8A H 0.7932 0.5374 -0.3418
O4A O 1.1365(3) 0.3275(3) -0.8516(3)
C6A C 0.5611(4) 0.5717(3) -0.2327(4)
O5A O 0.2200(4) 0.3727(3) -0.1588(3)
O6A O 0.9249(4) 0.3948(3) -0.9074(3)
O7A O 0.4606(4) 0.2986(3) -0.0615(4)
O8A O 0.5750(3) 0.5468(3) -0.1214(3)
H13A H 0.536(7) 0.288(5) -0.039(5)
H14A H 0.140(7) 0.380(5) -0.165(5)
H15A H 0.272(6) 0.317(5) -0.193(5)
H16A H 0.453(6) 0.252(5) -0.091(5)
Gd1_2 Gd -0.274599(19) 0.515980(15) 1.020279(16)
Gd1_3 Gd 0.725401(19) 0.515980(15) -0.979721(16)
Gd1A_2 Gd 0.274599(19) 0.484020(15) 0.979721(16)
Gd1A_3 Gd 1.274599(19) -0.515980(15) -0.020279(16)
Gd1A_4 Gd 1.274599(19) 0.484020(15) -1.020279(16)
O1A_2 O 0.0877(3) 0.5949(2) 0.1623(3)
O2A_2 O 0.2706(3) 0.7015(3) 0.0158(3)
O4_2 O 0.8635(3) 0.6725(3) -0.1484(3)
O4A_2 O 0.1365(3) 0.3275(3) 0.1484(3)
O6_2 O 0.0751(4) 0.6052(3) -0.0926(3)
O6A_2 O 0.9249(4) 0.3948(3) 0.0926(3)
N1 N 0.4258(6) 0.9937(4) 0.3257(5)
C10 C 0.4922(7) 0.8794(5) 0.3192(7)
H17 H 0.4683 0.8213 0.3957
C11 C 0.4510(11) 1.0886(6) 0.2109(7)
H18 H 0.5206 1.0526 0.1355
H19 H 0.4979 1.1535 0.2212
H20 H 0.3513 1.1227 0.1994
C12 C 0.3193(8) 1.0320(6) 0.4480(7)
H21 H 0.2939 0.9596 0.5136
H22 H 0.2238 1.0783 0.4362
H23 H 0.3695 1.0833 0.4754
O9 O 0.5855(6) 0.8430(4) 0.2172(5)
loop_
_geom_bond_atom_site_label_1
_geom_bond_atom_site_label_2
_geom_bond_site_symmetry_1
_geom_bond_site_symmetry_2
Gd1 O1 1_555 1_555
C1 C2 1_555 1_555
S1 C7 1_555 1_555
C2 H1 1_555 1_555
H2 C2 1_555 1_555
C3 H3 1_555 1_555
H4 C3 1_555 1_555
S2 C4 1_555 1_555
O1 C9 1_555 1_555
S3 C2 1_555 1_555
O2 Gd1 1_555 1_555
C4 C3 1_555 1_555
H5 C4 1_555 1_555
H6 C4 1_555 1_555
O3 Gd1 1_555 1_555
C5 S2 1_555 1_555
H7 C5 1_555 1_555
H8 C5 1_555 1_555
O4 C1 1_555 1_555
C6 O3 1_555 1_555
C7 H9 1_555 1_555
H10 C7 1_555 1_555
O5 Gd1 1_555 1_555
O6 C1 1_555 1_555
C8 S1 1_555 1_555
H11 C8 1_555 1_555
H12 C8 1_555 1_555
O7 Gd1 1_555 1_555
C9 O2 1_555 1_555
O8 Gd1 1_555 1_555
H13 O7 1_555 1_555
H14 O5 1_555 1_555
H15 O5 1_555 1_555
H16 O7 1_555 1_555
N1 C10 1_555 1_555
C10 H17 1_555 1_555
C11 N1 1_555 1_555
H18 C11 1_555 1_555
H19 C11 1_555 1_555
H20 C11 1_555 1_555
C12 N1 1_555 1_555
H21 C12 1_555 1_555
H22 C12 1_555 1_555
H23 C12 1_555 1_555
O9 C10 1_555 1_555
S1A C7A 1_555 1_555
O1A C9A 1_555 1_555
O2A C9A 1_555 1_555
C7A C7 1_555 1_555
H9A C7A 1_555 1_555
H10A C7A 1_555 1_555
C8A S1A 1_555 1_555
H11A C8A 1_555 1_555
H12A C8A 1_555 1_555
C9A C8A 1_555 1_555
Gd1A O8 1_555 1_555
C1A C2A 1_555 1_555
C2A H1A 1_555 1_555
H2A C2A 1_555 1_555
C3A H3A 1_555 1_555
H4A C3A 1_555 1_555
S2A C4A 1_555 1_555
S3A C2A 1_555 1_555
C4A C3A 1_555 1_555
H5A C4A 1_555 1_555
H6A C4A 1_555 1_555
O3A Gd1A 1_555 1_555
C5A S2A 1_555 1_555
H7A C5A 1_555 1_555
H8A C5A 1_555 1_555
O4A C1A 1_555 1_555
C6A O3A 1_555 1_555
O5A Gd1A 1_555 1_555
O6A C1A 1_555 1_555
O7A Gd1A 1_555 1_555
O8A Gd1 1_555 1_555
H13A O7A 1_555 1_555
H14A O5A 1_555 1_555
H15A O5A 1_555 1_555
H16A O7A 1_555 1_555
Gd1_2 O4 1_555 1_555
Gd1_3 O6A 1_555 1_555
Gd1A_2 O6 1_555 1_555
Gd1A_3 O1A 1_555 1_555
Gd1A_4 O4A 1_555 1_555
O1A_2 Gd1A 1_555 1_555
O2A_2 Gd1A 1_555 1_555
O4_2 Gd1 1_555 1_555
O4A_2 Gd1A 1_555 1_555
O6_2 Gd1A 1_555 1_555
O6A_2 Gd1 1_555 1_555
C3 S3 1_555 1_555
C5 C6 1_555 1_555
C6 O8 1_555 1_555
C8 C9 1_555 1_555
O2A Gd1A_3 1_555 1_555
Gd1A O8A 1_555 1_555
C3A S3A 1_555 1_555
C5A C6A 1_555 1_555
C6A O8A 1_555 1_555

#END
