
#######################################################################
#
#                 Cambridge Crystallographic Data Centre
#                                CCDC 
#
#######################################################################
#
# If this CIF has been generated from an entry in the Cambridge 
# Structural Database, then it will include bibliographic, chemical, 
# crystal, experimental, refinement or atomic coordinate data resulting 
# from the CCDC's data processing and validation procedures.
#
#######################################################################

data_EGATIQ
_symmetry_cell_setting           orthorhombic
_symmetry_space_group_name_H-M   'P n m a'
_symmetry_Int_Tables_number      62
_space_group_name_Hall           '-P 2ac 2n'
loop_
_symmetry_equiv_pos_site_id
_symmetry_equiv_pos_as_xyz
1 x,y,z
2 1/2+x,1/2-y,1/2-z
3 -x,1/2+y,-z
4 1/2-x,-y,1/2+z
5 -x,-y,-z
6 1/2-x,1/2+y,1/2+z
7 x,1/2-y,z
8 1/2+x,y,1/2-z
_cell_length_a                   17.0544(3)
_cell_length_b                   22.1816(4)
_cell_length_c                   24.8632(5)
_cell_angle_alpha                90
_cell_angle_beta                 90
_cell_angle_gamma                90
_cell_volume                     9405.6
loop_
_atom_site_label
_atom_site_type_symbol
_atom_site_fract_x
_atom_site_fract_y
_atom_site_fract_z
Zn1 Zn -0.01031(2) 0.33314(2) 0.613811(16)
Ni1 Ni -0.12560(4) 0.2500 0.68680(2)
O1 O -0.01889(16) 0.2500 0.64478(11)
O2 O 0.40765(14) -0.16753(13) 1.08037(11)
O3 O 0.44490(18) -0.07664(16) 1.05909(17)
O4 O -0.00695(15) 0.12119(13) 0.68133(10)
O5 O -0.07684(14) 0.18308(11) 0.73478(8)
O6 O -0.39488(13) -0.15973(12) 1.07111(9)
O7 O -0.32004(14) -0.18468(13) 1.14092(9)
N1 N -0.2224(2) 0.2500 0.73881(14)
C1 C 0.3952(2) -0.1167(2) 1.05960(16)
C2 C 0.31593(19) -0.10633(19) 1.03461(15)
C3 C 0.2973(2) -0.05310(19) 1.01010(18)
H1 H 0.3348 -0.0228 1.0080
C4 C 0.2243(2) -0.04352(19) 0.98860(17)
H2 H 0.2131 -0.0069 0.9721
C5 C 0.16649(19) -0.08803(17) 0.99106(14)
C6 C 0.1851(2) -0.14205(19) 1.01567(15)
H3 H 0.1476 -0.1724 1.0178
C7 C 0.2589(2) -0.15137(19) 1.03720(16)
H4 H 0.2707 -0.1880 1.0535
C8 C 0.08631(19) -0.07598(18) 0.96953(14)
C9 C 0.07578(19) -0.04101(18) 0.92408(14)
H5 H 0.1195 -0.0269 0.9056
C10 C 0.00105(19) -0.02638(19) 0.90520(15)
C11 C -0.06401(19) -0.04918(18) 0.93291(14)
H6 H -0.1142 -0.0401 0.9207
C12 C -0.05515(19) -0.08529(18) 0.97846(14)
C13 C 0.02089(19) -0.09849(18) 0.99616(15)
H7 H 0.0277 -0.1228 1.0263
C14 C -0.00972(18) 0.01342(18) 0.85829(14)
C15 C 0.0403(2) 0.0119(2) 0.81452(15)
H8 H 0.0808 -0.0162 0.8138
C16 C 0.0313(2) 0.0509(2) 0.77205(16)
H9 H 0.0658 0.0489 0.7431
C17 C -0.0284(2) 0.09323(16) 0.77175(13)
C18 C -0.0783(2) 0.09562(18) 0.81560(13)
H10 H -0.1182 0.1242 0.8165
C19 C -0.0695(2) 0.05624(18) 0.85781(14)
H11 H -0.1042 0.0582 0.8866
C20 C -0.03835(19) 0.13626(16) 0.72555(13)
C21 C -0.12502(19) -0.10749(17) 1.00777(14)
C22 C -0.1948(2) -0.1189(2) 0.98160(15)
H12 H -0.1972 -0.1141 0.9445
C23 C -0.2608(2) -0.1372(2) 1.00882(14)
H13 H -0.3071 -0.1441 0.9901
C24 C -0.25857(19) -0.14562(17) 1.06433(13)
C25 C -0.1886(2) -0.13463(18) 1.09101(14)
H14 H -0.1858 -0.1405 1.1280
C26 C -0.12305(19) -0.11522(18) 1.06360(15)
H15 H -0.0771 -0.1072 1.0824
C27 C -0.3292(2) -0.16514(16) 1.09406(13)
C28 C -0.2488(2) 0.3011(2) 0.75966(16)
H16 H -0.2330 0.3373 0.7441
C29 C -0.2985(2) 0.3033(2) 0.80317(18)
H17 H -0.3150 0.3401 0.8172
C30 C -0.3230(4) 0.2500 0.8252(3)
H18 H -0.3560 0.2500 0.8550
Zn1F Zn -0.01031(2) 0.16686(2) 0.613811(16)
Zn1E Zn 0.51031(2) -0.16686(2) 1.113811(16)
Zn1E_2 Zn -0.48969(2) -0.16686(2) 1.113811(16)
Zn1C Zn 0.51031(2) 0.66686(2) 1.113811(16)
Zn1C_2 Zn -0.48969(2) 0.66686(2) 1.113811(16)
Ni1E Ni -0.37440(4) -0.2500 1.18680(2)
Ni1E_2 Ni -0.37440(4) 0.7500 1.18680(2)
O2F O 0.40765(14) 0.66753(13) 1.08037(11)
O2E O 0.09235(14) 0.33247(13) 0.58037(11)
O2C O 0.09235(14) 0.16753(13) 0.58037(11)
O3F O 0.44490(18) 0.57664(16) 1.05909(17)
O4F O -0.00695(15) 0.37881(13) 0.68133(10)
O5F O -0.07684(14) 0.31692(11) 0.73478(8)
O6F O -0.39488(13) 0.65973(12) 1.07111(9)
O6E O -0.10512(13) 0.34027(12) 0.57111(9)
O6C O -0.10512(13) 0.15973(12) 0.57111(9)
O7F O -0.32004(14) 0.68468(13) 1.14092(9)
O7E O -0.17996(14) 0.31532(13) 0.64092(9)
O7C O -0.17996(14) 0.18468(13) 0.64092(9)
C1F C 0.3952(2) 0.6167(2) 1.05960(16)
C2F C 0.31593(19) 0.60633(19) 1.03461(15)
C3F C 0.2973(2) 0.55310(19) 1.01010(18)
H1F H 0.3348 0.5228 1.0080
C4F C 0.2243(2) 0.54352(19) 0.98860(17)
H2F H 0.2131 0.5069 0.9721
C5F C 0.16649(19) 0.58803(17) 0.99106(14)
C6F C 0.1851(2) 0.64205(19) 1.01567(15)
H3F H 0.1476 0.6724 1.0178
C7F C 0.2589(2) 0.65137(19) 1.03720(16)
H4F H 0.2707 0.6880 1.0535
C8F C 0.08631(19) 0.57598(18) 0.96953(14)
C9F C 0.07578(19) 0.54101(18) 0.92408(14)
H5F H 0.1195 0.5269 0.9056
C10F C 0.00105(19) 0.52638(19) 0.90520(15)
C11F C -0.06401(19) 0.54918(18) 0.93291(14)
H6F H -0.1142 0.5401 0.9207
C12F C -0.05515(19) 0.58529(18) 0.97846(14)
C13F C 0.02089(19) 0.59849(18) 0.99616(15)
H7F H 0.0277 0.6228 1.0263
C14F C -0.00972(18) 0.48658(18) 0.85829(14)
C15F C 0.0403(2) 0.4881(2) 0.81452(15)
H8F H 0.0808 0.5162 0.8138
C16F C 0.0313(2) 0.4491(2) 0.77205(16)
H9F H 0.0658 0.4511 0.7431
C17F C -0.0284(2) 0.40677(16) 0.77175(13)
C18F C -0.0783(2) 0.40438(18) 0.81560(13)
H10F H -0.1182 0.3758 0.8165
C19F C -0.0695(2) 0.44376(18) 0.85781(14)
H11F H -0.1042 0.4418 0.8866
C20F C -0.03835(19) 0.36374(16) 0.72555(13)
C21F C -0.12502(19) 0.60749(17) 1.00777(14)
C22F C -0.1948(2) 0.6189(2) 0.98160(15)
H12F H -0.1972 0.6141 0.9445
C23F C -0.2608(2) 0.6372(2) 1.00882(14)
H13F H -0.3071 0.6441 0.9901
C24F C -0.25857(19) 0.64562(17) 1.06433(13)
C25F C -0.1886(2) 0.63463(18) 1.09101(14)
H14F H -0.1858 0.6405 1.1280
C26F C -0.12305(19) 0.61522(18) 1.06360(15)
H15F H -0.0771 0.6072 1.0824
C27F C -0.3292(2) 0.66514(16) 1.09406(13)
C28F C -0.2488(2) 0.1989(2) 0.75966(16)
H16F H -0.2330 0.1627 0.7441
C29F C -0.2985(2) 0.1967(2) 0.80317(18)
H17F H -0.3150 0.1599 0.8172
O8 O 0.4745(4) 0.2500 0.5298(2)
N2 N 0.4973(4) 0.2500 0.6193(2)
C31 C 0.5215(6) 0.2500 0.5676(4)
H19 H 0.5868 0.2500 0.5568
C32 C 0.5504(7) 0.2500 0.6598(4)
H21 H 0.5289 0.2708 0.6903
C33 C 0.4201(5) 0.2500 0.6341(3)
H24 H 0.4142 0.2289 0.6675
H21F H 0.5289 0.2292 0.6903
H24F H 0.4142 0.2711 0.6675
H20? H 0.5624 0.2092 0.6697
H22? H 0.5973 0.2700 0.6482
H23? H 0.4023 0.2908 0.6383
H25? H 0.3895 0.2303 0.6068
loop_
_geom_bond_atom_site_label_1
_geom_bond_atom_site_label_2
_geom_bond_site_symmetry_1
_geom_bond_site_symmetry_2
Zn1 O1 1_555 1_555
Ni1 O1 1_555 1_555
O1 Zn1F 1_555 1_555
O2 C1 1_555 1_555
O3 C1 1_555 1_555
O4 C20 1_555 1_555
O5 Ni1 1_555 1_555
O6 C27 1_555 1_555
O7 C27 1_555 1_555
O8 C31 1_555 1_555
N1 Ni1 1_555 1_555
N2 C31 1_555 1_555
C1 C2 1_555 1_555
C2 C3 1_555 1_555
C3 H1 1_555 1_555
C4 C3 1_555 1_555
H2 C4 1_555 1_555
C5 C4 1_555 1_555
C6 C5 1_555 1_555
H3 C6 1_555 1_555
C7 C2 1_555 1_555
H4 C7 1_555 1_555
C8 C5 1_555 1_555
C9 C8 1_555 1_555
H5 C9 1_555 1_555
C10 C9 1_555 1_555
C11 C10 1_555 1_555
H6 C11 1_555 1_555
C12 C11 1_555 1_555
C13 C8 1_555 1_555
H7 C13 1_555 1_555
C14 C10 1_555 1_555
C15 C14 1_555 1_555
H8 C15 1_555 1_555
C16 C15 1_555 1_555
H9 C16 1_555 1_555
C17 C16 1_555 1_555
C18 C17 1_555 1_555
H10 C18 1_555 1_555
C19 C14 1_555 1_555
H11 C19 1_555 1_555
C20 O5 1_555 1_555
C21 C12 1_555 1_555
C22 C21 1_555 1_555
H12 C22 1_555 1_555
C23 C22 1_555 1_555
H13 C23 1_555 1_555
C24 C23 1_555 1_555
C25 C24 1_555 1_555
H14 C25 1_555 1_555
C26 C21 1_555 1_555
H15 C26 1_555 1_555
C27 C24 1_555 1_555
C28 N1 1_555 1_555
H16 C28 1_555 1_555
C29 C28 1_555 1_555
H17 C29 1_555 1_555
C30 C29 1_555 1_555
H18 C30 1_555 1_555
C31 H19 1_555 1_555
C32 N2 1_555 1_555
H21 C32 1_555 1_555
C33 N2 1_555 1_555
H24 C33 1_555 1_555
Zn1F O4 1_555 1_555
Zn1E O2 1_555 1_555
Zn1E_2 O6 1_555 1_555
Zn1C O2F 1_555 1_555
Zn1C_2 O6F 1_555 1_555
Ni1E O7 1_555 1_555
Ni1E_2 O7F 1_555 1_555
O2F C1F 1_555 1_555
O2E Zn1 1_555 1_555
O2C Zn1F 1_555 1_555
O3F C1F 1_555 1_555
O4F Zn1 1_555 1_555
O5F Ni1 1_555 1_555
O6F C27F 1_555 1_555
O6E Zn1 1_555 1_555
O6C Zn1F 1_555 1_555
O7F C27F 1_555 1_555
O7E Ni1 1_555 1_555
O7C Ni1 1_555 1_555
C1F C2F 1_555 1_555
C2F C3F 1_555 1_555
C3F H1F 1_555 1_555
C4F C3F 1_555 1_555
H2F C4F 1_555 1_555
C5F C4F 1_555 1_555
C6F C5F 1_555 1_555
H3F C6F 1_555 1_555
C7F C2F 1_555 1_555
H4F C7F 1_555 1_555
C8F C5F 1_555 1_555
C9F C8F 1_555 1_555
H5F C9F 1_555 1_555
C10F C9F 1_555 1_555
C11F C10F 1_555 1_555
H6F C11F 1_555 1_555
C12F C11F 1_555 1_555
C13F C8F 1_555 1_555
H7F C13F 1_555 1_555
C14F C10F 1_555 1_555
C15F C14F 1_555 1_555
H8F C15F 1_555 1_555
C16F C15F 1_555 1_555
H9F C16F 1_555 1_555
C17F C16F 1_555 1_555
C18F C17F 1_555 1_555
H10F C18F 1_555 1_555
C19F C14F 1_555 1_555
H11F C19F 1_555 1_555
C20F O4F 1_555 1_555
C21F C12F 1_555 1_555
C22F C21F 1_555 1_555
H12F C22F 1_555 1_555
C23F C22F 1_555 1_555
H13F C23F 1_555 1_555
C24F C23F 1_555 1_555
C25F C24F 1_555 1_555
H14F C25F 1_555 1_555
C26F C21F 1_555 1_555
H15F C26F 1_555 1_555
C27F C24F 1_555 1_555
C28F N1 1_555 1_555
H16F C28F 1_555 1_555
C29F C30 1_555 1_555
H17F C29F 1_555 1_555
H21F C32 1_555 1_555
H24F C33 1_555 1_555
C6 C7 1_555 1_555
C12 C13 1_555 1_555
C17 C20 1_555 1_555
C18 C19 1_555 1_555
C25 C26 1_555 1_555
O5F C20F 1_555 1_555
C6F C7F 1_555 1_555
C12F C13F 1_555 1_555
C17F C20F 1_555 1_555
C18F C19F 1_555 1_555
C25F C26F 1_555 1_555
C28F C29F 1_555 1_555

#END
