
#######################################################################
#
#                 Cambridge Crystallographic Data Centre
#                                CCDC 
#
#######################################################################
#
# If this CIF has been generated from an entry in the Cambridge 
# Structural Database, then it will include bibliographic, chemical, 
# crystal, experimental, refinement or atomic coordinate data resulting 
# from the CCDC's data processing and validation procedures.
#
#######################################################################

data_EGOZAB
_symmetry_cell_setting           rhombohedral
_symmetry_space_group_name_H-M   'R -3'
_symmetry_Int_Tables_number      148
_space_group_name_Hall           '-P 3*'
loop_
_symmetry_equiv_pos_site_id
_symmetry_equiv_pos_as_xyz
1 x,y,z
2 z,x,y
3 y,z,x
4 -x,-y,-z
5 -z,-x,-y
6 -y,-z,-x
_cell_length_a                   20.9335(8)
_cell_length_b                   20.9335(8)
_cell_length_c                   20.9335(8)
_cell_angle_alpha                115.808(1)
_cell_angle_beta                 115.808(1)
_cell_angle_gamma                115.808(1)
_cell_volume                     4734.37
loop_
_atom_site_label
_atom_site_type_symbol
_atom_site_fract_x
_atom_site_fract_y
_atom_site_fract_z
Cu1 Cu 0.59538(5) -0.07625(5) -0.24776(5)
Cu2 Cu 0.54775(5) 0.01271(5) -0.34879(5)
O1 O 0.4936(3) -0.1186(3) -0.4627(3)
O2 O 0.5272(3) -0.1721(3) -0.3939(3)
O3 O 0.7244(3) 0.0585(3) -0.1798(3)
O4 O 0.7017(3) 0.1047(3) -0.2596(3)
O5 O 0.5107(3) -0.0341(3) -0.2597(3)
O6 O 0.4033(3) -0.0862(3) -0.4109(3)
N1 N 0.4757(3) -0.2190(3) -0.3119(3)
N2 N 0.6817(3) 0.0073(3) -0.0938(3)
N3 N 0.1448(4) -0.2629(4) -0.4141(3)
C1 C 0.4176(4) -0.2265(4) -0.2982(4)
H1 H 0.4428 -0.1615 -0.2478
C2 C 0.3209(4) -0.3269(4) -0.3554(4)
H2 H 0.2797 -0.3303 -0.3464
C3 C 0.2867(4) -0.4221(4) -0.4265(4)
C4 C 0.3502(4) -0.4129(4) -0.4360(5)
H3 H 0.3306 -0.4752 -0.4807
C5 C 0.4433(4) -0.3110(4) -0.3793(4)
H4 H 0.4852 -0.3058 -0.3879
C6 C 0.4879(4) -0.1834(4) -0.4684(4)
C7 C 0.7046(5) 0.0893(4) -0.0262(5)
H5 H 0.6755 0.1063 -0.0532
C8 C 0.9170(5) 0.2301(4) -0.1512(4)
H6 H 0.8718 0.2171 -0.2075
C9 C 0.8761(4) 0.1847(4) -0.1286(4)
C10 C 0.9457(5) 0.2083(5) -0.0434(5)
H7 H 0.9201 0.1787 -0.0260
C11 C 0.7236(5) -0.0160(5) -0.0540(5)
H8 H 0.7057 -0.0756 -0.1020
C12 C 0.7570(4) 0.1092(4) -0.1953(4)
C13 C 0.2505(4) -0.1677(4) -0.3076(4)
H9 H 0.2628 -0.1411 -0.2491
C14 C 0.3414(4) -0.1083(4) -0.2822(4)
H10 H 0.4142 -0.0432 -0.2077
C15 C 0.3233(4) -0.1462(4) -0.3680(4)
C16 C 0.2160(5) -0.2422(5) -0.4761(4)
H11 H 0.2016 -0.2693 -0.5359
C17 C 0.1298(5) -0.2982(5) -0.4955(5)
H12 H 0.0568 -0.3644 -0.5697
C18 C 0.4198(4) -0.0843(4) -0.3439(4)
Cu2B Cu 0.01271(5) -0.34879(5) -0.45225(5)
C6E C 0.1834(4) -0.5316(4) -0.4879(4)
O1E O 0.1186(3) -0.5373(3) -0.4936(3)
Cu2E Cu -0.01271(5) -0.65121(5) -0.54775(5)
O4E O -0.1047(3) -0.7404(3) -0.7017(3)
O3E O -0.0585(3) -0.8202(3) -0.7244(3)
Cu1E Cu 0.07625(5) -0.75224(5) -0.59538(5)
O2E O 0.1721(3) -0.6061(3) -0.5272(3)
O5E O 0.0341(3) -0.7403(3) -0.5107(3)
O6E O 0.0862(3) -0.5891(3) -0.4033(3)
N3C N -0.1448(4) -0.7371(4) -0.5859(3)
N1E N 0.2190(3) -0.6881(3) -0.4757(3)
N2E N -0.0073(3) -0.9062(3) -0.6817(3)
N3A N 0.5859(3) 0.1448(4) -0.2629(4)
C3D C 0.4265(4) -0.2867(4) -0.5779(4)
C13A C 0.6924(4) 0.2505(4) -0.1677(4)
C17A C 0.5045(5) 0.1298(5) -0.2982(5)
C2D C 0.3554(4) -0.3209(4) -0.6731(4)
C4D C 0.4360(5) -0.3502(4) -0.5871(4)
C8E C 0.7699(4) 0.1512(4) 0.0830(5)
C10E C 0.7917(5) 0.0434(5) 0.0543(5)
C7D C 1.0262(5) 0.2954(5) -0.0893(4)
C11D C 1.0540(5) 0.2764(5) 0.0160(5)
H9A H 0.7509 0.2628 -0.1411
C14A C 0.7178(4) 0.3414(4) -0.1083(4)
C16A C 0.5239(4) 0.2160(5) -0.2422(5)
H12A H 0.4303 0.0568 -0.3644
C1D C 0.2982(4) -0.4176(4) -0.7735(4)
H2D H 0.3464 -0.2797 -0.6697
H3D H 0.4807 -0.3306 -0.5248
C5D C 0.3793(4) -0.4433(4) -0.6890(4)
H6E H 0.7829 0.2075 0.1282
C9E C 0.8153(4) 0.1286(4) 0.1239(4)
H7E H 0.8213 0.0260 0.0799
N2D N 1.0938(3) 0.3183(3) -0.0073(3)
H5D H 1.0532 0.3245 -0.1063
H8D H 1.1020 0.2943 0.0756
H10A H 0.7923 0.4142 -0.0432
C15A C 0.6320(4) 0.3233(4) -0.1462(4)
H11A H 0.4641 0.2016 -0.2693
N1D N 0.3119(3) -0.4757(3) -0.7810(3)
H1D H 0.2478 -0.4428 -0.8385
H4D H 0.3879 -0.4852 -0.6942
C12E C 0.8908(4) 0.1953(4) 0.2430(4)
Cu1D Cu 1.24776(5) 0.40462(5) 0.07625(5)
C18A C 0.6561(4) 0.4198(4) -0.0843(4)
Cu1D_2 Cu 0.24776(5) -0.59538(5) -0.92375(5)
O3E_2 O 0.9415(3) 0.1798(3) 0.2756(3)
O4E_2 O 0.8953(3) 0.2596(3) 0.2983(3)
O5A O 0.7403(3) 0.5107(3) -0.0341(3)
O6A O 0.5891(3) 0.4033(3) -0.0862(3)
Cu1E_2 Cu 1.07625(5) 0.24776(5) 0.40462(5)
Cu2E_2 Cu 0.98729(5) 0.34879(5) 0.45225(5)
Cu1A Cu 0.75224(5) 0.59538(5) -0.07625(5)
Cu2A Cu 0.65121(5) 0.54775(5) 0.01271(5)
I1 I -0.00661(4) 0.34355(4) -0.25935(4)
I2 I -0.13255(4) 0.12594(4) -0.38482(4)
I3 I -0.27479(4) -0.12209(4) -0.52296(4)
I4 I -0.24504(4) -0.10182(4) -0.35338(4)
I5 I -0.21181(7) -0.09145(6) -0.20321(6)
I8 I -0.07673(4) -0.03580(4) -0.50468(4)
I8C I 0.07673(4) 0.03580(4) -0.49532(4)
O8 O -0.6362(9) -0.7243(9) -1.2002(9)
I6? I -0.4164(10) -0.3858(8) -0.4134(9)
I7? I -0.5790(12) -0.6117(12) -0.5765(12)
O7? O -0.4921(10) -0.5165(9) -1.0003(10)
loop_
_geom_bond_atom_site_label_1
_geom_bond_atom_site_label_2
_geom_bond_site_symmetry_1
_geom_bond_site_symmetry_2
Cu1 O2 1_555 1_555
Cu2 O1 1_555 1_555
I1 I2 1_555 1_555
I2 I3 1_555 1_555
I3 I4 1_555 1_555
I4 I5 1_555 1_555
I8 I8C 1_555 1_555
O1 C6 1_555 1_555
O2 C6 1_555 1_555
O3 Cu1 1_555 1_555
O4 Cu2 1_555 1_555
O5 Cu1 1_555 1_555
O6 Cu2 1_555 1_555
N1 Cu1 1_555 1_555
N2 Cu1 1_555 1_555
N3 C13 1_555 1_555
C1 N1 1_555 1_555
H1 C1 1_555 1_555
C2 C1 1_555 1_555
H2 C2 1_555 1_555
C3 C2 1_555 1_555
C4 C3 1_555 1_555
H3 C4 1_555 1_555
C5 N1 1_555 1_555
H4 C5 1_555 1_555
C6 C3D 1_555 1_555
C7 N2 1_555 1_555
H5 C7 1_555 1_555
C8 H6 1_555 1_555
C9 C8 1_555 1_555
C10 C9 1_555 1_555
H7 C10 1_555 1_555
C11 N2 1_555 1_555
H8 C11 1_555 1_555
C12 O3 1_555 1_555
C13 H9 1_555 1_555
C14 C13 1_555 1_555
H10 C14 1_555 1_555
C15 C14 1_555 1_555
C16 C15 1_555 1_555
H11 C16 1_555 1_555
C17 N3 1_555 1_555
H12 C17 1_555 1_555
C18 O5 1_555 1_555
Cu2B N3 1_555 1_555
C6E C3 1_555 1_555
O1E C6E 1_555 1_555
Cu2E O1E 1_555 1_555
O4E Cu2E 1_555 1_555
O3E Cu1E 1_555 1_555
Cu1E O2E 1_555 1_555
O2E C6E 1_555 1_555
O5E Cu1E 1_555 1_555
O6E Cu2E 1_555 1_555
N3C Cu2E 1_555 1_555
N1E Cu1E 1_555 1_555
N2E Cu1E 1_555 1_555
N3A Cu2 1_555 1_555
C3D C2D 1_555 1_555
C13A N3A 1_555 1_555
C17A N3A 1_555 1_555
C2D C1D 1_555 1_555
C4D C3D 1_555 1_555
C8E C7 1_555 1_555
C10E C11 1_555 1_555
C7D C8 1_555 1_555
C11D C10 1_555 1_555
H9A C13A 1_555 1_555
C14A C13A 1_555 1_555
C16A C17A 1_555 1_555
H12A C17A 1_555 1_555
C1D N1D 1_555 1_555
H2D C2D 1_555 1_555
H3D C4D 1_555 1_555
C5D C4D 1_555 1_555
H6E C8E 1_555 1_555
C9E C8E 1_555 1_555
H7E C10E 1_555 1_555
N2D C7D 1_555 1_555
H5D C7D 1_555 1_555
H8D C11D 1_555 1_555
H10A C14A 1_555 1_555
C15A C14A 1_555 1_555
H11A C16A 1_555 1_555
N1D C5D 1_555 1_555
H1D C1D 1_555 1_555
H4D C5D 1_555 1_555
C12E C9E 1_555 1_555
Cu1D N2D 1_555 1_555
C18A C15A 1_555 1_555
Cu1D_2 N1D 1_555 1_555
O3E_2 C12E 1_555 1_555
O4E_2 C12E 1_555 1_555
O5A C18A 1_555 1_555
O6A C18A 1_555 1_555
Cu1E_2 O3E_2 1_555 1_555
Cu2E_2 O4E_2 1_555 1_555
Cu1A O5A 1_555 1_555
Cu2A O6A 1_555 1_555
O4 C12 1_555 1_555
O6 C18 1_555 1_555
C4 C5 1_555 1_555
C9 C12 1_555 1_555
C15 C18 1_555 1_555
C16 C17 1_555 1_555
C10E C9E 1_555 1_555
C11D N2D 1_555 1_555
C16A C15A 1_555 1_555

#END
