
#######################################################################
#
#                 Cambridge Crystallographic Data Centre
#                                CCDC 
#
#######################################################################
#
# If this CIF has been generated from an entry in the Cambridge 
# Structural Database, then it will include bibliographic, chemical, 
# crystal, experimental, refinement or atomic coordinate data resulting 
# from the CCDC's data processing and validation procedures.
#
#######################################################################

data_EHAGAX
_symmetry_cell_setting           triclinic
_symmetry_space_group_name_H-M   'P -1'
_symmetry_Int_Tables_number      2
_space_group_name_Hall           '-P 1'
loop_
_symmetry_equiv_pos_site_id
_symmetry_equiv_pos_as_xyz
1 x,y,z
2 -x,-y,-z
_cell_length_a                   10.6700(7)
_cell_length_b                   11.4911(8)
_cell_length_c                   13.4448(11)
_cell_angle_alpha                69.159(7)
_cell_angle_beta                 78.913(6)
_cell_angle_gamma                63.132(7)
_cell_volume                     1373.32
loop_
_atom_site_label
_atom_site_type_symbol
_atom_site_fract_x
_atom_site_fract_y
_atom_site_fract_z
U1 U 0.62675(4) 0.71024(4) 0.83613(3)
U2 U 1.0000 0.5000 0.5000
Sm1 Sm 0.60537(6) 0.22611(6) 0.75293(5)
C1 C 1.0024(11) 0.3407(11) 0.8508(8)
C2 C 1.1143(10) 0.3137(11) 0.9083(8)
H1 H 1.0990 0.3603 0.9567
C3 C 1.2492(11) 0.2165(11) 0.8925(8)
C4 C 1.2695(11) 0.1405(10) 0.8249(8)
C5 C 1.1533(10) 0.1615(11) 0.7751(8)
H2 H 1.1653 0.1058 0.7349
C6 C 1.0209(11) 0.2639(10) 0.7847(8)
C7 C 0.6255(12) 1.0000(11) 0.4501(8)
H3 H 0.7098 0.9999 0.4154
C8 C 0.6186(11) 0.8747(11) 0.5071(8)
C9 C 0.4900(10) 0.8750(10) 0.5564(8)
C10 C 0.8668(12) 0.4626(12) 0.8572(9)
C11 C 1.3612(10) 0.1949(10) 0.9579(8)
C12 C 1.4104(10) 0.0381(11) 0.7997(8)
C13 C 0.9028(10) 0.2868(10) 0.7242(8)
C14 C 0.4713(10) 0.7449(10) 0.6212(8)
C15 C 0.7463(12) 0.7463(12) 0.5099(9)
O1 O 0.5400(8) 0.6313(8) 0.9426(6)
O2 O 0.7184(8) 0.7874(8) 0.7308(6)
O3 O 1.0703(8) 0.5019(8) 0.6090(6)
O4 O 0.8536(9) 0.5344(9) 0.9128(7)
O5 O 0.7674(8) 0.4926(8) 0.8008(7)
O6 O 0.8247(8) 0.2285(8) 0.7691(6)
O7 O 0.8914(7) 0.3613(8) 0.6260(6)
O8 O 1.4197(7) -0.0829(8) 0.8220(6)
O9 O 1.5040(8) 0.0719(9) 0.7569(7)
O10 O 1.4818(8) 0.1746(9) 0.9189(6)
O11 O 1.3240(8) 0.2011(8) 1.0520(6)
O12 O 0.5059(7) 0.6944(7) 0.7169(6)
O13 O 0.4156(9) 0.7013(8) 0.5787(7)
O14 O 0.7361(8) 0.6328(8) 0.5356(8)
O15 O 0.8626(8) 0.7499(8) 0.4786(7)
O16 O 0.7764(9) -0.0009(9) 0.8374(8)
H4 H 0.7554 -0.0734 0.8538
H5 H 0.8608 -0.0134 0.8529
O17 O 0.5225(13) 0.4151(11) 0.8270(8)
H6 H 0.4374 0.4851 0.8107
H7 H 0.5769 0.4149 0.8707
O18 O 0.3698(10) 0.3806(11) 0.6771(10)
H8 H 0.3177 0.4589 0.6936
H9 H 0.3364 0.3582 0.6333
O19 O 0.6116(9) 0.4226(8) 0.6065(7)
H10 H 0.5326 0.4864 0.5723
H11 H 0.6932 0.4314 0.5863
O20 O 0.7183(10) 0.1455(9) 0.6052(7)
H12 H 0.6703 0.1754 0.5464
H13 H 0.8092 0.0853 0.6080
C7A C 0.3745(12) 1.0000(11) 0.5499(8)
H3A H 0.2902 1.0001 0.5846
C8A C 0.3814(11) 1.1253(11) 0.4929(8)
C9A C 0.5100(10) 1.1250(10) 0.4436(8)
C14A C 0.5287(10) 1.2551(10) 0.3788(8)
C15A C 0.2537(12) 1.2537(12) 0.4901(9)
O12A O 0.4941(7) 1.3056(7) 0.2831(6)
O13A O 0.5844(9) 1.2987(8) 0.4213(7)
O14A O 0.2639(8) 1.3672(8) 0.4644(8)
O15A O 0.1374(8) 1.2501(8) 0.5214(7)
U1A U 0.37325(4) 1.28976(4) 0.16387(3)
Sm1A Sm 0.39463(6) 1.77389(6) 0.24707(5)
C1A C -0.0024(11) 1.6593(11) 0.1492(8)
C2A C -0.1143(10) 1.6863(11) 0.0917(8)
H1A H -0.0990 1.6397 0.0433
C3A C -0.2492(11) 1.7835(11) 0.1075(8)
C4A C -0.2695(11) 1.8595(10) 0.1751(8)
C5A C -0.1533(10) 1.8385(11) 0.2249(8)
H2A H -0.1653 1.8942 0.2651
C6A C -0.0209(11) 1.7361(10) 0.2153(8)
C10A C 0.1332(12) 1.5374(12) 0.1428(9)
C11A C -0.3612(10) 1.8051(10) 0.0421(8)
C12A C -0.4104(10) 1.9619(11) 0.2003(8)
C13A C 0.0972(10) 1.7132(10) 0.2758(8)
O1A O 0.4600(8) 1.3687(8) 0.0574(6)
O2A O 0.2816(8) 1.2126(8) 0.2692(6)
O4A O 0.1464(9) 1.4656(9) 0.0872(7)
O5A O 0.2326(8) 1.5074(8) 0.1992(7)
O6A O 0.1753(8) 1.7715(8) 0.2309(6)
O7A O 0.1086(7) 1.6387(8) 0.3740(6)
O8A O -0.4197(7) 2.0829(8) 0.1780(6)
O9A O -0.5040(8) 1.9281(9) 0.2431(7)
O10A O -0.4818(8) 1.8254(9) 0.0811(6)
O11A O -0.3240(8) 1.7989(8) -0.0520(6)
O16A O 0.2236(9) 2.0009(9) 0.1626(8)
H4A H 0.2446 2.0734 0.1462
H5A H 0.1392 2.0134 0.1471
O17A O 0.4775(13) 1.5849(11) 0.1730(8)
H6A H 0.5626 1.5149 0.1893
H7A H 0.4231 1.5851 0.1293
O18A O 0.6302(10) 1.6194(11) 0.3229(10)
H8A H 0.6823 1.5411 0.3064
H9A H 0.6636 1.6418 0.3667
O19A O 0.3884(9) 1.5774(8) 0.3935(7)
H10A H 0.4674 1.5136 0.4277
H11A H 0.3068 1.5686 0.4137
O20A O 0.2817(10) 1.8545(9) 0.3948(7)
H12A H 0.3297 1.8246 0.4536
H13A H 0.1908 1.9147 0.3920
O3A O 0.9297(8) 0.4981(8) 0.3910(6)
U1_2 U -0.37325(4) 1.71024(4) -0.16387(3)
U1_3 U 1.62675(4) -0.28976(4) 0.83613(3)
U1A_2 U -0.62675(4) 2.28976(4) 0.16387(3)
U1A_3 U 1.37325(4) 0.28976(4) 1.16387(3)
U2_2 U 0.0000 1.5000 0.5000
Sm1_2 Sm 1.60537(6) 0.22611(6) 0.75293(5)
Sm1A_2 Sm -0.60537(6) 1.77389(6) 0.24707(5)
O7A_2 O 1.1086(7) 0.6387(8) 0.3740(6)
O8_2 O 0.4197(7) 0.9171(8) 0.8220(6)
O8A_2 O 0.5803(7) 1.0829(8) 0.1780(6)
O9_2 O 0.5040(8) 0.0719(9) 0.7569(7)
O9A_2 O 0.4960(8) 1.9281(9) 0.2431(7)
O10_2 O 0.4818(8) 0.1746(9) 0.9189(6)
O10A_2 O 0.5182(8) 1.8254(9) 0.0811(6)
O11_2 O 0.3240(8) 1.2011(8) 0.0520(6)
O11A_2 O 0.6760(8) 0.7989(8) 0.9480(6)
O14A_2 O 1.2639(8) 0.3672(8) 0.4644(8)
O15A_2 O 1.1374(8) 0.2501(8) 0.5214(7)
O21 O 0.047(2) 0.108(3) 0.419(2)
O22 O 0.942(2) 0.108(3) 0.197(3)
loop_
_geom_bond_atom_site_label_1
_geom_bond_atom_site_label_2
_geom_bond_site_symmetry_1
_geom_bond_site_symmetry_2
U1 O1 1_555 1_555
U2 O3 1_555 1_555
Sm1 O6 1_555 1_555
C1 C2 1_555 1_555
C2 H1 1_555 1_555
C3 C2 1_555 1_555
C4 C3 1_555 1_555
C5 C4 1_555 1_555
H2 C5 1_555 1_555
C6 C1 1_555 1_555
C7 H3 1_555 1_555
C8 C7 1_555 1_555
C9 C8 1_555 1_555
C10 C1 1_555 1_555
C11 C3 1_555 1_555
C12 C4 1_555 1_555
C13 C6 1_555 1_555
C14 C9 1_555 1_555
C15 C8 1_555 1_555
O2 U1 1_555 1_555
O4 U1 1_555 1_555
O5 U1 1_555 1_555
O6 C13 1_555 1_555
O7 U2 1_555 1_555
O8 C12 1_555 1_555
O9 C12 1_555 1_555
O10 C11 1_555 1_555
O11 C11 1_555 1_555
O12 U1 1_555 1_555
O13 C14 1_555 1_555
O14 U2 1_555 1_555
O15 U2 1_555 1_555
O16 Sm1 1_555 1_555
H4 O16 1_555 1_555
H5 O16 1_555 1_555
O17 Sm1 1_555 1_555
H6 O17 1_555 1_555
H7 O17 1_555 1_555
O18 Sm1 1_555 1_555
H8 O18 1_555 1_555
H9 O18 1_555 1_555
O19 Sm1 1_555 1_555
H10 O19 1_555 1_555
H11 O19 1_555 1_555
O20 Sm1 1_555 1_555
H12 O20 1_555 1_555
H13 O20 1_555 1_555
C7A C9 1_555 1_555
H3A C7A 1_555 1_555
C8A C7A 1_555 1_555
C9A C7 1_555 1_555
C14A C9A 1_555 1_555
C15A C8A 1_555 1_555
O12A C14A 1_555 1_555
O13A C14A 1_555 1_555
O14A C15A 1_555 1_555
O15A C15A 1_555 1_555
U1A O12A 1_555 1_555
Sm1A O6A 1_555 1_555
C1A C2A 1_555 1_555
C2A H1A 1_555 1_555
C3A C2A 1_555 1_555
C4A C3A 1_555 1_555
C5A C4A 1_555 1_555
H2A C5A 1_555 1_555
C6A C1A 1_555 1_555
C10A C1A 1_555 1_555
C11A C3A 1_555 1_555
C12A C4A 1_555 1_555
C13A C6A 1_555 1_555
O1A U1A 1_555 1_555
O2A U1A 1_555 1_555
O4A U1A 1_555 1_555
O5A U1A 1_555 1_555
O6A C13A 1_555 1_555
O7A C13A 1_555 1_555
O8A C12A 1_555 1_555
O9A C12A 1_555 1_555
O10A C11A 1_555 1_555
O11A C11A 1_555 1_555
O16A Sm1A 1_555 1_555
H4A O16A 1_555 1_555
H5A O16A 1_555 1_555
O17A Sm1A 1_555 1_555
H6A O17A 1_555 1_555
H7A O17A 1_555 1_555
O18A Sm1A 1_555 1_555
H8A O18A 1_555 1_555
H9A O18A 1_555 1_555
O19A Sm1A 1_555 1_555
H10A O19A 1_555 1_555
H11A O19A 1_555 1_555
O20A Sm1A 1_555 1_555
H12A O20A 1_555 1_555
H13A O20A 1_555 1_555
O3A U2 1_555 1_555
U1_2 O11A 1_555 1_555
U1_3 O8 1_555 1_555
U1A_2 O8A 1_555 1_555
U1A_3 O11 1_555 1_555
U2_2 O14A 1_555 1_555
Sm1_2 O9 1_555 1_555
Sm1A_2 O9A 1_555 1_555
O7A_2 U2 1_555 1_555
O8_2 U1 1_555 1_555
O8A_2 U1A 1_555 1_555
O9_2 Sm1 1_555 1_555
O9A_2 Sm1A 1_555 1_555
O10_2 Sm1 1_555 1_555
O10A_2 Sm1A 1_555 1_555
O11_2 U1A 1_555 1_555
O11A_2 U1 1_555 1_555
O14A_2 U2 1_555 1_555
O15A_2 U2 1_555 1_555
C5 C6 1_555 1_555
C10 O4 1_555 1_555
C10 O5 1_555 1_555
C13 O7 1_555 1_555
C14 O12 1_555 1_555
C15 O14 1_555 1_555
C15 O15 1_555 1_555
O10 Sm1_2 1_555 1_555
C8A C9A 1_555 1_555
O15A U2_2 1_555 1_555
C5A C6A 1_555 1_555
C10A O4A 1_555 1_555
C10A O5A 1_555 1_555
O7A U2_2 1_555 1_555
O10A Sm1A_2 1_555 1_555

#END
