
#######################################################################
#
#                 Cambridge Crystallographic Data Centre
#                                CCDC 
#
#######################################################################
#
# If this CIF has been generated from an entry in the Cambridge 
# Structural Database, then it will include bibliographic, chemical, 
# crystal, experimental, refinement or atomic coordinate data resulting 
# from the CCDC's data processing and validation procedures.
#
#######################################################################

data_EHAGIF
_symmetry_cell_setting           triclinic
_symmetry_space_group_name_H-M   'P -1'
_symmetry_Int_Tables_number      2
_space_group_name_Hall           '-P 1'
loop_
_symmetry_equiv_pos_site_id
_symmetry_equiv_pos_as_xyz
1 x,y,z
2 -x,-y,-z
_cell_length_a                   10.587(13)
_cell_length_b                   11.487(13)
_cell_length_c                   13.372(16)
_cell_angle_alpha                69.301(17)
_cell_angle_beta                 79.25(2)
_cell_angle_gamma                63.140(18)
_cell_volume                     1356.41
loop_
_atom_site_label
_atom_site_type_symbol
_atom_site_fract_x
_atom_site_fract_y
_atom_site_fract_z
U1 U 1.0000 0.5000 0.5000
U2 U 0.62533(4) 0.71279(4) 0.83466(3)
Gd1 Gd 0.60381(6) 0.22774(6) 0.75457(5)
C1 C 1.0018(11) 0.3422(10) 0.8499(8)
C2 C 1.1134(11) 0.3132(10) 0.9064(8)
H1 H 1.0974 0.3610 0.9543
C3 C 1.2475(11) 0.2169(10) 0.8955(7)
C4 C 1.2693(10) 0.1413(10) 0.8263(8)
C5 C 1.1525(12) 0.1636(11) 0.7768(9)
H2 H 1.1645 0.1074 0.7367
C6 C 1.0194(10) 0.2657(9) 0.7845(7)
C7 C 0.6238(12) 0.9998(10) 0.4498(8)
H3 H 0.7093 0.9989 0.4162
C8 C 0.6153(12) 0.8758(11) 0.5037(9)
C9 C 0.4902(12) 0.8752(11) 0.5558(8)
C10 C 0.8642(11) 0.4645(11) 0.8534(9)
C11 C 1.3603(12) 0.1969(10) 0.9571(8)
C12 C 1.4100(11) 0.0373(10) 0.8031(8)
C13 C 0.9001(11) 0.2914(10) 0.7241(9)
C14 C 0.4686(11) 0.7497(10) 0.6194(9)
C15 C 0.7431(12) 0.7457(11) 0.5034(9)
O1 O 0.5379(9) 0.6320(8) 0.9409(6)
O2 O 0.7160(9) 0.7901(8) 0.7293(6)
O3 O 1.0650(9) 0.5021(8) 0.6105(6)
O4 O 0.8525(9) 0.5357(8) 0.9096(7)
O5 O 0.7639(8) 0.4957(8) 0.7989(6)
O6 O 0.8248(8) 0.2295(7) 0.7675(6)
O7 O 0.8893(7) 0.3640(7) 0.6254(6)
O8 O 1.4192(8) -0.0821(7) 0.8233(6)
O9 O 1.5076(8) 0.0712(8) 0.7621(7)
O10 O 1.4794(9) 0.1797(9) 0.9201(6)
O11 O 1.3224(8) 0.2004(7) 1.0537(6)
O12 O 0.5038(8) 0.6966(7) 0.7163(6)
O13 O 0.4142(9) 0.7045(8) 0.5777(6)
O14 O 0.7329(9) 0.6346(8) 0.5323(8)
O15 O 0.8610(9) 0.7482(8) 0.4770(7)
O16 O 0.7715(10) 0.0052(9) 0.8428(7)
H4 H 0.8633 -0.0221 0.8212
H5 H 0.7436 -0.0520 0.8977
O17 O 0.5294(13) 0.4122(10) 0.8246(8)
H6 H 0.5249 0.4943 0.7814
H7 H 0.5048 0.4002 0.8944
O18 O 0.3736(11) 0.3693(11) 0.6790(9)
H8 H 0.3593 0.4460 0.6235
H9 H 0.3015 0.3451 0.7067
O19 O 0.6118(9) 0.4218(8) 0.6097(7)
H10 H 0.5328 0.4841 0.5736
H11 H 0.6932 0.4320 0.5913
O20 O 0.7143(11) 0.1482(9) 0.6075(7)
H12 H 0.7266 0.2067 0.5450
H13 H 0.7448 0.0590 0.6138
C7A C 0.3762(12) 1.0002(10) 0.5502(8)
H3A H 0.2907 1.0011 0.5838
C8A C 0.3847(12) 1.1242(11) 0.4963(9)
C9A C 0.5098(12) 1.1248(11) 0.4442(8)
C14A C 0.5314(11) 1.2503(10) 0.3806(9)
C15A C 0.2569(12) 1.2543(11) 0.4966(9)
O12A O 0.4962(8) 1.3034(7) 0.2837(6)
O13A O 0.5858(9) 1.2955(8) 0.4223(6)
O14A O 0.2671(9) 1.3654(8) 0.4677(8)
O15A O 0.1390(9) 1.2518(8) 0.5230(7)
U2A U 0.37467(4) 1.28721(4) 0.16534(3)
Gd1A Gd 0.39619(6) 1.77226(6) 0.24543(5)
C1A C -0.0018(11) 1.6578(10) 0.1501(8)
C2A C -0.1134(11) 1.6868(10) 0.0936(8)
H1A H -0.0974 1.6390 0.0457
C3A C -0.2475(11) 1.7831(10) 0.1045(7)
C4A C -0.2693(10) 1.8587(10) 0.1737(8)
C5A C -0.1525(12) 1.8364(11) 0.2232(9)
H2A H -0.1645 1.8926 0.2633
C6A C -0.0194(10) 1.7343(9) 0.2155(7)
C10A C 0.1358(11) 1.5355(11) 0.1466(9)
C11A C -0.3603(12) 1.8031(10) 0.0429(8)
C12A C -0.4100(11) 1.9627(10) 0.1969(8)
C13A C 0.0999(11) 1.7086(10) 0.2759(9)
O1A O 0.4621(9) 1.3680(8) 0.0591(6)
O2A O 0.2840(9) 1.2099(8) 0.2707(6)
O4A O 0.1475(9) 1.4643(8) 0.0904(7)
O5A O 0.2361(8) 1.5043(8) 0.2011(6)
O6A O 0.1752(8) 1.7705(7) 0.2325(6)
O7A O 0.1107(7) 1.6360(7) 0.3746(6)
O8A O -0.4192(8) 2.0821(7) 0.1767(6)
O9A O -0.5076(8) 1.9288(8) 0.2379(7)
O10A O -0.4794(9) 1.8203(9) 0.0799(6)
O11A O -0.3224(8) 1.7996(7) -0.0537(6)
O16A O 0.2285(10) 1.9948(9) 0.1572(7)
H4A H 0.1367 2.0221 0.1788
H5A H 0.2564 2.0520 0.1023
O17A O 0.4706(13) 1.5878(10) 0.1754(8)
H6A H 0.4751 1.5057 0.2186
H7A H 0.4952 1.5998 0.1056
O18A O 0.6264(11) 1.6307(11) 0.3210(9)
H8A H 0.6407 1.5540 0.3765
H9A H 0.6985 1.6549 0.2933
O19A O 0.3882(9) 1.5782(8) 0.3903(7)
H10A H 0.4672 1.5159 0.4264
H11A H 0.3068 1.5680 0.4087
O20A O 0.2857(11) 1.8518(9) 0.3925(7)
H12A H 0.2734 1.7933 0.4550
H13A H 0.2552 1.9410 0.3862
O3A O 0.9350(9) 0.4979(8) 0.3895(6)
U1_2 U 0.0000 1.5000 0.5000
U2_2 U -0.37467(4) 1.71279(4) -0.16534(3)
U2_3 U 1.62533(4) -0.28721(4) 0.83466(3)
U2A_2 U -0.62533(4) 2.28721(4) 0.16534(3)
U2A_3 U 1.37467(4) 0.28721(4) 1.16534(3)
Gd1_2 Gd 1.60381(6) 0.22774(6) 0.75457(5)
Gd1A_2 Gd -0.60381(6) 1.77226(6) 0.24543(5)
O7A_2 O 1.1107(7) 0.6360(7) 0.3746(6)
O8_2 O 0.4192(8) 0.9179(7) 0.8233(6)
O8A_2 O 0.5808(8) 1.0821(7) 0.1767(6)
O9_2 O 0.5076(8) 0.0712(8) 0.7621(7)
O9A_2 O 0.4924(8) 1.9288(8) 0.2379(7)
O10_2 O 0.4794(9) 0.1797(9) 0.9201(6)
O10A_2 O 0.5206(9) 1.8203(9) 0.0799(6)
O11_2 O 0.3224(8) 1.2004(7) 0.0537(6)
O11A_2 O 0.6776(8) 0.7996(7) 0.9463(6)
O14A_2 O 1.2671(9) 0.3654(8) 0.4677(8)
O15A_2 O 1.1390(9) 0.2518(8) 0.5230(7)
O21 O 0.792(2) 0.388(2) 0.292(2)
O22 O 0.034(4) 0.139(4) 0.418(3)
O23 O 0.822(5) 0.146(4) 0.015(3)
O24 O 0.923(5) 0.114(4) 0.188(3)
loop_
_geom_bond_atom_site_label_1
_geom_bond_atom_site_label_2
_geom_bond_site_symmetry_1
_geom_bond_site_symmetry_2
U1 O3 1_555 1_555
U2 O1 1_555 1_555
Gd1 O6 1_555 1_555
C1 C2 1_555 1_555
C2 H1 1_555 1_555
C3 C2 1_555 1_555
C4 C3 1_555 1_555
C5 C4 1_555 1_555
H2 C5 1_555 1_555
C6 C1 1_555 1_555
C7 H3 1_555 1_555
C8 C7 1_555 1_555
C9 C8 1_555 1_555
C10 C1 1_555 1_555
C11 C3 1_555 1_555
C12 C4 1_555 1_555
C13 C6 1_555 1_555
C14 C9 1_555 1_555
C15 C8 1_555 1_555
O2 U2 1_555 1_555
O4 U2 1_555 1_555
O5 U2 1_555 1_555
O6 C13 1_555 1_555
O7 U1 1_555 1_555
O8 C12 1_555 1_555
O9 C12 1_555 1_555
O10 C11 1_555 1_555
O11 C11 1_555 1_555
O12 U2 1_555 1_555
O13 C14 1_555 1_555
O14 U1 1_555 1_555
O15 U1 1_555 1_555
O16 Gd1 1_555 1_555
H4 O16 1_555 1_555
H5 O16 1_555 1_555
O17 Gd1 1_555 1_555
H6 O17 1_555 1_555
H7 O17 1_555 1_555
O18 Gd1 1_555 1_555
H8 O18 1_555 1_555
H9 O18 1_555 1_555
O19 Gd1 1_555 1_555
H10 O19 1_555 1_555
H11 O19 1_555 1_555
O20 Gd1 1_555 1_555
H12 O20 1_555 1_555
H13 O20 1_555 1_555
C7A C9 1_555 1_555
H3A C7A 1_555 1_555
C8A C7A 1_555 1_555
C9A C7 1_555 1_555
C14A C9A 1_555 1_555
C15A C8A 1_555 1_555
O12A C14A 1_555 1_555
O13A C14A 1_555 1_555
O14A C15A 1_555 1_555
O15A C15A 1_555 1_555
U2A O12A 1_555 1_555
Gd1A O6A 1_555 1_555
C1A C2A 1_555 1_555
C2A H1A 1_555 1_555
C3A C2A 1_555 1_555
C4A C3A 1_555 1_555
C5A C4A 1_555 1_555
H2A C5A 1_555 1_555
C6A C1A 1_555 1_555
C10A C1A 1_555 1_555
C11A C3A 1_555 1_555
C12A C4A 1_555 1_555
C13A C6A 1_555 1_555
O1A U2A 1_555 1_555
O2A U2A 1_555 1_555
O4A U2A 1_555 1_555
O5A U2A 1_555 1_555
O6A C13A 1_555 1_555
O7A C13A 1_555 1_555
O8A C12A 1_555 1_555
O9A C12A 1_555 1_555
O10A C11A 1_555 1_555
O11A C11A 1_555 1_555
O16A Gd1A 1_555 1_555
H4A O16A 1_555 1_555
H5A O16A 1_555 1_555
O17A Gd1A 1_555 1_555
H6A O17A 1_555 1_555
H7A O17A 1_555 1_555
O18A Gd1A 1_555 1_555
H8A O18A 1_555 1_555
H9A O18A 1_555 1_555
O19A Gd1A 1_555 1_555
H10A O19A 1_555 1_555
H11A O19A 1_555 1_555
O20A Gd1A 1_555 1_555
H12A O20A 1_555 1_555
H13A O20A 1_555 1_555
O3A U1 1_555 1_555
U1_2 O14A 1_555 1_555
U2_2 O11A 1_555 1_555
U2_3 O8 1_555 1_555
U2A_2 O8A 1_555 1_555
U2A_3 O11 1_555 1_555
Gd1_2 O9 1_555 1_555
Gd1A_2 O9A 1_555 1_555
O7A_2 U1 1_555 1_555
O8_2 U2 1_555 1_555
O8A_2 U2A 1_555 1_555
O9_2 Gd1 1_555 1_555
O9A_2 Gd1A 1_555 1_555
O10_2 Gd1 1_555 1_555
O10A_2 Gd1A 1_555 1_555
O11_2 U2A 1_555 1_555
O11A_2 U2 1_555 1_555
O14A_2 U1 1_555 1_555
O15A_2 U1 1_555 1_555
C5 C6 1_555 1_555
C10 O4 1_555 1_555
C10 O5 1_555 1_555
C13 O7 1_555 1_555
C14 O12 1_555 1_555
C15 O14 1_555 1_555
C15 O15 1_555 1_555
O10 Gd1_2 1_555 1_555
C8A C9A 1_555 1_555
O15A U1_2 1_555 1_555
C5A C6A 1_555 1_555
C10A O4A 1_555 1_555
C10A O5A 1_555 1_555
O7A U1_2 1_555 1_555
O10A Gd1A_2 1_555 1_555

#END
