
#######################################################################
#
#                 Cambridge Crystallographic Data Centre
#                                CCDC 
#
#######################################################################
#
# If this CIF has been generated from an entry in the Cambridge 
# Structural Database, then it will include bibliographic, chemical, 
# crystal, experimental, refinement or atomic coordinate data resulting 
# from the CCDC's data processing and validation procedures.
#
#######################################################################

data_EHAGOL
_symmetry_cell_setting           triclinic
_symmetry_space_group_name_H-M   'P -1'
_symmetry_Int_Tables_number      2
_space_group_name_Hall           '-P 1'
loop_
_symmetry_equiv_pos_site_id
_symmetry_equiv_pos_as_xyz
1 x,y,z
2 -x,-y,-z
_cell_length_a                   10.5675(11)
_cell_length_b                   11.5148(12)
_cell_length_c                   13.4306(14)
_cell_angle_alpha                69.151(2)
_cell_angle_beta                 78.569(2)
_cell_angle_gamma                63.2280(10)
_cell_volume                     1362.14
loop_
_atom_site_label
_atom_site_type_symbol
_atom_site_fract_x
_atom_site_fract_y
_atom_site_fract_z
U1 U 0.62428(2) 0.71303(2) 0.836173(18)
U2 U 1.0000 0.5000 0.5000
Tb1 Tb 0.60045(3) 0.22954(3) 0.75007(2)
O1 O 0.5329(5) 0.6345(5) 0.9437(4)
O2 O 0.7190(5) 0.7883(5) 0.7307(4)
O3 O 1.0666(5) 0.5003(5) 0.6107(4)
O4 O 0.8515(5) 0.5361(5) 0.9131(4)
O5 O 0.7630(5) 0.4954(5) 0.8016(4)
O6 O 0.8177(5) 0.2330(5) 0.7706(4)
O7 O 0.8873(4) 0.3633(4) 0.6265(3)
O8 O 1.4179(5) -0.0800(4) 0.8209(4)
O9 O 1.5038(5) 0.0768(5) 0.7543(4)
O10 O 1.4823(5) 0.1766(5) 0.9178(4)
O11 O 1.3245(4) 0.1978(5) 1.0528(3)
O12 O 0.5014(5) 0.6969(5) 0.7176(3)
O13 O 0.4105(6) 0.7031(5) 0.5809(4)
O14 O 0.7338(5) 0.6340(5) 0.5340(5)
O15 O 0.8638(5) 0.7486(5) 0.4780(4)
O16 O 0.7185(6) 0.1498(5) 0.6059(4)
H1 H 0.6719 0.1775 0.5467
H2 H 0.8106 0.0909 0.6095
O17 O 0.6080(5) 0.4227(5) 0.6062(4)
H3 H 0.5283 0.4866 0.5725
H4 H 0.6906 0.4313 0.5854
O18 O 0.3678(6) 0.3768(7) 0.6816(6)
H5 H 0.3545 0.4537 0.6268
H6 H 0.2941 0.3548 0.7108
O19 O 0.5242(7) 0.4113(6) 0.8259(5)
H7 H 0.4382 0.4812 0.8122
H8 H 0.5818 0.4096 0.8682
O20 O 0.7672(5) 0.0098(5) 0.8386(4)
H9 H 0.7434 -0.0617 0.8614
H10 H 0.8543 -0.0025 0.8494
C1 C 0.9983(6) 0.3433(6) 0.8513(5)
C2 C 1.1116(7) 0.3126(7) 0.9088(5)
H11 H 1.0965 0.3585 0.9577
C3 C 1.2461(6) 0.2155(6) 0.8949(5)
C4 C 1.2664(6) 0.1424(6) 0.8240(5)
C5 C 1.1488(6) 0.1659(7) 0.7748(5)
H12 H 1.1601 0.1118 0.7334
C6 C 1.0158(6) 0.2671(6) 0.7856(5)
C7 C 0.6272(7) 0.9989(7) 0.4499(5)
H13 H 0.7134 0.9981 0.4164
C8 C 0.6172(7) 0.8755(6) 0.5050(5)
C9 C 0.4881(7) 0.8770(6) 0.5564(5)
C10 C 0.8643(7) 0.4627(7) 0.8567(5)
C11 C 1.3614(6) 0.1948(6) 0.9566(5)
C12 C 1.4082(6) 0.0392(6) 0.7983(5)
C13 C 0.8966(6) 0.2911(6) 0.7241(5)
C14 C 0.4670(7) 0.7489(7) 0.6220(5)
C15 C 0.7442(7) 0.7465(7) 0.5066(5)
O12A O 0.4986(5) 1.3031(5) 0.2824(3)
O13A O 0.5895(6) 1.2969(5) 0.4191(4)
O14A O 0.2662(5) 1.3660(5) 0.4660(5)
O15A O 0.1362(5) 1.2514(5) 0.5220(4)
C7A C 0.3728(7) 1.0011(7) 0.5501(5)
H13A H 0.2866 1.0019 0.5836
C8A C 0.3828(7) 1.1245(6) 0.4950(5)
C9A C 0.5119(7) 1.1230(6) 0.4436(5)
C14A C 0.5330(7) 1.2511(7) 0.3780(5)
C15A C 0.2558(7) 1.2535(7) 0.4934(5)
U1A U 0.37572(2) 1.28697(2) 0.163827(18)
Tb1A Tb 0.39955(3) 1.77046(3) 0.24993(2)
O1A O 0.4671(5) 1.3655(5) 0.0563(4)
O2A O 0.2810(5) 1.2117(5) 0.2693(4)
O4A O 0.1485(5) 1.4639(5) 0.0869(4)
O5A O 0.2370(5) 1.5046(5) 0.1984(4)
O6A O 0.1823(5) 1.7670(5) 0.2294(4)
O7A O 0.1127(4) 1.6367(4) 0.3735(3)
O8A O -0.4179(5) 2.0800(4) 0.1791(4)
O9A O -0.5038(5) 1.9232(5) 0.2457(4)
O10A O -0.4823(5) 1.8234(5) 0.0822(4)
O11A O -0.3245(4) 1.8022(5) -0.0528(3)
O16A O 0.2815(6) 1.8502(5) 0.3941(4)
H1A H 0.3281 1.8225 0.4533
H2A H 0.1894 1.9091 0.3905
O17A O 0.3920(5) 1.5773(5) 0.3938(4)
H3A H 0.4717 1.5134 0.4275
H4A H 0.3094 1.5687 0.4146
O18A O 0.6322(6) 1.6232(7) 0.3184(6)
H5A H 0.6455 1.5463 0.3732
H6A H 0.7059 1.6452 0.2892
O19A O 0.4758(7) 1.5887(6) 0.1741(5)
H7A H 0.5618 1.5188 0.1878
H8A H 0.4182 1.5904 0.1318
O20A O 0.2328(5) 1.9902(5) 0.1614(4)
H9A H 0.2566 2.0617 0.1386
H10A H 0.1457 2.0025 0.1506
C1A C 0.0017(6) 1.6567(6) 0.1487(5)
C2A C -0.1116(7) 1.6874(7) 0.0912(5)
H11A H -0.0965 1.6415 0.0423
C3A C -0.2461(6) 1.7845(6) 0.1051(5)
C4A C -0.2664(6) 1.8576(6) 0.1760(5)
C5A C -0.1488(6) 1.8341(7) 0.2252(5)
H12A H -0.1601 1.8882 0.2666
C6A C -0.0158(6) 1.7329(6) 0.2144(5)
C10A C 0.1357(7) 1.5373(7) 0.1433(5)
C11A C -0.3614(6) 1.8052(6) 0.0434(5)
C12A C -0.4082(6) 1.9608(6) 0.2017(5)
C13A C 0.1034(6) 1.7089(6) 0.2759(5)
O3A O 0.9334(5) 0.4997(5) 0.3893(4)
U1_2 U -0.37572(2) 1.71303(2) -0.163827(18)
U1_3 U 1.62428(2) -0.28697(2) 0.836173(18)
U1A_2 U -0.62428(2) 2.28697(2) 0.163827(18)
U1A_3 U 1.37572(2) 0.28697(2) 1.163827(18)
U2_2 U 0.0000 1.5000 0.5000
Tb1_2 Tb 1.60045(3) 0.22954(3) 0.75007(2)
Tb1A_2 Tb -0.60045(3) 1.77046(3) 0.24993(2)
O7A_2 O 1.1127(4) 0.6367(4) 0.3735(3)
O8_2 O 0.4179(5) 0.9200(4) 0.8209(4)
O8A_2 O 0.5821(5) 1.0800(4) 0.1791(4)
O9_2 O 0.5038(5) 0.0768(5) 0.7543(4)
O9A_2 O 0.4962(5) 1.9232(5) 0.2457(4)
O10_2 O 0.4823(5) 0.1766(5) 0.9178(4)
O10A_2 O 0.5177(5) 1.8234(5) 0.0822(4)
O11_2 O 0.3245(4) 1.1978(5) 0.0528(3)
O11A_2 O 0.6755(4) 0.8022(5) 0.9472(3)
O14A_2 O 1.2662(5) 0.3660(5) 0.4660(5)
O15A_2 O 1.1362(5) 0.2514(5) 0.5220(4)
O21 O 0.0559(15) 0.1111(17) 0.4174(12)
O22 O 0.804(2) 0.3843(17) 0.277(2)
O23 O 0.9494(14) 0.1032(19) 0.197(2)
O24 O 0.8033(16) 0.1551(16) 0.0173(12)
loop_
_geom_bond_atom_site_label_1
_geom_bond_atom_site_label_2
_geom_bond_site_symmetry_1
_geom_bond_site_symmetry_2
U1 O1 1_555 1_555
U2 O3 1_555 1_555
Tb1 O6 1_555 1_555
O2 U1 1_555 1_555
O4 U1 1_555 1_555
O5 U1 1_555 1_555
O6 C13 1_555 1_555
O7 U2 1_555 1_555
O8 C12 1_555 1_555
O9 C12 1_555 1_555
O10 C11 1_555 1_555
O11 C11 1_555 1_555
O12 U1 1_555 1_555
O13 C14 1_555 1_555
O14 U2 1_555 1_555
O15 U2 1_555 1_555
O16 Tb1 1_555 1_555
H1 O16 1_555 1_555
H2 O16 1_555 1_555
O17 Tb1 1_555 1_555
H3 O17 1_555 1_555
H4 O17 1_555 1_555
O18 Tb1 1_555 1_555
H5 O18 1_555 1_555
H6 O18 1_555 1_555
O19 Tb1 1_555 1_555
H7 O19 1_555 1_555
H8 O19 1_555 1_555
O20 Tb1 1_555 1_555
H9 O20 1_555 1_555
H10 O20 1_555 1_555
C1 C2 1_555 1_555
C2 H11 1_555 1_555
C3 C2 1_555 1_555
C4 C3 1_555 1_555
C5 C4 1_555 1_555
H12 C5 1_555 1_555
C6 C1 1_555 1_555
C7 H13 1_555 1_555
C8 C7 1_555 1_555
C9 C8 1_555 1_555
C10 O4 1_555 1_555
C11 C3 1_555 1_555
C12 C4 1_555 1_555
C13 O7 1_555 1_555
C14 O12 1_555 1_555
C15 O14 1_555 1_555
O12A C14A 1_555 1_555
O13A C14A 1_555 1_555
O14A C15A 1_555 1_555
O15A C15A 1_555 1_555
C7A C9 1_555 1_555
H13A C7A 1_555 1_555
C8A C7A 1_555 1_555
C9A C7 1_555 1_555
C14A C9A 1_555 1_555
C15A C8A 1_555 1_555
U1A O12A 1_555 1_555
Tb1A O6A 1_555 1_555
O1A U1A 1_555 1_555
O2A U1A 1_555 1_555
O4A U1A 1_555 1_555
O5A U1A 1_555 1_555
O6A C13A 1_555 1_555
O7A C13A 1_555 1_555
O8A C12A 1_555 1_555
O9A C12A 1_555 1_555
O10A C11A 1_555 1_555
O11A C11A 1_555 1_555
O16A Tb1A 1_555 1_555
H1A O16A 1_555 1_555
H2A O16A 1_555 1_555
O17A Tb1A 1_555 1_555
H3A O17A 1_555 1_555
H4A O17A 1_555 1_555
O18A Tb1A 1_555 1_555
H5A O18A 1_555 1_555
H6A O18A 1_555 1_555
O19A Tb1A 1_555 1_555
H7A O19A 1_555 1_555
H8A O19A 1_555 1_555
O20A Tb1A 1_555 1_555
H9A O20A 1_555 1_555
H10A O20A 1_555 1_555
C1A C2A 1_555 1_555
C2A H11A 1_555 1_555
C3A C2A 1_555 1_555
C4A C3A 1_555 1_555
C5A C4A 1_555 1_555
H12A C5A 1_555 1_555
C6A C1A 1_555 1_555
C10A O4A 1_555 1_555
C11A C3A 1_555 1_555
C12A C4A 1_555 1_555
C13A C6A 1_555 1_555
O3A U2 1_555 1_555
U1_2 O11A 1_555 1_555
U1_3 O8 1_555 1_555
U1A_2 O8A 1_555 1_555
U1A_3 O11 1_555 1_555
U2_2 O14A 1_555 1_555
Tb1_2 O9 1_555 1_555
Tb1A_2 O9A 1_555 1_555
O7A_2 U2 1_555 1_555
O8_2 U1 1_555 1_555
O8A_2 U1A 1_555 1_555
O9_2 Tb1 1_555 1_555
O9A_2 Tb1A 1_555 1_555
O10_2 Tb1 1_555 1_555
O10A_2 Tb1A 1_555 1_555
O11_2 U1A 1_555 1_555
O11A_2 U1 1_555 1_555
O14A_2 U2 1_555 1_555
O15A_2 U2 1_555 1_555
O5 C10 1_555 1_555
O10 Tb1_2 1_555 1_555
O15 C15 1_555 1_555
C1 C10 1_555 1_555
C5 C6 1_555 1_555
C6 C13 1_555 1_555
C8 C15 1_555 1_555
C9 C14 1_555 1_555
O15A U2_2 1_555 1_555
C8A C9A 1_555 1_555
O5A C10A 1_555 1_555
O7A U2_2 1_555 1_555
O10A Tb1A_2 1_555 1_555
C1A C10A 1_555 1_555
C5A C6A 1_555 1_555

#END
