
#######################################################################
#
#                 Cambridge Crystallographic Data Centre
#                                CCDC 
#
#######################################################################
#
# If this CIF has been generated from an entry in the Cambridge 
# Structural Database, then it will include bibliographic, chemical, 
# crystal, experimental, refinement or atomic coordinate data resulting 
# from the CCDC's data processing and validation procedures.
#
#######################################################################

data_EJEKOU
_symmetry_cell_setting           monoclinic
_symmetry_space_group_name_H-M   'C 2/c'
_symmetry_Int_Tables_number      15
_space_group_name_Hall           '-C 2yn'
loop_
_symmetry_equiv_pos_site_id
_symmetry_equiv_pos_as_xyz
1 x,y,z
2 -x,y,1/2-z
3 1/2+x,1/2+y,z
4 1/2-x,1/2+y,1/2-z
5 -x,-y,-z
6 x,-y,1/2+z
7 1/2-x,1/2-y,-z
8 1/2+x,1/2-y,1/2+z
_cell_length_a                   20.545(5)
_cell_length_b                   15.456(4)
_cell_length_c                   13.721(4)
_cell_angle_alpha                90
_cell_angle_beta                 90.865(4)
_cell_angle_gamma                90
_cell_volume                     4356.52
loop_
_atom_site_label
_atom_site_type_symbol
_atom_site_fract_x
_atom_site_fract_y
_atom_site_fract_z
N5 N 0.0000 1.0049(5) 1.7500
H9 H 0.0281 0.9702 1.7189
C14 C -0.0359(4) 1.0479(7) 1.6791(8)
H10 H -0.0571 1.0071 1.6366
H11 H -0.0680 1.0836 1.7095
H12 H -0.0071 1.0836 1.6420
H9A H -0.0281 0.9702 1.7811
C14A C 0.0359(4) 1.0479(7) 1.8209(8)
H10A H 0.0571 1.0071 1.8634
H11A H 0.0680 1.0836 1.7905
H12A H 0.0071 1.0836 1.8580
N6 N -0.2621(6) 0.7646(8) 1.4659(9)
H13 H -0.2345 0.7765 1.5186
C15 C -0.2249(8) 0.7735(10) 1.3747(11)
H14 H -0.2116 0.8339 1.3664
H15 H -0.1861 0.7365 1.3782
H16 H -0.2523 0.7558 1.3191
C16 C -0.2777(9) 0.6713(8) 1.4661(15)
H17 H -0.3026 0.6572 1.5244
H18 H -0.3036 0.6570 1.4078
H19 H -0.2372 0.6377 1.4663
C17 C -0.3155(8) 0.8167(10) 1.4714(15)
H20 H -0.3589 0.7974 1.4799
O2 O -0.2006(9) 0.6104(9) 1.5361(14)
N6F N -0.2379(6) 0.7354(8) 1.5341(9)
H13F H -0.2655 0.7235 1.4814
C15F C -0.2751(8) 0.7265(10) 1.6253(11)
H14F H -0.2884 0.6661 1.6336
H15F H -0.3139 0.7635 1.6218
H16F H -0.2477 0.7442 1.6809
C16F C -0.2223(9) 0.8287(8) 1.5339(15)
H17F H -0.1974 0.8428 1.4756
H18F H -0.1964 0.8430 1.5922
H19F H -0.2628 0.8623 1.5337
C17F C -0.1845(8) 0.6833(10) 1.5286(15)
H20F H -0.1411 0.7026 1.5201
O2F O -0.2994(9) 0.8896(9) 1.4639(14)
Co1 Co 0.2500 1.2500 2.0000
Co2 Co 0.16021(3) 1.11685(5) 2.13351(5)
Cl1 Cl 0.10635(8) 1.15759(11) 2.26863(11)
Cl2 Cl 0.12743(9) 0.98510(10) 2.08012(14)
O1 O 0.15604(16) 1.2033(2) 2.0283(2)
N1 N 0.2092(2) 1.3228(3) 1.8929(3)
N2 N 0.2435(2) 1.3824(3) 1.8404(3)
N3 N 0.1376(2) 1.3990(3) 1.8033(4)
N4 N 0.2336(2) 1.6427(3) 1.6021(3)
C1 C 0.0984(3) 1.2263(3) 1.9884(4)
C2 C 0.0407(3) 1.1894(4) 2.0232(4)
H1 H 0.0437 1.1489 2.0752
C3 C -0.0204(3) 1.2094(5) 1.9851(5)
H2 H -0.0583 1.1829 2.0104
C4 C -0.0252(3) 1.2686(5) 1.9099(5)
H3 H -0.0666 1.2825 1.8825
C5 C 0.0293(3) 1.3069(5) 1.8750(5)
H4 H 0.0250 1.3487 1.8246
C6 C 0.0921(3) 1.2866(4) 1.9112(4)
C7 C 0.1469(3) 1.3354(4) 1.8697(4)
C8 C 0.1984(3) 1.4267(4) 1.7891(4)
C9 C 0.2128(3) 1.4998(4) 1.7236(4)
C10 C 0.2733(3) 1.5189(4) 1.6895(5)
H5 H 0.3094 1.4831 1.7061
C11 C 0.2816(3) 1.5909(4) 1.6307(5)
H6 H 0.3244 1.6039 1.6096
C12 C 0.1749(3) 1.6243(5) 1.6348(6)
H7 H 0.1398 1.6613 1.6167
C13 C 0.1618(3) 1.5539(5) 1.6942(6)
H8 H 0.1187 1.5426 1.7146
Co1C Co 0.2500 1.7500 1.5000
Co1C_2 Co 0.2500 0.7500 2.5000
Co2F Co 0.33979(3) 1.38315(5) 1.86649(5)
Cl1F Cl 0.39365(8) 1.34241(11) 1.73137(11)
Cl2F Cl 0.37257(9) 1.51490(10) 1.91988(14)
O1F O 0.34396(16) 1.2967(2) 1.9717(2)
N1F N 0.2908(2) 1.1772(3) 2.1071(3)
N2F N 0.2565(2) 1.1176(3) 2.1596(3)
N3F N 0.3624(2) 1.1010(3) 2.1967(4)
N4F N 0.2664(2) 0.8573(3) 2.3979(3)
N4C N 0.2664(2) 1.1427(3) 1.8979(3)
N4E N 0.2336(2) 1.3573(3) 2.1021(3)
C1F C 0.4016(3) 1.2737(3) 2.0116(4)
C2F C 0.4593(3) 1.3106(4) 1.9768(4)
H1F H 0.4563 1.3511 1.9248
C3F C 0.5204(3) 1.2906(5) 2.0149(5)
H2F H 0.5583 1.3171 1.9896
C4F C 0.5252(3) 1.2314(5) 2.0901(5)
H3F H 0.5666 1.2175 2.1175
C5F C 0.4707(3) 1.1931(5) 2.1250(5)
H4F H 0.4750 1.1513 2.1754
C6F C 0.4079(3) 1.2134(4) 2.0888(4)
C7F C 0.3531(3) 1.1646(4) 2.1303(4)
C8F C 0.3016(3) 1.0733(4) 2.2109(4)
C9F C 0.2872(3) 1.0002(4) 2.2764(4)
C10F C 0.2267(3) 0.9811(4) 2.3105(5)
H5F H 0.1906 1.0169 2.2939
C11F C 0.2184(3) 0.9091(4) 2.3693(5)
H6F H 0.1756 0.8961 2.3904
C12F C 0.3251(3) 0.8757(5) 2.3652(6)
H7F H 0.3602 0.8387 2.3833
C13F C 0.3382(3) 0.9461(5) 2.3058(6)
H8F H 0.3813 0.9574 2.2854
loop_
_geom_bond_atom_site_label_1
_geom_bond_atom_site_label_2
_geom_bond_site_symmetry_1
_geom_bond_site_symmetry_2
Co1 O1 1_555 1_555
Co2 Cl1 1_555 1_555
Cl2 Co2 1_555 1_555
O1 Co2 1_555 1_555
N1 Co1 1_555 1_555
N2 N1 1_555 1_555
N3 C7 1_555 1_555
N4 C11 1_555 1_555
C1 O1 1_555 1_555
C2 C1 1_555 1_555
H1 C2 1_555 1_555
C3 C2 1_555 1_555
H2 C3 1_555 1_555
C4 C3 1_555 1_555
H3 C4 1_555 1_555
C5 C4 1_555 1_555
H4 C5 1_555 1_555
C6 C1 1_555 1_555
C7 N1 1_555 1_555
C8 N2 1_555 1_555
C9 C8 1_555 1_555
C10 C9 1_555 1_555
H5 C10 1_555 1_555
C11 C10 1_555 1_555
H6 C11 1_555 1_555
C12 N4 1_555 1_555
H7 C12 1_555 1_555
C13 C9 1_555 1_555
H8 C13 1_555 1_555
N5 H9 1_555 1_555
C14 N5 1_555 1_555
H10 C14 1_555 1_555
H11 C14 1_555 1_555
H12 C14 1_555 1_555
N6 H13 1_555 1_555
H13 N6F 1_555 1_555
C15 N6 1_555 1_555
H14 C15 1_555 1_555
H15 C15 1_555 1_555
H16 C15 1_555 1_555
C16 N6 1_555 1_555
H17 C16 1_555 1_555
H18 C16 1_555 1_555
H19 C16 1_555 1_555
C17 N6 1_555 1_555
H20 C17 1_555 1_555
O2 H19 1_555 1_555
Co1C N4 1_555 1_555
Co1C_2 N4F 1_555 1_555
Co2F N2 1_555 1_555
Cl1F Co2F 1_555 1_555
Cl2F Co2F 1_555 1_555
O1F Co1 1_555 1_555
N1F Co1 1_555 1_555
N2F Co2 1_555 1_555
N3F C7F 1_555 1_555
N4F C11F 1_555 1_555
N4C Co1 1_555 1_555
N4E Co1 1_555 1_555
C1F O1F 1_555 1_555
C2F C1F 1_555 1_555
H1F C2F 1_555 1_555
C3F C2F 1_555 1_555
H2F C3F 1_555 1_555
C4F C3F 1_555 1_555
H3F C4F 1_555 1_555
C5F C4F 1_555 1_555
H4F C5F 1_555 1_555
C6F C1F 1_555 1_555
C7F N1F 1_555 1_555
C8F N2F 1_555 1_555
C9F C8F 1_555 1_555
C10F C9F 1_555 1_555
H5F C10F 1_555 1_555
C11F C10F 1_555 1_555
H6F C11F 1_555 1_555
C12F N4F 1_555 1_555
H7F C12F 1_555 1_555
C13F C9F 1_555 1_555
H8F C13F 1_555 1_555
H9A N5 1_555 1_555
C14A N5 1_555 1_555
H10A C14A 1_555 1_555
H11A C14A 1_555 1_555
H12A C14A 1_555 1_555
N6F N6 1_555 1_555
H13F N6 1_555 1_555
C15F N6F 1_555 1_555
H14F C15F 1_555 1_555
H15F C15F 1_555 1_555
H16F C15F 1_555 1_555
C16F N6 1_555 1_555
H17F C16F 1_555 1_555
H18F C16F 1_555 1_555
H19F C16F 1_555 1_555
C17F O2 1_555 1_555
H20F C17F 1_555 1_555
O2F C17 1_555 1_555
N3 C8 1_555 1_555
C5 C6 1_555 1_555
C6 C7 1_555 1_555
C12 C13 1_555 1_555
H13 C16F 1_555 1_555
C16 N6F 1_555 1_555
C16 H13F 1_555 1_555
Co2F O1F 1_555 1_555
N1F N2F 1_555 1_555
N3F C8F 1_555 1_555
C5F C6F 1_555 1_555
C6F C7F 1_555 1_555
C12F C13F 1_555 1_555
N6F H13F 1_555 1_555
N6F C16F 1_555 1_555
N6F C17F 1_555 1_555
H19F O2F 1_555 1_555

#END
