
#######################################################################
#
#                 Cambridge Crystallographic Data Centre
#                                CCDC 
#
#######################################################################
#
# If this CIF has been generated from an entry in the Cambridge 
# Structural Database, then it will include bibliographic, chemical, 
# crystal, experimental, refinement or atomic coordinate data resulting 
# from the CCDC's data processing and validation procedures.
#
#######################################################################

data_EKEQIV
_symmetry_cell_setting           monoclinic
_symmetry_space_group_name_H-M   'P 21/c'
_symmetry_Int_Tables_number      14
_space_group_name_Hall           '-P 2ybc'
loop_
_symmetry_equiv_pos_site_id
_symmetry_equiv_pos_as_xyz
1 x,y,z
2 -x,1/2+y,1/2-z
3 -x,-y,-z
4 x,1/2-y,1/2+z
_cell_length_a                   9.618(3)
_cell_length_b                   13.996(4)
_cell_length_c                   19.842(6)
_cell_angle_alpha                90
_cell_angle_beta                 99.182(4)
_cell_angle_gamma                90
_cell_volume                     2636.78
loop_
_atom_site_label
_atom_site_type_symbol
_atom_site_fract_x
_atom_site_fract_y
_atom_site_fract_z
Cu1 Cu -0.76938(13) 0.90795(9) 0.28125(7)
Mo1 Mo -1.29947(8) 0.90498(6) 0.01616(4)
Mo2 Mo -0.92354(8) 0.89836(5) -0.03582(4)
Mo3 Mo -1.00880(8) 0.88139(6) 0.12112(4)
Mo4 Mo -0.63966(8) 0.88926(6) 0.07858(4)
C1 C -1.1557(11) 1.2985(8) -0.2665(6)
H1 H -1.0664 1.2775 -0.2472
C2 C -1.1774(12) 1.3935(7) -0.2754(5)
H2 H -0.1036 1.0638 0.2371
C3 C -0.3073(12) 1.0733(8) 0.1971(5)
H3 H -0.3237 1.0083 0.1904
C4 C -1.4170(12) 1.3592(8) -0.3209(6)
H4 H -0.5069 1.1206 0.1602
C5 C -1.3887(10) 1.2631(7) -0.3102(5)
C6 C -0.4845(11) 1.3155(7) 0.1737(5)
C7 C -1.5402(11) 1.0332(8) -0.3363(6)
H5 H -1.5321 0.9670 -0.3375
C8 C -0.6647(12) 1.4152(7) 0.1529(6)
H6 H -0.7555 1.4399 0.1435
C9 C -0.7306(11) 1.2424(7) 0.1543(5)
H7 H -0.7098 1.1955 0.1213
H8 H -0.8236 1.2681 0.1382
C10 C -0.7304(10) 1.1931(7) 0.2239(5)
C11 C -0.6998(12) 1.2420(8) 0.2844(6)
H9 H -0.6766 1.3066 0.2852
C12 C -0.7048(12) 1.1916(8) 0.3449(6)
H10 H -0.6860 1.2220 0.3871
C13 C -0.7381(12) 1.0958(7) 0.3406(6)
H11 H -0.7422 1.0623 0.3807
C14 C -0.7590(10) 1.0976(7) 0.2246(5)
H12 H -0.7753 1.0652 0.1832
N1 N -1.2563(9) 1.2337(6) -0.2841(4)
N2 N -1.4310(9) 1.0969(5) -0.3232(4)
N3 N -0.6274(9) 1.3193(6) 0.1587(4)
N4 N -0.7648(9) 1.0490(6) 0.2812(4)
O1 O -1.2994(7) 0.7862(5) 0.0017(3)
O2 O -1.1992(6) 0.9039(4) 0.1155(3)
O3 O -1.0838(6) 0.9229(4) 0.0143(3)
O4 O -1.0093(7) 0.7604(5) 0.1146(3)
O5 O -0.9316(7) 0.9024(5) 0.2055(3)
O6 O -0.8462(6) 0.8997(4) 0.0719(3)
O7 O -1.0003(7) 1.0491(4) 0.1125(3)
O8 O -0.9332(7) 0.7792(5) -0.0500(3)
O9 O -1.2652(6) 1.0713(4) 0.0300(3)
O10 O -1.3383(6) 0.9508(5) -0.0676(3)
O11 O -0.6001(7) 0.9006(5) 0.1644(3)
O12 O -0.6294(8) 0.7703(5) 0.0646(4)
O13 O -1.4633(6) 0.9241(5) 0.0510(3)
O14 O -0.9090(10) 0.8986(6) 0.3659(4)
Cu1B Cu -1.23062(13) 1.09205(9) -0.28125(7)
Cu1A Cu -0.23062(13) 1.40795(9) 0.21875(7)
Cu1C Cu -1.76938(13) 1.59205(9) -0.21875(7)
Mo1B Mo -0.70053(8) 1.09502(6) -0.01616(4)
Mo2B Mo -1.07646(8) 1.10164(5) 0.03582(4)
Mo3B Mo -0.99120(8) 1.11861(6) -0.12112(4)
Mo4B Mo -1.36034(8) 1.11074(6) -0.07858(4)
Mo4_2 Mo -1.63966(8) 0.88926(6) 0.07858(4)
Mo4B_2 Mo -0.36034(8) 1.11074(6) -0.07858(4)
C1C C -0.1557(11) 1.2015(8) 0.2335(6)
H1C H -0.0664 1.2225 0.2528
C2C C -0.1774(12) 1.1065(7) 0.2246(5)
H2C H -1.1036 1.4362 -0.2629
C3C C -1.3073(12) 1.4267(8) -0.3029(5)
H3C H -1.3237 1.4917 -0.3096
C4C C -0.4170(12) 1.1408(8) 0.1791(6)
H4C H -1.5069 1.3794 -0.3398
C5C C -0.3887(10) 1.2369(7) 0.1898(5)
C6C C -1.4845(11) 1.1845(7) -0.3263(5)
C7C C -0.5402(11) 1.4668(8) 0.1637(6)
H5C H -0.5321 1.5330 0.1625
C8C C -1.6647(12) 1.0848(7) -0.3471(6)
H6C H -1.7555 1.0601 -0.3565
C9C C -1.7306(11) 1.2576(7) -0.3457(5)
H7C H -1.7098 1.3045 -0.3787
H8C H -1.8236 1.2319 -0.3618
C10C C -1.7304(10) 1.3069(7) -0.2761(5)
C11C C -1.6998(12) 1.2580(8) -0.2156(6)
H9C H -1.6766 1.1934 -0.2148
C12C C -1.7048(12) 1.3084(8) -0.1551(6)
H10C H -1.6860 1.2780 -0.1129
C13C C -1.7381(12) 1.4042(7) -0.1594(6)
H11C H -1.7422 1.4377 -0.1193
C14C C -1.7590(10) 1.4024(7) -0.2754(5)
H12C H -1.7753 1.4348 -0.3168
N1B N -0.7437(9) 0.7663(6) 0.2841(4)
N1C N -0.2563(9) 1.2663(6) 0.2159(4)
N2B N -0.5690(9) 0.9031(5) 0.3232(4)
N2C N -0.4310(9) 1.4031(5) 0.1768(4)
N3C N -1.6274(9) 1.1807(6) -0.3413(4)
N4B N -1.2352(9) 0.9510(6) -0.2812(4)
N4C N -1.7648(9) 1.4510(6) -0.2188(4)
O1B O -0.7006(7) 1.2138(5) -0.0017(3)
O2B O -0.8008(6) 1.0961(4) -0.1155(3)
O3B O -0.9162(6) 1.0771(4) -0.0143(3)
O4B O -0.9907(7) 1.2396(5) -0.1146(3)
O5B O -1.0684(7) 1.0976(5) -0.2055(3)
O6B O -1.1538(6) 1.1003(4) -0.0719(3)
O7B O -0.9997(7) 0.9509(4) -0.1125(3)
O8B O -1.0668(7) 1.2208(5) 0.0500(3)
O9B O -0.7348(6) 0.9287(4) -0.0300(3)
O10B O -0.6617(6) 1.0492(5) 0.0676(3)
O11B O -1.3999(7) 1.0994(5) -0.1644(3)
O12B O -1.3706(8) 1.2297(5) -0.0646(4)
O13_2 O -0.4633(6) 0.9241(5) 0.0510(3)
O13B O -1.5367(6) 1.0759(5) -0.0510(3)
O13B_2 O -0.5367(6) 1.0759(5) -0.0510(3)
O14B O -1.0910(10) 1.1014(6) -0.3659(4)
O15 O -0.0459(13) 1.0604(8) 0.4108(7)
O16 O -0.270(2) 0.0900(13) 0.4986(9)
loop_
_geom_bond_atom_site_label_1
_geom_bond_atom_site_label_2
_geom_bond_site_symmetry_1
_geom_bond_site_symmetry_2
Cu1 N4 1_555 1_555
Mo1 O1 1_555 1_555
Mo2 O3 1_555 1_555
Mo3 O2 1_555 1_555
Mo4 O6 1_555 1_555
C1 H1 1_555 1_555
C2 C1 1_555 1_555
H2 C2C 1_555 1_555
C3 H3 1_555 1_555
C4 C5 1_555 1_555
H4 C4C 1_555 1_555
C5 N1 1_555 1_555
C6 N3 1_555 1_555
C7 H5 1_555 1_555
C8 H6 1_555 1_555
C9 H7 1_555 1_555
H8 C9 1_555 1_555
C10 C9 1_555 1_555
C11 C10 1_555 1_555
H9 C11 1_555 1_555
C12 C11 1_555 1_555
H10 C12 1_555 1_555
C13 C12 1_555 1_555
H11 C13 1_555 1_555
C14 C10 1_555 1_555
H12 C14 1_555 1_555
N1 C1 1_555 1_555
N2 C7 1_555 1_555
N3 C8 1_555 1_555
N4 C13 1_555 1_555
O2 Mo1 1_555 1_555
O3 Mo1 1_555 1_555
O4 Mo3 1_555 1_555
O5 Cu1 1_555 1_555
O6 Mo2 1_555 1_555
O7 Mo3 1_555 1_555
O8 Mo2 1_555 1_555
O9 Mo1 1_555 1_555
O10 Mo1 1_555 1_555
O11 Mo4 1_555 1_555
O12 Mo4 1_555 1_555
O13 Mo1 1_555 1_555
O14 Cu1 1_555 1_555
Cu1B N1 1_555 1_555
Cu1A N1C 1_555 1_555
Cu1C N4C 1_555 1_555
Mo1B O1B 1_555 1_555
Mo2B O7 1_555 1_555
Mo3B O2B 1_555 1_555
Mo4B O9 1_555 1_555
Mo4_2 O13 1_555 1_555
Mo4B_2 O13B_2 1_555 1_555
C1C H1C 1_555 1_555
C2C C3 1_555 1_555
H2C C2 1_555 1_555
C3C C2 1_555 1_555
H3C C3C 1_555 1_555
C4C C3 1_555 1_555
H4C C4 1_555 1_555
C5C C6 1_555 1_555
C6C C5 1_555 1_555
C7C C8 1_555 1_555
H5C C7C 1_555 1_555
C8C C7 1_555 1_555
H6C C8C 1_555 1_555
C9C H7C 1_555 1_555
H8C C9C 1_555 1_555
C10C C9C 1_555 1_555
C11C C10C 1_555 1_555
H9C C11C 1_555 1_555
C12C C11C 1_555 1_555
H10C C12C 1_555 1_555
C13C C12C 1_555 1_555
H11C C13C 1_555 1_555
C14C C10C 1_555 1_555
H12C C14C 1_555 1_555
N1B Cu1 1_555 1_555
N1C C1C 1_555 1_555
N2B Cu1 1_555 1_555
N2C C6 1_555 1_555
N3C C6C 1_555 1_555
N4B Cu1B 1_555 1_555
N4C C13C 1_555 1_555
O2B Mo1B 1_555 1_555
O3B Mo1B 1_555 1_555
O4B Mo3B 1_555 1_555
O5B Cu1B 1_555 1_555
O6B Mo2B 1_555 1_555
O7B Mo2 1_555 1_555
O8B Mo2B 1_555 1_555
O9B Mo2 1_555 1_555
O10B Mo4 1_555 1_555
O11B Mo4B 1_555 1_555
O12B Mo4B 1_555 1_555
O13_2 Mo4 1_555 1_555
O13B Mo4B 1_555 1_555
O13B_2 Mo1B 1_555 1_555
O14B Cu1B 1_555 1_555
Mo3 O3 1_555 1_555
Mo3 O5 1_555 1_555
Mo3 O6 1_555 1_555
Mo4 O9B 1_555 1_555
C4 C3C 1_555 1_555
C9 N3 1_555 1_555
C14 N4 1_555 1_555
N2 Cu1B 1_555 1_555
N2 C6C 1_555 1_555
O9 Mo2B 1_555 1_555
O10 Mo4B 1_555 1_555
Cu1A N2C 1_555 1_555
Mo1B O9B 1_555 1_555
Mo1B O10B 1_555 1_555
Mo2B O3B 1_555 1_555
Mo3B O3B 1_555 1_555
Mo3B O5B 1_555 1_555
Mo3B O6B 1_555 1_555
Mo3B O7B 1_555 1_555
Mo4B O6B 1_555 1_555
C1C C2C 1_555 1_555
C4C C5C 1_555 1_555
C5C N1C 1_555 1_555
C7C N2C 1_555 1_555
C8C N3C 1_555 1_555
C9C N3C 1_555 1_555
C14C N4C 1_555 1_555

#END
