
#######################################################################
#
#                 Cambridge Crystallographic Data Centre
#                                CCDC 
#
#######################################################################
#
# If this CIF has been generated from an entry in the Cambridge 
# Structural Database, then it will include bibliographic, chemical, 
# crystal, experimental, refinement or atomic coordinate data resulting 
# from the CCDC's data processing and validation procedures.
#
#######################################################################

data_ELIJUF
_symmetry_cell_setting           triclinic
_symmetry_space_group_name_H-M   'P -1'
_symmetry_Int_Tables_number      2
_space_group_name_Hall           '-P 1'
loop_
_symmetry_equiv_pos_site_id
_symmetry_equiv_pos_as_xyz
1 x,y,z
2 -x,-y,-z
_cell_length_a                   9.3530(16)
_cell_length_b                   9.7970(16)
_cell_length_c                   11.3880(19)
_cell_angle_alpha                94.340(2)
_cell_angle_beta                 99.407(2)
_cell_angle_gamma                111.455(2)
_cell_volume                     947.644
loop_
_atom_site_label
_atom_site_type_symbol
_atom_site_fract_x
_atom_site_fract_y
_atom_site_fract_z
C1 C 0.8249(8) 0.5873(8) -0.2452(6)
C2 C 0.8841(9) 0.6723(8) -0.1234(6)
C3 C 0.8143(10) 0.7604(10) -0.0745(7)
H1 H 0.7262 0.7669 -0.1210
C4 C 0.8690(10) 0.8354(10) 0.0362(7)
H2 H 0.8234 0.8982 0.0638
C5 C 0.9944(9) 0.8205(8) 0.1111(7)
C6 C 1.0680(10) 0.7366(10) 0.0671(7)
H3 H 1.1549 0.7301 0.1155
C7 C 1.0137(10) 0.6612(9) -0.0491(7)
H4 H 1.0632 0.6029 -0.0781
C8 C 0.9520(8) 0.9225(8) 0.2924(6)
C9 C 0.8197(8) 0.8044(8) 0.3090(6)
H5 H 0.8003 0.7076 0.2772
C10 C 0.7189(8) 0.8342(7) 0.3733(6)
C11 C 0.7491(8) 0.9775(7) 0.4204(6)
H6 H 0.6779 0.9975 0.4599
C12 C 0.8859(8) 1.0937(8) 0.4096(6)
C13 C 0.9874(8) 1.0644(8) 0.3458(6)
H7 H 1.0795 1.1405 0.3391
C14 C 0.5805(8) 0.7090(7) 0.3969(6)
C15 C 0.9185(8) 1.2467(7) 0.4668(6)
O1 O 0.8778(6) 0.4955(6) -0.2828(4)
O2 O 0.7185(6) 0.6107(6) -0.3169(4)
O3 O 0.5123(6) 0.2842(6) -0.6440(5)
O4 O 0.4534(6) 0.7249(5) 0.3942(5)
O5 O 0.5977(6) 0.5923(5) 0.4222(4)
O7 O 0.8109(6) 1.2693(5) 0.5083(5)
O8 O 1.0504(6) 1.3447(5) 0.4715(5)
O9 O 1.0548(5) 0.8950(6) 0.2274(4)
Y1 Y 0.72346(7) 0.45490(7) -0.48855(5)
O10 O 0.8076(6) 0.4531(6) -0.6831(5)
O4A O 0.5466(6) 0.2751(5) -0.3942(5)
O5_2 O 0.5977(6) 0.5923(5) -0.5778(4)
O7_2 O 0.8109(6) 0.2693(5) -0.4917(5)
O8A O 0.9496(6) 0.6553(5) -0.4715(5)
Y1A Y 0.27654(7) 0.54510(7) 0.48855(5)
Y1_2 Y 0.72346(7) 0.45490(7) 0.51145(5)
Y1_3 Y 0.72346(7) 1.45490(7) 0.51145(5)
Y1A_2 Y 1.27654(7) 1.54510(7) 0.48855(5)
O6 O 0.6122(7) 0.0330(7) 0.6925(6)
loop_
_geom_bond_atom_site_label_1
_geom_bond_atom_site_label_2
_geom_bond_site_symmetry_1
_geom_bond_site_symmetry_2
C1 C2 1_555 1_555
C2 C3 1_555 1_555
C3 H1 1_555 1_555
C4 C3 1_555 1_555
H2 C4 1_555 1_555
C5 C4 1_555 1_555
C6 C5 1_555 1_555
H3 C6 1_555 1_555
C7 C2 1_555 1_555
H4 C7 1_555 1_555
C8 C9 1_555 1_555
C9 H5 1_555 1_555
C10 C9 1_555 1_555
C11 C10 1_555 1_555
H6 C11 1_555 1_555
C12 C11 1_555 1_555
C13 C8 1_555 1_555
H7 C13 1_555 1_555
C14 C10 1_555 1_555
C15 C12 1_555 1_555
O1 C1 1_555 1_555
O2 C1 1_555 1_555
O3 Y1 1_555 1_555
O4 C14 1_555 1_555
O5 C14 1_555 1_555
O7 C15 1_555 1_555
O8 C15 1_555 1_555
O9 C5 1_555 1_555
Y1 O1 1_555 1_555
O10 Y1 1_555 1_555
O4A Y1 1_555 1_555
O5_2 Y1 1_555 1_555
O7_2 Y1 1_555 1_555
O8A Y1 1_555 1_555
Y1A O4 1_555 1_555
Y1_2 O5 1_555 1_555
Y1_3 O7 1_555 1_555
Y1A_2 O8 1_555 1_555
C6 C7 1_555 1_555
C8 O9 1_555 1_555
C12 C13 1_555 1_555
O2 Y1 1_555 1_555

#END
