
#######################################################################
#
#                 Cambridge Crystallographic Data Centre
#                                CCDC 
#
#######################################################################
#
# If this CIF has been generated from an entry in the Cambridge 
# Structural Database, then it will include bibliographic, chemical, 
# crystal, experimental, refinement or atomic coordinate data resulting 
# from the CCDC's data processing and validation procedures.
#
#######################################################################

data_ELIKEQ
_symmetry_cell_setting           triclinic
_symmetry_space_group_name_H-M   'P -1'
_symmetry_Int_Tables_number      2
_space_group_name_Hall           '-P 1'
loop_
_symmetry_equiv_pos_site_id
_symmetry_equiv_pos_as_xyz
1 x,y,z
2 -x,-y,-z
_cell_length_a                   9.3700(7)
_cell_length_b                   9.9020(7)
_cell_length_c                   11.4290(9)
_cell_angle_alpha                93.9420(10)
_cell_angle_beta                 98.0750(10)
_cell_angle_gamma                110.6920(10)
_cell_volume                     974.109
loop_
_atom_site_label
_atom_site_type_symbol
_atom_site_fract_x
_atom_site_fract_y
_atom_site_fract_z
Nd1 Nd 0.28395(3) 0.54588(2) 0.98441(2)
O1 O 0.2869(5) 0.3908(5) 0.8036(4)
O2 O 0.1882(5) 0.5418(5) 1.1837(4)
O3 O -0.0557(4) 0.1062(4) 0.2741(3)
O4 O 0.1790(5) -0.2702(4) -0.0129(4)
O5 O 0.4891(5) 0.7184(4) 1.1467(4)
O6 O -0.0563(5) -0.3383(4) 0.0327(4)
O7 O 0.1220(5) 0.5022(4) 0.7748(3)
O8 O 0.4147(4) 0.3955(4) 0.0744(4)
O9 O 0.5455(4) 0.2541(4) 0.1123(4)
C1 C -0.0134(8) 0.3382(7) 0.5458(6)
H1 H -0.0626 0.3965 0.5754
C2 C 0.0039(6) 0.1785(6) 0.3886(5)
C3 C 0.0095(6) -0.0634(5) 0.1559(4)
H2 H -0.0815 -0.1369 0.1650
C4 C 0.0462(6) 0.0772(6) 0.2077(5)
C5 C 0.0744(6) -0.2454(5) 0.0322(4)
C6 C 0.1280(7) 0.1600(7) 0.4592(5)
H3 H 0.1734 0.0978 0.4305
C7 C 0.1113(6) -0.0936(5) 0.0894(4)
C8 C 0.1816(7) 0.2344(7) 0.5709(5)
H4 H 0.2655 0.2233 0.6175
C9 C 0.1149(6) 0.3267(6) 0.6178(5)
C10 C 0.1769(6) 0.1904(6) 0.1897(5)
H5 H 0.1962 0.2857 0.2208
C11 C 0.2473(6) 0.0167(5) 0.0776(4)
H6 H 0.3182 -0.0047 0.0378
C12 C 0.2781(6) 0.1591(5) 0.1248(4)
C13 C 0.4212(6) 0.2764(5) 0.1030(4)
C14 C -0.0684(8) 0.2642(7) 0.4314(6)
H7 H -0.1535 0.2730 0.3845
C15 C 0.1766(6) 0.4110(6) 0.7372(5)
Nd1_2 Nd 0.28395(3) -0.45412(2) -0.01559(2)
Nd1A Nd -0.28395(3) -0.54588(2) 0.01559(2)
Nd1_3 Nd 0.28395(3) 0.54588(2) -0.01559(2)
Nd1A_2 Nd 0.71605(3) 0.45412(2) 0.01559(2)
O4_2 O 0.1790(5) 0.7298(4) 0.9871(4)
O6A O 0.0563(5) 0.3383(4) 0.9673(4)
O8_2 O 0.4147(4) 0.3955(4) 1.0744(4)
O8A O 0.5853(4) 0.6045(4) 0.9256(4)
O9A O 0.4545(4) 0.7459(4) 0.8877(4)
O10 O 0.6115(5) 0.0213(5) 0.2006(5)
loop_
_geom_bond_atom_site_label_1
_geom_bond_atom_site_label_2
_geom_bond_site_symmetry_1
_geom_bond_site_symmetry_2
Nd1 O1 1_555 1_555
O1 C15 1_555 1_555
O2 Nd1 1_555 1_555
O3 C2 1_555 1_555
O4 C5 1_555 1_555
O5 Nd1 1_555 1_555
O6 C5 1_555 1_555
O7 Nd1 1_555 1_555
O8 C13 1_555 1_555
O9 C13 1_555 1_555
C1 H1 1_555 1_555
C2 C6 1_555 1_555
C3 H2 1_555 1_555
C4 O3 1_555 1_555
C5 C7 1_555 1_555
C6 H3 1_555 1_555
C7 C3 1_555 1_555
C8 C6 1_555 1_555
H4 C8 1_555 1_555
C9 C1 1_555 1_555
C10 C4 1_555 1_555
H5 C10 1_555 1_555
C11 C7 1_555 1_555
H6 C11 1_555 1_555
C12 C10 1_555 1_555
C13 C12 1_555 1_555
C14 C1 1_555 1_555
H7 C14 1_555 1_555
C15 O7 1_555 1_555
Nd1_2 O4 1_555 1_555
Nd1A O6 1_555 1_555
Nd1_3 O8 1_555 1_555
Nd1A_2 O8 1_555 1_555
O4_2 Nd1 1_555 1_555
O6A Nd1 1_555 1_555
O8_2 Nd1 1_555 1_555
O8A Nd1 1_555 1_555
O9A Nd1 1_555 1_555
O9 Nd1A_2 1_555 1_555
C2 C14 1_555 1_555
C3 C4 1_555 1_555
C8 C9 1_555 1_555
C9 C15 1_555 1_555
C11 C12 1_555 1_555

#END
