
#######################################################################
#
#                 Cambridge Crystallographic Data Centre
#                                CCDC 
#
#######################################################################
#
# If this CIF has been generated from an entry in the Cambridge 
# Structural Database, then it will include bibliographic, chemical, 
# crystal, experimental, refinement or atomic coordinate data resulting 
# from the CCDC's data processing and validation procedures.
#
#######################################################################

data_ELIKOA
_symmetry_cell_setting           triclinic
_symmetry_space_group_name_H-M   'P -1'
_symmetry_Int_Tables_number      2
_space_group_name_Hall           '-P 1'
loop_
_symmetry_equiv_pos_site_id
_symmetry_equiv_pos_as_xyz
1 x,y,z
2 -x,-y,-z
_cell_length_a                   9.3410(7)
_cell_length_b                   9.8490(8)
_cell_length_c                   11.4220(9)
_cell_angle_alpha                94.0760(10)
_cell_angle_beta                 98.5770(10)
_cell_angle_gamma                110.9270(10)
_cell_volume                     961.689
loop_
_atom_site_label
_atom_site_type_symbol
_atom_site_fract_x
_atom_site_fract_y
_atom_site_fract_z
C1 C 0.1757(6) 0.4117(6) 0.7400(5)
C2 C 0.1141(7) 0.3274(6) 0.6196(5)
C3 C -0.0151(8) 0.3384(8) 0.5476(6)
H1 H -0.0655 0.3958 0.5771
C4 C -0.0688(8) 0.2634(8) 0.4319(6)
H2 H -0.1544 0.2715 0.3841
C5 C 0.0035(7) 0.1788(6) 0.3888(5)
C6 C 0.1300(8) 0.1629(8) 0.4604(6)
H3 H 0.1771 0.1022 0.4314
C7 C 0.1836(8) 0.2368(8) 0.5727(6)
H4 H 0.2687 0.2269 0.6197
C8 C 0.0471(6) 0.0787(6) 0.2079(5)
C9 C 0.0112(6) -0.0641(6) 0.1556(5)
H5 H -0.0796 -0.1390 0.1646
C10 C 0.1120(6) -0.0933(6) 0.0901(5)
C11 C 0.2496(6) 0.0183(6) 0.0779(5)
H6 H 0.3205 -0.0030 0.0381
C12 C 0.2798(6) 0.1620(6) 0.1258(5)
C13 C 0.1771(7) 0.1921(6) 0.1900(5)
H7 H 0.1959 0.2881 0.2207
C14 C 0.0776(6) -0.2470(6) 0.0327(5)
C15 C 0.4201(6) 0.2820(6) 0.1024(5)
Eu1 Eu 0.28199(3) 0.54536(2) 0.98529(2)
O1 O 0.2848(5) 0.3898(5) 0.8080(4)
O2 O 0.1206(5) 0.5030(5) 0.7774(4)
O3 O 0.4884(5) 0.7178(5) 1.1448(4)
O4 O 0.1826(5) -0.2707(4) -0.0107(4)
O5 O 0.1908(5) 0.5435(5) 1.1827(4)
O6 O -0.0550(5) -0.3410(4) 0.0318(4)
O8 O 0.5471(5) 0.2619(4) 0.1112(4)
O9 O 0.4101(5) 0.3995(4) 0.0745(4)
O10 O -0.0563(5) 0.1051(5) 0.2738(3)
Eu1_2 Eu 0.28199(3) -0.45464(2) -0.01471(2)
Eu1A Eu -0.28199(3) -0.54536(2) 0.01471(2)
Eu1A_2 Eu 0.71801(3) 0.45464(2) 0.01471(2)
Eu1_3 Eu 0.28199(3) 0.54536(2) -0.01471(2)
O4_2 O 0.1826(5) 0.7293(4) 0.9893(4)
O6A O 0.0550(5) 0.3410(4) 0.9682(4)
O8A O 0.4529(5) 0.7381(4) 0.8888(4)
O9A O 0.5899(5) 0.6005(4) 0.9255(4)
O9_2 O 0.4101(5) 0.3995(4) 1.0745(4)
O7 O 0.6095(6) 0.0251(5) 0.1989(5)
loop_
_geom_bond_atom_site_label_1
_geom_bond_atom_site_label_2
_geom_bond_site_symmetry_1
_geom_bond_site_symmetry_2
C1 C2 1_555 1_555
C2 C3 1_555 1_555
C3 H1 1_555 1_555
C4 C3 1_555 1_555
H2 C4 1_555 1_555
C5 C4 1_555 1_555
C6 C5 1_555 1_555
H3 C6 1_555 1_555
C7 C2 1_555 1_555
H4 C7 1_555 1_555
C8 C9 1_555 1_555
C9 H5 1_555 1_555
C10 C9 1_555 1_555
C11 C10 1_555 1_555
H6 C11 1_555 1_555
C12 C11 1_555 1_555
C13 C8 1_555 1_555
H7 C13 1_555 1_555
C14 C10 1_555 1_555
C15 C12 1_555 1_555
Eu1 O1 1_555 1_555
O1 C1 1_555 1_555
O2 C1 1_555 1_555
O3 Eu1 1_555 1_555
O4 C14 1_555 1_555
O5 Eu1 1_555 1_555
O6 C14 1_555 1_555
O8 C15 1_555 1_555
O9 C15 1_555 1_555
O10 C5 1_555 1_555
Eu1_2 O4 1_555 1_555
Eu1A O6 1_555 1_555
Eu1A_2 O8 1_555 1_555
Eu1_3 O9 1_555 1_555
O4_2 Eu1 1_555 1_555
O6A Eu1 1_555 1_555
O8A Eu1 1_555 1_555
O9A Eu1 1_555 1_555
O9_2 Eu1 1_555 1_555
C6 C7 1_555 1_555
C8 O10 1_555 1_555
C12 C13 1_555 1_555
Eu1 O2 1_555 1_555
O9 Eu1A_2 1_555 1_555

#END
