
#######################################################################
#
#                 Cambridge Crystallographic Data Centre
#                                CCDC 
#
#######################################################################
#
# If this CIF has been generated from an entry in the Cambridge 
# Structural Database, then it will include bibliographic, chemical, 
# crystal, experimental, refinement or atomic coordinate data resulting 
# from the CCDC's data processing and validation procedures.
#
#######################################################################

data_ELILAN
_symmetry_cell_setting           triclinic
_symmetry_space_group_name_H-M   'P -1'
_symmetry_Int_Tables_number      2
_space_group_name_Hall           '-P 1'
loop_
_symmetry_equiv_pos_site_id
_symmetry_equiv_pos_as_xyz
1 x,y,z
2 -x,-y,-z
_cell_length_a                   9.3410(8)
_cell_length_b                   9.8130(9)
_cell_length_c                   11.3950(10)
_cell_angle_alpha                94.2470(10)
_cell_angle_beta                 99.0870(10)
_cell_angle_gamma                111.2590(10)
_cell_volume                     951.371
loop_
_atom_site_label
_atom_site_type_symbol
_atom_site_fract_x
_atom_site_fract_y
_atom_site_fract_z
C1 C 0.6757(7) 0.4117(7) 0.7442(6)
C2 C 0.6156(8) 0.3285(7) 0.6234(6)
C3 C 0.4844(9) 0.3371(9) 0.5487(7)
H1 H 0.4325 0.3928 0.5785
C4 C 0.4307(9) 0.2639(8) 0.4312(7)
H2 H 0.3458 0.2728 0.3824
C5 C 0.5048(8) 0.1788(7) 0.3887(6)
C6 C 0.6317(9) 0.1634(8) 0.4621(6)
H3 H 0.6794 0.1031 0.4333
C7 C 0.6842(9) 0.2371(8) 0.5751(6)
H4 H 0.7692 0.2269 0.6228
C8 C 0.5487(7) 0.0782(7) 0.2073(5)
C9 C 0.6780(7) 0.1939(6) 0.1913(5)
H5 H 0.6970 0.2902 0.2235
C10 C 0.7796(7) 0.1646(6) 0.1263(5)
C11 C 0.7507(7) 0.0211(6) 0.0788(6)
H6 H 0.8224 0.0012 0.0394
C12 C 0.6152(7) -0.0931(6) 0.0899(5)
C13 C 0.5114(7) -0.0649(7) 0.1550(6)
H7 H 0.4198 -0.1405 0.1628
C14 C 0.9196(7) 0.2886(6) 0.1030(5)
C15 C 0.5788(7) -0.2473(7) 0.0316(6)
Dy1 Dy 0.77815(3) 0.54517(3) 0.98729(2)
O1 O 0.6213(5) 0.5048(5) 0.7810(4)
O2 O 0.7816(5) 0.3899(5) 0.8145(4)
O3 O 0.9878(5) 0.7164(5) 1.1440(5)
O4 O 0.9036(5) 0.4046(5) 0.0757(4)
O5 O 0.6918(6) 0.5457(6) 1.1823(5)
O6 O 1.0468(5) 0.2706(5) 0.1079(4)
O8 O 0.4479(5) -0.3445(5) 0.0303(4)
O9 O 0.6870(5) -0.2690(5) -0.0098(4)
O10 O 0.4442(5) 0.1051(5) 0.2735(4)
Dy1_2 Dy 0.77815(3) 0.54517(3) -0.01271(2)
Dy1A Dy 1.22185(3) 0.45483(3) 0.01271(2)
Dy1A_2 Dy 0.22185(3) -0.54517(3) 0.01271(2)
Dy1_3 Dy 0.77815(3) -0.45483(3) -0.01271(2)
O4_2 O 0.9036(5) 0.4046(5) 1.0757(4)
O6A O 0.9532(5) 0.7294(5) 0.8921(4)
O8A O 0.5521(5) 0.3445(5) 0.9697(4)
O9_2 O 0.6870(5) 0.7310(5) 0.9902(4)
O7 O 0.1116(6) 0.0292(6) 0.1937(5)
loop_
_geom_bond_atom_site_label_1
_geom_bond_atom_site_label_2
_geom_bond_site_symmetry_1
_geom_bond_site_symmetry_2
C1 C2 1_555 1_555
C2 C3 1_555 1_555
C3 H1 1_555 1_555
C4 C3 1_555 1_555
H2 C4 1_555 1_555
C5 C4 1_555 1_555
C6 C5 1_555 1_555
H3 C6 1_555 1_555
C7 C2 1_555 1_555
H4 C7 1_555 1_555
C8 C9 1_555 1_555
C9 H5 1_555 1_555
C10 C9 1_555 1_555
C11 C10 1_555 1_555
H6 C11 1_555 1_555
C12 C11 1_555 1_555
C13 C8 1_555 1_555
H7 C13 1_555 1_555
C14 C10 1_555 1_555
C15 C12 1_555 1_555
Dy1 O1 1_555 1_555
O1 C1 1_555 1_555
O2 C1 1_555 1_555
O3 Dy1 1_555 1_555
O4 C14 1_555 1_555
O5 Dy1 1_555 1_555
O6 C14 1_555 1_555
O8 C15 1_555 1_555
O9 C15 1_555 1_555
O10 C5 1_555 1_555
Dy1_2 O4 1_555 1_555
Dy1A O6 1_555 1_555
Dy1A_2 O8 1_555 1_555
Dy1_3 O9 1_555 1_555
O4_2 Dy1 1_555 1_555
O6A Dy1 1_555 1_555
O8A Dy1 1_555 1_555
O9_2 Dy1 1_555 1_555
C6 C7 1_555 1_555
C8 O10 1_555 1_555
C12 C13 1_555 1_555
Dy1 O2 1_555 1_555

#END
