
#######################################################################
#
#                 Cambridge Crystallographic Data Centre
#                                CCDC 
#
#######################################################################
#
# If this CIF has been generated from an entry in the Cambridge 
# Structural Database, then it will include bibliographic, chemical, 
# crystal, experimental, refinement or atomic coordinate data resulting 
# from the CCDC's data processing and validation procedures.
#
#######################################################################

data_EMAGAB
_symmetry_cell_setting           triclinic
_symmetry_space_group_name_H-M   'P -1'
_symmetry_Int_Tables_number      2
_space_group_name_Hall           '-P 1'
loop_
_symmetry_equiv_pos_site_id
_symmetry_equiv_pos_as_xyz
1 x,y,z
2 -x,-y,-z
_cell_length_a                   8.494(3)
_cell_length_b                   12.987(5)
_cell_length_c                   15.187(6)
_cell_angle_alpha                91.213(6)
_cell_angle_beta                 94.185(5)
_cell_angle_gamma                108.525(5)
_cell_volume                     1582.52
loop_
_atom_site_label
_atom_site_type_symbol
_atom_site_fract_x
_atom_site_fract_y
_atom_site_fract_z
C1 C 0.938(2) 0.7237(15) 0.6418(12)
H1 H 0.9710 0.6861 0.5978
C2 C 0.795(2) 0.7678(18) 0.7390(14)
H2 H 0.7091 0.7654 0.7745
C3 C 0.941(3) 0.8518(19) 0.7410(17)
H3 H 0.9727 0.9153 0.7767
C4 C 1.194(2) 0.8856(15) 0.6597(12)
C5 C 1.235(3) 0.995(2) 0.667(2)
H4 H 1.1534 1.0268 0.6778
C6 C 1.401(3) 1.062(2) 0.659(2)
H5 H 1.4342 1.1360 0.6729
C7 C 1.511(2) 1.0153(16) 0.6297(15)
C8 C 1.467(3) 0.9042(18) 0.6166(16)
H6 H 1.5426 0.8714 0.5988
C9 C 1.300(2) 0.8406(19) 0.6311(15)
H7 H 1.2654 0.7657 0.6200
C10 C 1.731(2) 1.1884(17) 0.6114(14)
H8 H 1.6623 1.2311 0.6158
C11 C 1.940(3) 1.143(2) 0.586(2)
H9 H 2.0415 1.1438 0.5668
C12 C 1.808(4) 1.052(3) 0.603(2)
H10 H 1.8107 0.9818 0.6072
C13 C 0.452(2) 0.5091(17) 0.8201(13)
H11 H 0.4920 0.5811 0.8415
C14 C 0.404(3) 0.3660(18) 0.7391(15)
H12 H 0.4052 0.3186 0.6926
C15 C 0.317(4) 0.336(2) 0.8115(15)
H13 H 0.2480 0.2671 0.8228
C16 C 0.280(2) 0.4373(16) 0.9436(12)
C17 C 0.191(2) 0.3462(16) 0.9830(14)
H14 H 0.1787 0.2778 0.9583
C18 C 0.118(3) 0.3561(18) 1.0591(13)
H15 H 0.0569 0.2938 1.0856
C19 C 0.135(2) 0.4546(16) 1.0963(12)
C20 C 0.231(3) 0.5499(19) 1.0590(14)
H16 H 0.2435 0.6183 1.0842
C21 C 0.306(2) 0.5377(17) 0.9830(14)
H17 H 0.3744 0.5990 0.9583
C22 C 0.106(3) 0.543(2) 1.2404(13)
H18 H 0.2069 0.5996 1.2440
C23 C -0.134(2) 0.4346(18) 1.2727(12)
H19 H -0.2293 0.4049 1.3020
C24 C -0.100(2) 0.3919(18) 1.1940(13)
H20 H -0.1639 0.3288 1.1620
N1 N 0.7904(19) 0.6876(14) 0.6784(11)
N2 N 1.030(2) 0.8220(14) 0.6784(12)
N3 N 1.6779(19) 1.0840(14) 0.6136(13)
N4 N 1.8923(19) 1.2297(14) 0.6025(12)
N5 N 0.488(2) 0.4750(13) 0.7438(10)
N6 N 0.3529(19) 0.4278(13) 0.8635(10)
N7 N 0.0538(18) 0.4664(14) 1.1740(9)
N8 N -0.0065(17) 0.5265(14) 1.3005(10)
O12 O 0.8517(14) 0.3994(10) 0.4824(8)
O13 O 0.6614(15) 0.4532(10) 0.5770(8)
O14 O 0.5665(15) 0.3871(11) 0.4189(8)
O15 O 0.7817(16) 0.5704(11) 0.4528(9)
Zn1 Zn 0.5961(2) 0.55776(18) 0.64106(13)
Zn2 Zn 1.9941(2) 1.39041(18) 0.58485(14)
P1 P 0.7141(5) 0.4526(4) 0.4838(3)
C1A C 0.062(2) 0.2763(15) 0.3582(12)
H1A H 0.0290 0.3139 0.4022
C2A C 0.205(2) 0.2322(18) 0.2610(14)
H2A H 0.2909 0.2346 0.2255
C3A C 0.059(3) 0.1482(19) 0.2590(17)
H3A H 0.0273 0.0847 0.2233
C4A C -0.194(2) 0.1144(15) 0.3403(12)
C5A C -0.235(3) 0.005(2) 0.333(2)
H4A H -0.1534 -0.0268 0.3222
C6A C -0.401(3) -0.062(2) 0.341(2)
H5A H -0.4342 -0.1360 0.3271
C7A C -0.511(2) -0.0153(16) 0.3703(15)
C8A C -0.467(3) 0.0958(18) 0.3834(16)
H6A H -0.5426 0.1286 0.4012
C9A C -0.300(2) 0.1594(19) 0.3689(15)
H7A H -0.2654 0.2343 0.3800
C10A C -0.731(2) -0.1884(17) 0.3886(14)
H8A H -0.6623 -0.2311 0.3842
C11A C -0.940(3) -0.143(2) 0.414(2)
H9A H -1.0415 -0.1438 0.4332
C12A C -0.808(4) -0.052(3) 0.397(2)
H10A H -0.8107 0.0182 0.3928
C13A C 0.548(2) 0.4909(17) 0.1799(13)
H11A H 0.5080 0.4189 0.1585
C14A C 0.596(3) 0.6340(18) 0.2609(15)
H12A H 0.5948 0.6814 0.3074
C15A C 0.683(4) 0.664(2) 0.1885(15)
H13A H 0.7520 0.7329 0.1772
C16A C 0.720(2) 0.5627(16) 0.0564(12)
C17A C 0.809(2) 0.6538(16) 0.0170(14)
H14A H 0.8213 0.7222 0.0417
C18A C 0.882(3) 0.6439(18) -0.0591(13)
H15A H 0.9431 0.7062 -0.0856
C19A C 0.865(2) 0.5454(16) -0.0963(12)
C20A C 0.769(3) 0.4501(19) -0.0590(14)
H16A H 0.7565 0.3817 -0.0842
C21A C 0.694(2) 0.4623(17) 0.0170(14)
H17A H 0.6256 0.4010 0.0417
C22A C 0.894(3) 0.457(2) -0.2404(13)
H18A H 0.7931 0.4004 -0.2440
C23A C 1.134(2) 0.5654(18) -0.2727(12)
H19A H 1.2293 0.5951 -0.3020
C24A C 1.100(2) 0.6081(18) -0.1940(13)
H20A H 1.1639 0.6712 -0.1620
N1A N 0.2096(19) 0.3124(14) 0.3216(11)
N2A N -0.030(2) 0.1780(14) 0.3216(12)
N3A N -0.6779(19) -0.0840(14) 0.3864(13)
N4A N -0.8923(19) -0.2297(14) 0.3975(12)
N4_2 N 0.8923(19) 0.2297(14) -0.3975(12)
N5A N 0.512(2) 0.5250(13) 0.2562(10)
N6A N 0.6471(19) 0.5722(13) 0.1365(10)
N7A N 0.9462(18) 0.5336(14) -0.1740(9)
N8A N 2.0065(17) 1.4735(14) 0.6995(10)
N8A_2 N 1.0065(17) 0.4735(14) -0.3005(10)
O12A O 0.1483(14) 0.6006(10) 0.5176(8)
O12_2 O 1.8517(14) 1.3994(10) 0.4824(8)
O12_3 O 0.8517(14) 0.3994(10) -0.5176(8)
O13A O 0.3386(15) 0.5468(10) 0.4230(8)
O14A O 0.4335(15) 0.6129(11) 0.5811(8)
O15A O 0.2183(16) 0.4296(11) 0.5472(9)
O15A_2 O 2.2183(16) 1.4296(11) 0.5472(9)
O15A_3 O 1.2183(16) 0.4296(11) -0.4528(9)
Zn1A Zn 0.4039(2) 0.44224(18) 0.35894(13)
Zn2A Zn 0.0059(2) 0.60959(18) 1.41515(14)
Zn2_2 Zn 0.9941(2) 0.39041(18) 0.58485(14)
Zn2A_2 Zn 0.0059(2) 0.60959(18) 0.41515(14)
Zn2A_3 Zn 1.0059(2) 0.60959(18) 0.41515(14)
Zn2_3 Zn -0.0059(2) 0.39041(18) 0.58485(14)
Zn2A_4 Zn -0.9941(2) -0.39041(18) 0.41515(14)
Zn2_4 Zn 0.9941(2) 0.39041(18) -0.41515(14)
P1A P 0.2859(5) 0.5474(4) 0.5162(3)
O1 O 0.5000 0.0000 0.0000
O2 O 0.190(4) -0.211(2) 0.148(2)
O4 O 0.536(2) 0.2420(15) 0.1670(17)
O5 O 0.884(3) -0.068(2) 0.132(2)
O6 O 0.380(3) 0.0159(15) 0.1531(13)
O7 O 0.698(3) 0.0836(19) 0.1377(15)
O8 O 0.341(3) -0.2103(15) -0.0099(15)
O9 O 0.337(3) 0.1386(18) 0.0222(15)
O10 O 0.507(4) -0.1220(15) 0.1304(12)
O11 O 0.182(3) -0.059(2) -0.0047(18)
Mo1 Mo 0.3182(4) -0.1225(2) 0.0861(2)
Mo2 Mo 0.5222(3) 0.13647(16) 0.09978(15)
Mo3 Mo 0.7233(4) -0.0363(3) 0.0723(2)
O2A O 0.810(4) 0.211(2) -0.148(2)
O4A O 0.464(2) -0.2420(15) -0.1670(17)
O5A O 0.116(3) 0.068(2) -0.132(2)
O6A O 0.620(3) -0.0159(15) -0.1531(13)
O7A O 0.302(3) -0.0836(19) -0.1377(15)
O8A O 0.659(3) 0.2103(15) 0.0099(15)
O9A O 0.663(3) -0.1386(18) -0.0222(15)
O10A O 0.493(4) 0.1220(15) -0.1304(12)
O11A O 0.818(3) 0.059(2) 0.0047(18)
Mo1A Mo 0.6818(4) 0.1225(2) -0.0861(2)
Mo2A Mo 0.4778(3) -0.13647(16) -0.09978(15)
Mo3A Mo 0.2767(4) 0.0363(3) -0.0723(2)
O3 O 0.6751(18) 0.7551(12) 0.4745(10)
O16? O 0.196(4) -0.127(2) 0.121(2)
loop_
_geom_bond_atom_site_label_1
_geom_bond_atom_site_label_2
_geom_bond_site_symmetry_1
_geom_bond_site_symmetry_2
C1 H1 1_555 1_555
C2 H2 1_555 1_555
C3 C2 1_555 1_555
H3 C3 1_555 1_555
C4 C5 1_555 1_555
C5 H4 1_555 1_555
C6 C5 1_555 1_555
H5 C6 1_555 1_555
C7 C6 1_555 1_555
C8 C7 1_555 1_555
H6 C8 1_555 1_555
C9 C4 1_555 1_555
H7 C9 1_555 1_555
C10 H8 1_555 1_555
C11 H9 1_555 1_555
C12 C11 1_555 1_555
H10 C12 1_555 1_555
C13 H11 1_555 1_555
C14 H12 1_555 1_555
C15 C14 1_555 1_555
H13 C15 1_555 1_555
C16 C17 1_555 1_555
C17 H14 1_555 1_555
C18 C17 1_555 1_555
H15 C18 1_555 1_555
C19 C18 1_555 1_555
C20 C19 1_555 1_555
H16 C20 1_555 1_555
C21 C16 1_555 1_555
H17 C21 1_555 1_555
C22 H18 1_555 1_555
C23 H19 1_555 1_555
C24 C23 1_555 1_555
H20 C24 1_555 1_555
N1 C1 1_555 1_555
N2 C1 1_555 1_555
N3 C7 1_555 1_555
N4 C10 1_555 1_555
N5 C13 1_555 1_555
N6 C13 1_555 1_555
N7 C19 1_555 1_555
N8 C22 1_555 1_555
O1 Mo1 1_555 1_555
O2 Mo1 1_555 1_555
O4 Mo2 1_555 1_555
O5 Mo3 1_555 1_555
O6 Mo1 1_555 1_555
O7 Mo2 1_555 1_555
O8 Mo1 1_555 1_555
O9 Mo2 1_555 1_555
O10 Mo1 1_555 1_555
O11 Mo1 1_555 1_555
O12 P1 1_555 1_555
O13 Zn1 1_555 1_555
O14 P1 1_555 1_555
O15 P1 1_555 1_555
Zn1 N1 1_555 1_555
Zn2 N4 1_555 1_555
Mo2 O1 1_555 1_555
Mo3 O1 1_555 1_555
P1 O13 1_555 1_555
C1A H1A 1_555 1_555
C2A H2A 1_555 1_555
C3A C2A 1_555 1_555
H3A C3A 1_555 1_555
C4A C5A 1_555 1_555
C5A H4A 1_555 1_555
C6A C5A 1_555 1_555
H5A C6A 1_555 1_555
C7A C6A 1_555 1_555
C8A C7A 1_555 1_555
H6A C8A 1_555 1_555
C9A C4A 1_555 1_555
H7A C9A 1_555 1_555
C10A H8A 1_555 1_555
C11A H9A 1_555 1_555
C12A C11A 1_555 1_555
H10A C12A 1_555 1_555
C13A H11A 1_555 1_555
C14A H12A 1_555 1_555
C15A C14A 1_555 1_555
H13A C15A 1_555 1_555
C16A C17A 1_555 1_555
C17A H14A 1_555 1_555
C18A C17A 1_555 1_555
H15A C18A 1_555 1_555
C19A C18A 1_555 1_555
C20A C19A 1_555 1_555
H16A C20A 1_555 1_555
C21A C16A 1_555 1_555
H17A C21A 1_555 1_555
C22A H18A 1_555 1_555
C23A H19A 1_555 1_555
C24A C23A 1_555 1_555
H20A C24A 1_555 1_555
N1A C1A 1_555 1_555
N2A C1A 1_555 1_555
N3A C7A 1_555 1_555
N4A C10A 1_555 1_555
N4_2 Zn2_4 1_555 1_555
N5A C13A 1_555 1_555
N6A C13A 1_555 1_555
N7A C19A 1_555 1_555
N8A Zn2 1_555 1_555
N8A_2 C22A 1_555 1_555
O2A Mo1A 1_555 1_555
O4A Mo2A 1_555 1_555
O5A Mo3A 1_555 1_555
O6A Mo1A 1_555 1_555
O7A Mo2A 1_555 1_555
O8A Mo2 1_555 1_555
O9A Mo3 1_555 1_555
O10A Mo1A 1_555 1_555
O11A Mo3 1_555 1_555
O12A Zn2A_2 1_555 1_555
O12_2 Zn2 1_555 1_555
O12_3 Zn2_4 1_555 1_555
O13A Zn1A 1_555 1_555
O14A Zn1 1_555 1_555
O15A Zn2_3 1_555 1_555
O15A_2 Zn2 1_555 1_555
O15A_3 Zn2_4 1_555 1_555
Zn1A O14 1_555 1_555
Zn2A N8 1_555 1_555
Zn2_2 O12 1_555 1_555
Zn2A_3 O15 1_555 1_555
Zn2A_4 N4A 1_555 1_555
Zn2_4 N8A_2 1_555 1_555
Mo1A O1 1_555 1_555
Mo2A O1 1_555 1_555
Mo3A O1 1_555 1_555
P1A O12A 1_555 1_555
C2 N1 1_555 1_555
C3 N2 1_555 1_555
C4 N2 1_555 1_555
C8 C9 1_555 1_555
C10 N3 1_555 1_555
C11 N4 1_555 1_555
C12 N3 1_555 1_555
C14 N5 1_555 1_555
C15 N6 1_555 1_555
C16 N6 1_555 1_555
C20 C21 1_555 1_555
C22 N7 1_555 1_555
C23 N8 1_555 1_555
C24 N7 1_555 1_555
N5 Zn1 1_555 1_555
O6 Mo2 1_555 1_555
O7 Mo3 1_555 1_555
O8 Mo2A 1_555 1_555
O9 Mo3A 1_555 1_555
O10 Mo3 1_555 1_555
O11 Mo3A 1_555 1_555
C2A N1A 1_555 1_555
C3A N2A 1_555 1_555
C4A N2A 1_555 1_555
C8A C9A 1_555 1_555
C10A N3A 1_555 1_555
C11A N4A 1_555 1_555
C12A N3A 1_555 1_555
C14A N5A 1_555 1_555
C15A N6A 1_555 1_555
C16A N6A 1_555 1_555
C20A C21A 1_555 1_555
C22A N7A 1_555 1_555
C23A N8A_2 1_555 1_555
C24A N7A 1_555 1_555
N1A Zn1A 1_555 1_555
N5A Zn1A 1_555 1_555
O6A Mo2A 1_555 1_555
O7A Mo3A 1_555 1_555
O8A Mo1A 1_555 1_555
O9A Mo2A 1_555 1_555
O10A Mo3A 1_555 1_555
O11A Mo1A 1_555 1_555
O13A P1A 1_555 1_555
O14A P1A 1_555 1_555
O15A P1A 1_555 1_555

#END
