
#######################################################################
#
#                 Cambridge Crystallographic Data Centre
#                                CCDC 
#
#######################################################################
#
# If this CIF has been generated from an entry in the Cambridge 
# Structural Database, then it will include bibliographic, chemical, 
# crystal, experimental, refinement or atomic coordinate data resulting 
# from the CCDC's data processing and validation procedures.
#
#######################################################################

data_EMITUQ01
_symmetry_cell_setting           monoclinic
_symmetry_space_group_name_H-M   'P 21/c'
_symmetry_Int_Tables_number      14
_space_group_name_Hall           '-P 2ybc'
loop_
_symmetry_equiv_pos_site_id
_symmetry_equiv_pos_as_xyz
1 x,y,z
2 -x,1/2+y,1/2-z
3 -x,-y,-z
4 x,1/2-y,1/2+z
_cell_length_a                   13.8963(17)
_cell_length_b                   23.221(3)
_cell_length_c                   18.872(2)
_cell_angle_alpha                90
_cell_angle_beta                 103.1020(10)
_cell_angle_gamma                90
_cell_volume                     5931.2
loop_
_atom_site_label
_atom_site_type_symbol
_atom_site_fract_x
_atom_site_fract_y
_atom_site_fract_z
Zn1 Zn 0.338661(11) 0.010065(7) 0.674966(8)
Zn2 Zn 0.121899(11) -0.009078(7) 0.640476(8)
S1 S 0.10645(3) -0.270545(19) 0.40878(3)
S2 S 0.35800(3) 0.272030(18) 0.90795(2)
O1 O 0.30348(8) -0.06237(5) 0.61092(6)
O2 O 0.14081(8) -0.07804(4) 0.57778(6)
O3 O 0.17149(8) -0.44088(5) 0.22975(6)
O4 O 0.33481(8) -0.45633(5) 0.25873(6)
O5 O 0.32491(8) 0.08023(4) 0.73580(6)
O6 O 0.16220(8) 0.06299(5) 0.70555(6)
O7 O 0.12286(8) 0.45626(4) 1.05529(5)
O8 O 0.28711(8) 0.44157(5) 1.08429(6)
O9 O 0.04010(10) -0.24245(7) 0.35062(9)
O10 O 0.06437(12) -0.30561(7) 0.45618(11)
O11 O 0.40821(9) 0.24113(6) 0.97170(8)
O12 O 0.41830(9) 0.30384(6) 0.86940(8)
C1 C 0.22919(11) -0.08954(6) 0.57731(8)
C2 C 0.24836(11) -0.14003(6) 0.53318(8)
C3 C 0.17013(11) -0.17486(6) 0.49836(8)
H1 H 0.1043 -0.1672 0.5021
C4 C 0.34376(11) -0.15160(7) 0.52594(9)
H2 H 0.3963 -0.1275 0.5502
C5 C 0.19184(11) -0.22068(6) 0.45843(8)
C6 C 0.36479(12) -0.19736(7) 0.48428(10)
H3 H 0.4301 -0.2039 0.4785
C7 C 0.28752(11) -0.23316(7) 0.45138(9)
C8 C 0.29215(12) -0.28475(7) 0.40696(10)
C9 C 0.19949(11) -0.30857(7) 0.37829(10)
C10 C 0.37522(13) -0.31090(9) 0.39219(12)
H4 H 0.4392 -0.2959 0.4121
C11 C 0.18597(11) -0.35567(7) 0.33278(9)
H5 H 0.1218 -0.3703 0.3126
C12 C 0.36356(12) -0.35939(8) 0.34783(11)
H6 H 0.4202 -0.3779 0.3383
C13 C 0.26980(11) -0.38121(7) 0.31718(9)
C14 C 0.25775(11) -0.43030(6) 0.26445(8)
C15 C 0.23627(11) 0.09209(6) 0.73546(8)
C16 C 0.21675(11) 0.14612(6) 0.77426(8)
C17 C 0.29578(11) 0.17797(7) 0.81458(8)
H7 H 0.3623 0.1668 0.8175
C18 C 0.11978(11) 0.16426(7) 0.76896(8)
H8 H 0.0671 0.1427 0.7401
C19 C 0.27309(11) 0.22626(7) 0.84998(8)
C20 C 0.09846(11) 0.21300(7) 0.80472(9)
H9 H 0.0320 0.2249 0.8006
C21 C 0.17612(11) 0.24414(6) 0.84679(8)
C22 C 0.17004(11) 0.29552(6) 0.89177(8)
C23 C 0.26276(11) 0.31546(7) 0.92783(8)
C24 C 0.08595(11) 0.32252(6) 0.90355(8)
H10 H 0.0220 0.3102 0.8787
C25 C 0.27575(11) 0.36043(6) 0.97662(8)
H11 H 0.3399 0.3731 1.0006
C26 C 0.09758(10) 0.36816(6) 0.95281(8)
H12 H 0.0407 0.3870 0.9615
C27 C 0.19078(10) 0.38670(6) 0.98953(7)
C28 C 0.20116(11) 0.43221(6) 1.04735(8)
N1 N 0.48262(9) 0.00680(5) 0.67321(7)
N2 N 0.97734(8) -0.00944(5) 0.64232(6)
C29 C 0.53148(11) -0.04340(7) 0.68436(9)
H13 H 0.4983 -0.0762 0.6972
C30 C 0.52957(11) 0.05272(7) 0.65475(9)
H14 H 0.4956 0.0885 0.6472
C31 C 0.62808(11) -0.04932(7) 0.67793(9)
H15 H 0.6608 -0.0854 0.6868
C32 C 0.62549(11) 0.05013(7) 0.64632(10)
H16 H 0.6563 0.0835 0.6324
C33 C 0.67661(11) -0.00178(7) 0.65838(8)
C34 C 0.78072(10) -0.00552(6) 0.65194(8)
C35 C 0.84711(11) -0.04177(7) 0.69650(9)
H17 H 0.8261 -0.0661 0.7306
C36 C 0.81460(11) 0.02760(7) 0.60064(9)
H18 H 0.7706 0.0521 0.5683
C37 C 0.94441(11) -0.04207(7) 0.69060(9)
H19 H 0.9900 -0.0664 0.7221
C38 C 0.91265(11) 0.02420(7) 0.59767(8)
H20 H 0.9351 0.0466 0.5625
Zn1C Zn 0.338661(11) -0.510065(7) 0.174966(8)
Zn1C_2 Zn 0.338661(11) 0.489935(7) 1.174966(8)
Zn2C Zn 0.121899(11) -0.490922(7) 0.140476(8)
Zn2C_2 Zn 0.121899(11) 0.509078(7) 1.140476(8)
Zn2_2 Zn 1.121899(11) -0.009078(7) 0.640476(8)
O3C O 0.17149(8) -0.05912(5) 0.72975(6)
O4C O 0.33481(8) -0.04367(5) 0.75873(6)
O7C O 0.12286(8) 0.04374(4) 0.55529(5)
O8C O 0.28711(8) 0.05843(5) 0.58429(6)
N2_2 N -0.02266(8) -0.00944(5) 0.64232(6)
loop_
_geom_bond_atom_site_label_1
_geom_bond_atom_site_label_2
_geom_bond_site_symmetry_1
_geom_bond_site_symmetry_2
Zn1 O1 1_555 1_555
Zn2 O2 1_555 1_555
S1 O9 1_555 1_555
S2 O11 1_555 1_555
O1 C1 1_555 1_555
O2 C1 1_555 1_555
O3 C14 1_555 1_555
O4 C14 1_555 1_555
O5 Zn1 1_555 1_555
O6 Zn2 1_555 1_555
O7 C28 1_555 1_555
O8 C28 1_555 1_555
O10 S1 1_555 1_555
O12 S2 1_555 1_555
C1 C2 1_555 1_555
C2 C3 1_555 1_555
C3 H1 1_555 1_555
C4 C2 1_555 1_555
H2 C4 1_555 1_555
C5 S1 1_555 1_555
C6 C4 1_555 1_555
H3 C6 1_555 1_555
C7 C5 1_555 1_555
C8 C7 1_555 1_555
C9 S1 1_555 1_555
C10 C8 1_555 1_555
H4 C10 1_555 1_555
C11 C9 1_555 1_555
H5 C11 1_555 1_555
C12 C10 1_555 1_555
H6 C12 1_555 1_555
C13 C11 1_555 1_555
C14 C13 1_555 1_555
C15 O5 1_555 1_555
C16 C15 1_555 1_555
C17 C16 1_555 1_555
H7 C17 1_555 1_555
C18 C16 1_555 1_555
H8 C18 1_555 1_555
C19 S2 1_555 1_555
C20 C18 1_555 1_555
H9 C20 1_555 1_555
C21 C19 1_555 1_555
C22 C21 1_555 1_555
C23 S2 1_555 1_555
C24 C22 1_555 1_555
H10 C24 1_555 1_555
C25 C23 1_555 1_555
H11 C25 1_555 1_555
C26 C24 1_555 1_555
H12 C26 1_555 1_555
C27 C25 1_555 1_555
C28 C27 1_555 1_555
N1 Zn1 1_555 1_555
N2 C37 1_555 1_555
C29 N1 1_555 1_555
H13 C29 1_555 1_555
C30 N1 1_555 1_555
H14 C30 1_555 1_555
C31 C29 1_555 1_555
H15 C31 1_555 1_555
C32 C30 1_555 1_555
H16 C32 1_555 1_555
C33 C31 1_555 1_555
C34 C33 1_555 1_555
C35 C34 1_555 1_555
H17 C35 1_555 1_555
C36 C34 1_555 1_555
H18 C36 1_555 1_555
C37 C35 1_555 1_555
H19 C37 1_555 1_555
C38 N2 1_555 1_555
H20 C38 1_555 1_555
Zn1C O4 1_555 1_555
Zn1C_2 O8 1_555 1_555
Zn2C O3 1_555 1_555
Zn2C_2 O7 1_555 1_555
Zn2_2 N2 1_555 1_555
O3C Zn2 1_555 1_555
O4C Zn1 1_555 1_555
O7C Zn2 1_555 1_555
O8C Zn1 1_555 1_555
N2_2 Zn2 1_555 1_555
O6 C15 1_555 1_555
C3 C5 1_555 1_555
C6 C7 1_555 1_555
C8 C9 1_555 1_555
C12 C13 1_555 1_555
C17 C19 1_555 1_555
C20 C21 1_555 1_555
C22 C23 1_555 1_555
C26 C27 1_555 1_555
C32 C33 1_555 1_555
C36 C38 1_555 1_555

#END
