
#######################################################################
#
#                 Cambridge Crystallographic Data Centre
#                                CCDC 
#
#######################################################################
#
# If this CIF has been generated from an entry in the Cambridge 
# Structural Database, then it will include bibliographic, chemical, 
# crystal, experimental, refinement or atomic coordinate data resulting 
# from the CCDC's data processing and validation procedures.
#
#######################################################################

data_ENECOQ
_symmetry_cell_setting           monoclinic
_symmetry_space_group_name_H-M   'C 2/c'
_symmetry_Int_Tables_number      15
_space_group_name_Hall           '-C 2yn'
loop_
_symmetry_equiv_pos_site_id
_symmetry_equiv_pos_as_xyz
1 x,y,z
2 -x,y,1/2-z
3 1/2+x,1/2+y,z
4 1/2-x,1/2+y,1/2-z
5 -x,-y,-z
6 x,-y,1/2+z
7 1/2-x,1/2-y,-z
8 1/2+x,1/2-y,1/2+z
_cell_length_a                   20.377(9)
_cell_length_b                   10.406(5)
_cell_length_c                   21.189(9)
_cell_angle_alpha                90
_cell_angle_beta                 98.383(7)
_cell_angle_gamma                90
_cell_volume                     4444.98
loop_
_atom_site_label
_atom_site_type_symbol
_atom_site_fract_x
_atom_site_fract_y
_atom_site_fract_z
Mo1 Mo 0.13666(3) 0.44590(5) 0.48726(2)
Mo2 Mo 0.01370(3) 0.65204(5) 0.47381(2)
Mo3 Mo 0.10769(3) 0.47995(6) 0.63856(3)
Mo4 Mo 0.04728(3) 0.56842(5) 0.32880(2)
O1 O 0.1923(2) 0.5720(5) 0.4936(2)
O2 O 0.0582(2) 0.5335(4) 0.5372(2)
O3 O 0.0704(2) 0.5204(5) 0.4243(2)
O4 O 0.0524(2) 0.2978(5) 0.4876(2)
O5 O 0.1726(3) 0.3285(5) 0.4476(2)
O6 O 0.1534(2) 0.3844(5) 0.5733(2)
O7 O 0.0658(2) 0.7808(5) 0.4821(2)
O8 O -0.0261(2) 0.6635(4) 0.3894(2)
O9 O 0.1405(2) 0.3810(5) 0.6990(2)
O10 O 0.1589(3) 0.6123(5) 0.6456(3)
O11 O 0.0332(2) 0.5514(4) 0.6666(2)
O12 O 0.0000 0.6258(7) 0.2500
O13 O 0.0965(3) 0.4519(5) 0.3060(2)
O14 O 0.0977(3) 0.7021(5) 0.3435(2)
O15 O 0.1882(3) 0.8375(5) 0.4254(3)
Zn1 Zn 0.2500 0.7500 0.5000
C1 C 0.3285(4) 0.4618(7) 0.4212(4)
C2 C 0.2983(3) 0.5781(7) 0.3983(3)
C3 C 0.2574(4) 0.5789(8) 0.3415(4)
H1 H 0.2373 0.6553 0.3264
C4 C 0.2453(4) 0.4670(8) 0.3057(4)
H2 H 0.2176 0.4679 0.2667
C5 C 0.2748(4) 0.3571(8) 0.3290(4)
H3 H 0.2675 0.2812 0.3059
N1 N 0.3145(3) 0.3572(6) 0.3852(3)
N2 N 0.3703(5) 0.4514(9) 0.4763(4)
N3 N 0.3092(4) 0.6921(6) 0.4354(3)
H8 H 0.379(5) 0.499(10) 0.495(5)
H9 H 0.392(5) 0.395(11) 0.478(5)
H13 H 0.309(5) 0.755(9) 0.409(5)
H14 H 0.347(6) 0.706(11) 0.454(5)
H16 H 0.325(5) 0.287(10) 0.398(4)
Mo1D Mo -0.13666(3) 0.55410(5) 0.51274(2)
Mo2D Mo -0.01370(3) 0.34796(5) 0.52619(2)
Mo3D Mo -0.10769(3) 0.52005(6) 0.36144(3)
Mo4D Mo -0.04728(3) 0.43158(5) 0.67120(2)
Mo4A Mo -0.04728(3) 0.56842(5) 0.17120(2)
O1F O 0.3077(2) 0.9280(5) 0.5064(2)
O1D O -0.1923(2) 0.4280(5) 0.5064(2)
O2D O -0.0582(2) 0.4665(4) 0.4628(2)
O3D O -0.0704(2) 0.4796(5) 0.5757(2)
O4D O -0.0524(2) 0.7022(5) 0.5124(2)
O5D O -0.1726(3) 0.6715(5) 0.5524(2)
O6D O -0.1534(2) 0.6156(5) 0.4267(2)
O7D O -0.0658(2) 0.2192(5) 0.5179(2)
O8D O 0.0261(2) 0.3365(4) 0.6106(2)
O9D O -0.1405(2) 0.6190(5) 0.3010(2)
O10D O -0.1589(3) 0.3877(5) 0.3544(3)
O11D O -0.0332(2) 0.4486(4) 0.3334(2)
O12D O 0.0000 0.3742(7) 0.7500
O13D O -0.0965(3) 0.5481(5) 0.6940(2)
O14D O -0.0977(3) 0.2979(5) 0.6565(2)
O15F O 0.3118(3) 0.6625(5) 0.5746(3)
Zn1B Zn -0.2500 0.2500 0.5000
C1F C 0.1715(4) 1.0382(7) 0.5788(4)
C2F C 0.2017(3) 0.9219(7) 0.6017(3)
C3F C 0.2426(4) 0.9211(8) 0.6585(4)
H1F H 0.2627 0.8447 0.6736
C4F C 0.2547(4) 1.0330(8) 0.6943(4)
H2F H 0.2824 1.0321 0.7333
C5F C 0.2252(4) 1.1429(8) 0.6710(4)
H3F H 0.2325 1.2188 0.6941
N1F N 0.1855(3) 1.1428(6) 0.6148(3)
N2F N 0.1297(5) 1.0486(9) 0.5237(4)
N3F N 0.1908(4) 0.8079(6) 0.5646(3)
H8F H 0.121(5) 1.001(10) 0.505(5)
H9F H 0.108(5) 1.105(11) 0.522(5)
H13F H 0.191(5) 0.745(9) 0.591(5)
H14F H 0.153(6) 0.794(11) 0.546(5)
H16F H 0.175(5) 1.213(10) 0.602(4)
O16 O 0.2072(3) 0.0921(6) 0.3921(3)
C6 C 0.9139(4) 0.1300(8) 0.2715(4)
C7 C 0.9139(4) -0.0072(8) 0.2716(4)
C8 C 0.9553(6) -0.0679(10) 0.3183(5)
H4 H 0.9562 -0.1572 0.3195
C9 C 0.9964(6) 0.0019(12) 0.3643(5)
H5 H 1.0245 -0.0406 0.3961
C10 C 0.9952(5) 0.1313(12) 0.3625(5)
H6 H 1.0227 0.1785 0.3929
N4 N 0.9543(4) 0.1921(8) 0.3166(4)
N5 N 0.8731(5) 0.1969(10) 0.2290(5)
N6 N 0.8721(5) -0.0695(9) 0.2246(5)
H7 H 0.875(8) -0.150(9) 0.247(7)
H10 H 0.880(6) 0.264(12) 0.234(5)
H11 H 0.955(5) 0.266(10) 0.310(5)
H12 H 0.857(6) 0.164(12) 0.195(6)
H15 H 0.854(10) -0.053(19) 0.193(9)
loop_
_geom_bond_atom_site_label_1
_geom_bond_atom_site_label_2
_geom_bond_site_symmetry_1
_geom_bond_site_symmetry_2
Mo1 O1 1_555 1_555
Mo2 O2 1_555 1_555
Mo3 O2 1_555 1_555
Mo4 O3 1_555 1_555
O1 Zn1 1_555 1_555
O2 Mo1 1_555 1_555
O3 Mo1 1_555 1_555
O4 Mo1 1_555 1_555
O5 Mo1 1_555 1_555
O6 Mo1 1_555 1_555
O7 Mo2 1_555 1_555
O8 Mo2 1_555 1_555
O9 Mo3 1_555 1_555
O10 Mo3 1_555 1_555
O11 Mo3 1_555 1_555
O12 Mo4 1_555 1_555
O13 Mo4 1_555 1_555
O14 Mo4 1_555 1_555
O15 Zn1 1_555 1_555
Zn1 N3 1_555 1_555
C1 C2 1_555 1_555
C2 C3 1_555 1_555
C3 H1 1_555 1_555
C4 C3 1_555 1_555
H2 C4 1_555 1_555
C5 C4 1_555 1_555
H3 C5 1_555 1_555
C6 C7 1_555 1_555
C7 C8 1_555 1_555
C8 H4 1_555 1_555
C9 C8 1_555 1_555
H5 C9 1_555 1_555
C10 C9 1_555 1_555
H6 C10 1_555 1_555
N1 C1 1_555 1_555
N2 C1 1_555 1_555
N3 C2 1_555 1_555
N4 C6 1_555 1_555
N5 C6 1_555 1_555
N6 C7 1_555 1_555
H7 N6 1_555 1_555
H8 N2 1_555 1_555
H9 N2 1_555 1_555
H10 N5 1_555 1_555
H11 N4 1_555 1_555
H12 N5 1_555 1_555
H13 N3 1_555 1_555
H14 N3 1_555 1_555
H15 N6 1_555 1_555
H16 N1 1_555 1_555
Mo1D O1D 1_555 1_555
Mo2D O2 1_555 1_555
Mo3D O8 1_555 1_555
Mo4D O11 1_555 1_555
Mo4A O12 1_555 1_555
O1F Zn1 1_555 1_555
O1D Zn1B 1_555 1_555
O2D Mo2 1_555 1_555
O3D Mo1D 1_555 1_555
O4D Mo2 1_555 1_555
O5D Mo1D 1_555 1_555
O6D Mo1D 1_555 1_555
O7D Mo2D 1_555 1_555
O8D Mo3 1_555 1_555
O9D Mo3D 1_555 1_555
O10D Mo3D 1_555 1_555
O11D Mo4 1_555 1_555
O12D Mo4D 1_555 1_555
O13D Mo4D 1_555 1_555
O14D Mo4D 1_555 1_555
O15F Zn1 1_555 1_555
C1F C2F 1_555 1_555
C2F C3F 1_555 1_555
C3F H1F 1_555 1_555
C4F C3F 1_555 1_555
H2F C4F 1_555 1_555
C5F C4F 1_555 1_555
H3F C5F 1_555 1_555
N1F C1F 1_555 1_555
N2F C1F 1_555 1_555
N3F Zn1 1_555 1_555
H8F N2F 1_555 1_555
H9F N2F 1_555 1_555
H13F N3F 1_555 1_555
H14F N3F 1_555 1_555
H16F N1F 1_555 1_555
Mo2 O3 1_555 1_555
Mo3 O6 1_555 1_555
Mo4 O8 1_555 1_555
O4 Mo2D 1_555 1_555
C5 N1 1_555 1_555
C10 N4 1_555 1_555
Mo1D O2D 1_555 1_555
Mo1D O4D 1_555 1_555
Mo2D O2D 1_555 1_555
Mo2D O3D 1_555 1_555
Mo2D O8D 1_555 1_555
Mo3D O2D 1_555 1_555
Mo3D O6D 1_555 1_555
Mo3D O11D 1_555 1_555
Mo4D O3D 1_555 1_555
Mo4D O8D 1_555 1_555
C2F N3F 1_555 1_555
C5F N1F 1_555 1_555

#END
