
#######################################################################
#
#                 Cambridge Crystallographic Data Centre
#                                CCDC 
#
#######################################################################
#
# If this CIF has been generated from an entry in the Cambridge 
# Structural Database, then it will include bibliographic, chemical, 
# crystal, experimental, refinement or atomic coordinate data resulting 
# from the CCDC's data processing and validation procedures.
#
#######################################################################

data_ENIXUV
_symmetry_cell_setting           monoclinic
_symmetry_space_group_name_H-M   'C 2/c'
_symmetry_Int_Tables_number      15
_space_group_name_Hall           '-C 2yn'
loop_
_symmetry_equiv_pos_site_id
_symmetry_equiv_pos_as_xyz
1 x,y,z
2 -x,y,1/2-z
3 1/2+x,1/2+y,z
4 1/2-x,1/2+y,1/2-z
5 -x,-y,-z
6 x,-y,1/2+z
7 1/2-x,1/2-y,-z
8 1/2+x,1/2-y,1/2+z
_cell_length_a                   22.7200(3)
_cell_length_b                   26.4710(4)
_cell_length_c                   26.6820(6)
_cell_angle_alpha                90
_cell_angle_beta                 90.0500(16)
_cell_angle_gamma                90
_cell_volume                     16047.1
loop_
_atom_site_label
_atom_site_type_symbol
_atom_site_fract_x
_atom_site_fract_y
_atom_site_fract_z
Mn6 Mn 0.0000 0.24222(4) 0.2500
C61 C -0.0540(2) 0.1366(2) 0.2501(2)
C62 C -0.1103(2) 0.1117(2) 0.25210(19)
H37 H -0.1171 0.0763 0.2545
C63 C -0.1520(2) 0.1487(2) 0.24984(19)
H38 H -0.1934 0.1439 0.2492
C64 C -0.1222(2) 0.19556(19) 0.24869(19)
C65 C -0.1510(2) 0.24208(19) 0.25198(19)
C66 C -0.1217(2) 0.28957(19) 0.25674(19)
C67 C -0.1501(2) 0.33526(19) 0.2662(2)
H39 H -0.1911 0.3399 0.2718
C68 C -0.1081(3) 0.3721(2) 0.2659(2)
H40 H -0.1141 0.4072 0.2714
C69 C -0.0540(2) 0.3482(2) 0.25585(19)
C70 C 0.0000 0.3745(3) 0.2500
C71 C 0.0000 0.1115(3) 0.2500
N13 N -0.06161(19) 0.18872(15) 0.24925(16)
N14 N -0.06160(19) 0.29597(16) 0.25133(17)
C72 C 0.0000 0.0554(3) 0.2500
C73 C 0.0271(2) 0.0275(2) 0.2885(2)
H41 H 0.0456 0.0452 0.3151
C74 C 0.0280(3) -0.0234(2) 0.2891(3)
H42 H 0.0470 -0.0415 0.3152
C75 C 0.0000 -0.0484(4) 0.2500
H43 H 0.0000 -0.0843 0.2500
C76 C 0.0000 0.4288(3) 0.2500
C77 C -0.0329(2) 0.4583(2) 0.2173(2)
H44 H -0.0566 0.4405 0.1938
C78 C -0.0352(3) 0.5083(2) 0.2151(2)
H45 H -0.0588 0.5262 0.1917
C79 C 0.0000 0.5315(4) 0.2500
H46 H 0.0000 0.5674 0.2500
O1 O -0.00745(17) 0.24278(13) 0.33392(15)
C80 C 0.0244(2) 0.25092(17) 0.3714(2)
H47 H 0.0657 0.2537 0.3670
N15 N 0.0018(2) 0.25587(15) 0.41763(18)
C81 C 0.0396(3) 0.2641(3) 0.4609(2)
H48 H 0.0376 0.2347 0.4831
H49 H 0.0264 0.2943 0.4790
H50 H 0.0803 0.2690 0.4496
C82 C -0.0605(3) 0.2543(2) 0.4267(2)
H51 H -0.0814 0.2515 0.3947
H52 H -0.0727 0.2854 0.4438
H53 H -0.0699 0.2251 0.4477
C83 C -0.2159(2) 0.24351(19) 0.2509(2)
C84 C -0.2483(3) 0.2552(2) 0.2933(3)
H54 H -0.2274 0.2613 0.3236
N16 N -0.3063(4) 0.2583(3) 0.2944(4)
C85 C -0.3346(5) 0.2493(4) 0.2503(7)
H55 H -0.3763 0.2510 0.2496
C86 C -0.3047(4) 0.2374(3) 0.2059(4)
H56 H -0.3256 0.2306 0.1758
C87 C -0.2476(3) 0.2360(2) 0.2073(3)
H57 H -0.2268 0.2295 0.1771
C61A C 0.0540(2) 0.1366(2) 0.2499(2)
C62A C 0.1103(2) 0.1117(2) 0.24790(19)
H37A H 0.1171 0.0763 0.2455
C63A C 0.1520(2) 0.1487(2) 0.25016(19)
H38A H 0.1934 0.1439 0.2508
C64A C 0.1222(2) 0.19556(19) 0.25131(19)
C65A C 0.1510(2) 0.24208(19) 0.24802(19)
C66A C 0.1217(2) 0.28957(19) 0.24326(19)
C67A C 0.1501(2) 0.33526(19) 0.2338(2)
H39A H 0.1911 0.3399 0.2282
C68A C 0.1081(3) 0.3721(2) 0.2341(2)
H40A H 0.1141 0.4072 0.2286
C69A C 0.0540(2) 0.3482(2) 0.24415(19)
N13A N 0.06161(19) 0.18872(15) 0.25075(16)
N14A N 0.06160(19) 0.29597(16) 0.24867(17)
C73A C -0.0271(2) 0.0275(2) 0.2115(2)
H41A H -0.0456 0.0452 0.1849
C74A C -0.0280(3) -0.0234(2) 0.2109(3)
H42A H -0.0470 -0.0415 0.1848
C77A C 0.0329(2) 0.4583(2) 0.2827(2)
H44A H 0.0566 0.4405 0.3062
C78A C 0.0352(3) 0.5083(2) 0.2849(2)
H45A H 0.0588 0.5262 0.3083
O1A O 0.00745(17) 0.24278(13) 0.16608(15)
C80A C -0.0244(2) 0.25092(17) 0.1286(2)
H47A H -0.0657 0.2537 0.1330
N15A N -0.0018(2) 0.25587(15) 0.08237(18)
C81A C -0.0396(3) 0.2641(3) 0.0391(2)
H48A H -0.0376 0.2347 0.0169
H49A H -0.0264 0.2943 0.0210
H50A H -0.0803 0.2690 0.0504
C82A C 0.0605(3) 0.2543(2) 0.0733(2)
H51A H 0.0814 0.2515 0.1053
H52A H 0.0727 0.2854 0.0562
H53A H 0.0699 0.2251 0.0523
C83A C 0.2159(2) 0.24351(19) 0.2491(2)
C84A C 0.2483(3) 0.2552(2) 0.2067(3)
H54A H 0.2274 0.2613 0.1764
N16A N 0.3063(4) 0.2583(3) 0.2056(4)
C85A C 0.3346(5) 0.2493(4) 0.2497(7)
H55A H 0.3763 0.2510 0.2504
C86A C 0.3047(4) 0.2374(3) 0.2941(4)
H56A H 0.3256 0.2306 0.3242
C87A C 0.2476(3) 0.2360(2) 0.2927(3)
H57A H 0.2268 0.2295 0.3229
Mn1 Mn 0.5000 0.0000 0.5000
C1 C 0.46138(18) 0.07112(14) 0.58466(15)
C2 C 0.48424(19) 0.11062(15) 0.61594(17)
H1 H 0.4628 0.1293 0.6402
C3 C 0.54143(19) 0.11651(15) 0.60474(16)
H2 H 0.5681 0.1394 0.6201
C4 C 0.44543(17) -0.08186(14) 0.43467(15)
C5 C 0.39008(18) -0.07840(15) 0.45910(15)
C6 C 0.37898(17) -0.04818(14) 0.50073(16)
C7 C 0.32326(18) -0.04577(16) 0.52590(17)
H3 H 0.2897 -0.0659 0.5186
C8 C 0.32678(18) -0.01041(15) 0.56123(16)
H4 H 0.2962 -0.0007 0.5835
C9 C 0.38479(17) 0.01028(14) 0.55974(16)
C10 C 0.40451(18) 0.05190(14) 0.58814(14)
N1 N 0.49465(14) -0.05423(12) 0.44684(12)
N2 N 0.41751(14) -0.01447(12) 0.52274(12)
C11 C 0.36054(17) 0.07711(15) 0.62108(15)
C12 C 0.33452(18) 0.05171(16) 0.66113(16)
H5 H 0.3473 0.0183 0.6684
N3 N 0.29244(15) 0.07190(13) 0.68992(13)
C13 C 0.2751(2) 0.11948(16) 0.67956(17)
H6 H 0.2451 0.1342 0.6995
C14 C 0.2990(2) 0.14754(16) 0.64151(16)
H7 H 0.2862 0.1812 0.6359
C15 C 0.34179(19) 0.12641(15) 0.61147(16)
H8 H 0.3583 0.1452 0.5846
C16 C 0.34109(18) -0.10927(14) 0.43930(15)
C17 C 0.32151(17) -0.15154(15) 0.46536(16)
H9 H 0.3411 -0.1604 0.4956
N4 N 0.27658(15) -0.18046(12) 0.45018(13)
C18 C 0.24970(19) -0.16797(15) 0.40756(17)
H10 H 0.2177 -0.1882 0.3965
C19 C 0.2661(2) -0.12732(17) 0.37881(16)
H11 H 0.2458 -0.1197 0.3486
C20 C 0.31300(18) -0.09742(15) 0.39474(16)
H12 H 0.3255 -0.0693 0.3753
Mn2 Mn 0.0000 0.0000 0.5000
C21 C 0.05270(18) 0.06737(14) 0.41805(16)
C22 C 0.0384(2) 0.10986(16) 0.38739(17)
H13 H 0.0636 0.1257 0.3638
C23 C -0.01732(19) 0.12337(16) 0.39795(16)
H14 H -0.0387 0.1503 0.3830
C24 C -0.03845(18) 0.08969(14) 0.43586(16)
C25 C -0.09463(18) 0.09163(14) 0.45709(16)
C26 C -0.11268(18) 0.06106(15) 0.49683(16)
C27 C 0.17098(18) -0.06317(16) 0.48169(16)
H15 H 0.2016 -0.0858 0.4908
C28 C 0.17383(19) -0.02695(16) 0.44629(17)
H16 H 0.2069 -0.0195 0.4258
C29 C 0.11838(18) -0.00185(15) 0.44499(16)
C30 C 0.10561(18) 0.04047(15) 0.41568(16)
N5 N 0.00550(14) 0.05593(11) 0.44852(12)
N6 N -0.08039(14) 0.02411(12) 0.52022(12)
C31 C -0.13814(17) 0.12679(15) 0.43556(16)
C32 C -0.16329(18) 0.16517(15) 0.46395(17)
H17 H -0.1491 0.1702 0.4971
N7 N -0.20618(15) 0.19542(12) 0.44756(14)
C33 C -0.2255(2) 0.18809(17) 0.40051(18)
H18 H -0.2563 0.2090 0.3883
C34 C -0.2031(2) 0.15210(17) 0.36937(19)
H19 H -0.2180 0.1483 0.3363
C35 C -0.1579(2) 0.12081(17) 0.38665(18)
H20 H -0.1411 0.0959 0.3654
C36 C 0.15278(17) 0.05814(15) 0.38153(16)
C37 C 0.17016(19) 0.02589(16) 0.34175(16)
H21 H 0.1489 -0.0045 0.3364
N8 N 0.21526(16) 0.03672(13) 0.31164(14)
C38 C 0.2439(2) 0.08048(18) 0.31979(19)
H22 H 0.2769 0.0880 0.2993
C39 C 0.2283(2) 0.11498(17) 0.35601(18)
H23 H 0.2489 0.1461 0.3591
C40 C 0.18217(19) 0.10354(16) 0.38774(17)
H24 H 0.1708 0.1264 0.4134
Mn3 Mn 0.2500 0.2500 0.5000
Cl1 Cl 0.18758(5) 0.23682(4) 0.42100(5)
C41 C 0.35128(18) 0.29615(15) 0.44013(15)
C42 C 0.40297(19) 0.28225(15) 0.41173(17)
H25 H 0.4296 0.3046 0.3956
C43 C 0.40619(19) 0.23127(15) 0.41255(17)
H26 H 0.4358 0.2112 0.3972
C44 C 0.35675(17) 0.21282(14) 0.44069(15)
C45 C 0.34539(17) 0.16179(14) 0.45079(14)
C46 C 0.29848(17) 0.14436(14) 0.47944(15)
C47 C 0.28448(18) 0.09127(15) 0.48751(15)
H27 H 0.3061 0.0632 0.4752
C48 C 0.23525(18) 0.08937(14) 0.51559(16)
H28 H 0.2160 0.0597 0.5271
C49 C 0.21707(18) 0.14107(14) 0.52489(15)
C50 C 0.16655(18) 0.15466(14) 0.55202(15)
N9 N 0.32313(14) 0.25306(11) 0.45758(12)
N10 N 0.25652(13) 0.17363(11) 0.50274(11)
C51 C 0.38691(17) 0.12373(14) 0.42870(16)
C52 C 0.42199(17) 0.09384(14) 0.45983(15)
H29 H 0.4206 0.0997 0.4949
N11 N 0.45785(14) 0.05701(12) 0.44266(13)
C53 C 0.45998(18) 0.05042(15) 0.39362(16)
H30 H 0.4852 0.0248 0.3810
C54 C 0.42796(19) 0.07836(17) 0.35974(17)
H31 H 0.4316 0.0723 0.3248
C55 C 0.39039(19) 0.11537(15) 0.37737(16)
H32 H 0.3673 0.1348 0.3548
C56 C 0.12994(17) 0.11257(14) 0.57304(16)
C57 C 0.08766(18) 0.08897(15) 0.54305(16)
H33 H 0.0828 0.1005 0.5096
N12 N 0.05337(14) 0.05061(12) 0.55908(13)
C58 C 0.0595(2) 0.03595(16) 0.60614(17)
H34 H 0.0354 0.0092 0.6180
C59 C 0.0993(2) 0.05757(19) 0.6389(2)
H35 H 0.1022 0.0461 0.6726
C60 C 0.1350(2) 0.09615(18) 0.62176(18)
H36 H 0.1629 0.1113 0.6436
Mn4 Mn 0.25040(3) 0.01880(3) 0.75047(3)
Cl2 Cl 0.34301(5) 0.00877(4) 0.79195(5)
Cl3 Cl 0.17799(5) 0.08210(4) 0.76927(4)
Cl4 Cl 0.23213(7) -0.03997(5) 0.68525(5)
Mn5 Mn -0.2500 0.2500 0.5000
Cl5 Cl -0.34438(5) 0.24263(4) 0.45119(4)
Mn1B Mn 0.0000 0.5000 0.5000
C1D C 0.53862(18) -0.07112(14) 0.41534(15)
C2D C 0.51576(19) -0.11062(15) 0.38406(17)
H1D H 0.5372 -0.1293 0.3598
C3D C 0.45857(19) -0.11651(15) 0.39526(16)
H2D H 0.4319 -0.1394 0.3799
C4D C 0.55457(17) 0.08186(14) 0.56533(15)
C5D C 0.60992(18) 0.07840(15) 0.54090(15)
C6D C 0.62102(17) 0.04818(14) 0.49927(16)
C7D C 0.67674(18) 0.04577(16) 0.47410(17)
H3D H 0.7103 0.0659 0.4814
C8D C 0.67322(18) 0.01041(15) 0.43877(16)
H4D H 0.7038 0.0007 0.4165
C9D C 0.61521(17) -0.01028(14) 0.44026(16)
C10D C 0.59549(18) -0.05190(14) 0.41186(14)
N1D N 0.50535(14) 0.05423(12) 0.55316(12)
N2D N 0.58249(14) 0.01447(12) 0.47726(12)
C11D C 0.63946(17) -0.07711(15) 0.37892(15)
C12D C 0.66548(18) -0.05171(16) 0.33887(16)
H5D H 0.6527 -0.0183 0.3316
N3D N 0.70756(15) -0.07190(13) 0.31008(13)
N3A N -0.29244(15) 0.07190(13) 0.81008(13)
C13D C 0.7249(2) -0.11948(16) 0.32044(17)
H6D H 0.7549 -0.1342 0.3005
C14D C 0.7010(2) -0.14754(16) 0.35849(16)
H7D H 0.7138 -0.1812 0.3641
C15D C 0.65821(19) -0.12641(15) 0.38853(16)
H8D H 0.6417 -0.1452 0.4154
C16D C 0.65891(18) 0.10927(14) 0.56070(15)
C17D C 0.67849(17) 0.15154(15) 0.53464(16)
H9D H 0.6589 0.1604 0.5044
N4D N 0.72342(15) 0.18046(12) 0.54982(13)
N4B N -0.22342(15) 0.31954(12) 0.45018(13)
N4D_2 N -0.27658(15) 0.18046(12) 0.54982(13)
C18D C 0.75030(19) 0.16797(15) 0.59244(17)
H10D H 0.7823 0.1882 0.6035
C19D C 0.7339(2) 0.12732(17) 0.62119(16)
H11D H 0.7542 0.1197 0.6514
C20D C 0.68700(18) 0.09742(15) 0.60526(16)
H12D H 0.6745 0.0693 0.6247
Mn2B Mn 0.5000 0.5000 0.5000
C21D C -0.05270(18) -0.06737(14) 0.58195(16)
C22D C -0.0384(2) -0.10986(16) 0.61261(17)
H13D H -0.0636 -0.1257 0.6362
C23D C 0.01732(19) -0.12337(16) 0.60205(16)
H14D H 0.0387 -0.1503 0.6170
C24D C 0.03845(18) -0.08969(14) 0.56414(16)
C25D C 0.09463(18) -0.09163(14) 0.54291(16)
C26D C 0.11268(18) -0.06106(15) 0.50317(16)
C27D C -0.17098(18) 0.06317(16) 0.51831(16)
H15D H -0.2016 0.0858 0.5092
C28D C -0.17383(19) 0.02695(16) 0.55371(17)
H16D H -0.2069 0.0195 0.5742
C29D C -0.11838(18) 0.00185(15) 0.55501(16)
C30D C -0.10561(18) -0.04047(15) 0.58432(16)
N5D N -0.00550(14) -0.05593(11) 0.55148(12)
N6D N 0.08039(14) -0.02411(12) 0.47978(12)
C31D C 0.13814(17) -0.12679(15) 0.56444(16)
C32D C 0.16329(18) -0.16517(15) 0.53605(17)
H17D H 0.1491 -0.1702 0.5029
N7D N 0.20618(15) -0.19542(12) 0.55244(14)
N7F N -0.29382(15) 0.30458(12) 0.55244(14)
C33D C 0.2255(2) -0.18809(17) 0.59949(18)
H18D H 0.2563 -0.2090 0.6117
C34D C 0.2031(2) -0.15210(17) 0.63063(19)
H19D H 0.2180 -0.1483 0.6637
C35D C 0.1579(2) -0.12081(17) 0.61335(18)
H20D H 0.1411 -0.0959 0.6346
C36D C -0.15278(17) -0.05814(15) 0.61847(16)
C37D C -0.17016(19) -0.02589(16) 0.65825(16)
H21D H -0.1489 0.0045 0.6636
N8D N -0.21526(16) -0.03672(13) 0.68836(14)
N8E N 0.21526(16) -0.03672(13) 0.81164(14)
C38D C -0.2439(2) -0.08048(18) 0.68021(19)
H22D H -0.2769 -0.0880 0.7007
C39D C -0.2283(2) -0.11498(17) 0.64399(18)
H23D H -0.2489 -0.1461 0.6409
C40D C -0.18217(19) -0.10354(16) 0.61226(17)
H24D H -0.1708 -0.1264 0.5866
Cl1F Cl 0.31242(5) 0.26318(4) 0.57900(5)
C41F C 0.14872(18) 0.20385(15) 0.55987(15)
C42F C 0.09703(19) 0.21775(15) 0.58827(17)
H25F H 0.0704 0.1954 0.6044
C43F C 0.09381(19) 0.26873(15) 0.58745(17)
H26F H 0.0642 0.2888 0.6028
C44F C 0.14325(17) 0.28718(14) 0.55931(15)
C45F C 0.15461(17) 0.33821(14) 0.54921(14)
C46F C 0.20152(17) 0.35564(14) 0.52056(15)
C47F C 0.21552(18) 0.40873(15) 0.51249(15)
H27F H 0.1939 0.4368 0.5248
C48F C 0.26475(18) 0.41063(14) 0.48441(16)
H28F H 0.2840 0.4403 0.4729
C49F C 0.28293(18) 0.35893(14) 0.47511(15)
C50F C 0.33345(18) 0.34534(14) 0.44798(15)
N9F N 0.17687(14) 0.24694(11) 0.54242(12)
N10F N 0.24348(13) 0.32637(11) 0.49726(11)
C51F C 0.11309(17) 0.37627(14) 0.57130(16)
C52F C 0.07801(17) 0.40616(14) 0.54017(15)
H29F H 0.0794 0.4003 0.5051
N11F N 0.04215(14) 0.44299(12) 0.55734(13)
N11D N 0.54215(14) -0.05701(12) 0.55734(13)
C53F C 0.04002(18) 0.44958(15) 0.60638(16)
H30F H 0.0148 0.4752 0.6190
C54F C 0.07204(19) 0.42164(17) 0.64026(17)
H31F H 0.0684 0.4277 0.6752
C55F C 0.10961(19) 0.38463(15) 0.62263(16)
H32F H 0.1327 0.3652 0.6452
C56F C 0.37006(17) 0.38743(14) 0.42696(16)
C57F C 0.41234(18) 0.41103(15) 0.45695(16)
H33F H 0.4172 0.3995 0.4904
N12F N 0.44663(14) 0.44939(12) 0.44092(13)
N12D N -0.05337(14) -0.05061(12) 0.44092(13)
C58F C 0.4405(2) 0.46405(16) 0.39386(17)
H34F H 0.4646 0.4908 0.3820
C59F C 0.4007(2) 0.44243(19) 0.3611(2)
H35F H 0.3978 0.4539 0.3274
C60F C 0.3650(2) 0.40385(18) 0.37824(18)
H36F H 0.3371 0.3887 0.3564
Mn4A Mn -0.25040(3) 0.01880(3) 0.74953(3)
Mn4D Mn 0.74960(3) -0.01880(3) 0.24953(3)
Mn4E Mn 0.25040(3) -0.01880(3) 0.25047(3)
Cl2A Cl -0.34301(5) 0.00877(4) 0.70805(5)
Cl3A Cl -0.17799(5) 0.08210(4) 0.73073(4)
Cl4A Cl -0.23213(7) -0.03997(5) 0.81475(5)
Mn5_2 Mn 0.7500 0.2500 0.5000
Mn5B Mn 0.2500 -0.2500 0.5000
Cl5F Cl -0.15562(5) 0.25737(4) 0.54881(4)
loop_
_geom_bond_atom_site_label_1
_geom_bond_atom_site_label_2
_geom_bond_site_symmetry_1
_geom_bond_site_symmetry_2
Mn1 N1 1_555 1_555
C1 C2 1_555 1_555
C2 H1 1_555 1_555
C3 C2 1_555 1_555
H2 C3 1_555 1_555
C4 C5 1_555 1_555
C5 C6 1_555 1_555
C6 C7 1_555 1_555
C7 H3 1_555 1_555
C8 C7 1_555 1_555
H4 C8 1_555 1_555
C9 C8 1_555 1_555
C10 C1 1_555 1_555
N1 C4 1_555 1_555
N2 Mn1 1_555 1_555
C11 C10 1_555 1_555
C12 C11 1_555 1_555
H5 C12 1_555 1_555
N3 C12 1_555 1_555
C13 N3 1_555 1_555
H6 C13 1_555 1_555
C14 C13 1_555 1_555
H7 C14 1_555 1_555
C15 C11 1_555 1_555
H8 C15 1_555 1_555
C16 C5 1_555 1_555
C17 C16 1_555 1_555
H9 C17 1_555 1_555
N4 C17 1_555 1_555
C18 N4 1_555 1_555
H10 C18 1_555 1_555
C19 C18 1_555 1_555
H11 C19 1_555 1_555
C20 C16 1_555 1_555
H12 C20 1_555 1_555
Mn2 N5 1_555 1_555
C21 C22 1_555 1_555
C22 H13 1_555 1_555
C23 C22 1_555 1_555
H14 C23 1_555 1_555
C24 C23 1_555 1_555
C25 C24 1_555 1_555
C26 C25 1_555 1_555
C27 H15 1_555 1_555
C28 C27 1_555 1_555
H16 C28 1_555 1_555
C29 C28 1_555 1_555
C30 C21 1_555 1_555
N5 C21 1_555 1_555
N6 Mn2 1_555 1_555
C31 C25 1_555 1_555
C32 C31 1_555 1_555
H17 C32 1_555 1_555
N7 C32 1_555 1_555
C33 N7 1_555 1_555
H18 C33 1_555 1_555
C34 C33 1_555 1_555
H19 C34 1_555 1_555
C35 C31 1_555 1_555
H20 C35 1_555 1_555
C36 C30 1_555 1_555
C37 C36 1_555 1_555
H21 C37 1_555 1_555
N8 C37 1_555 1_555
C38 N8 1_555 1_555
H22 C38 1_555 1_555
C39 C38 1_555 1_555
H23 C39 1_555 1_555
C40 C36 1_555 1_555
H24 C40 1_555 1_555
Mn3 Cl1 1_555 1_555
C41 C42 1_555 1_555
C42 H25 1_555 1_555
C43 C42 1_555 1_555
H26 C43 1_555 1_555
C44 C43 1_555 1_555
C45 C44 1_555 1_555
C46 C45 1_555 1_555
C47 C46 1_555 1_555
H27 C47 1_555 1_555
C48 C47 1_555 1_555
H28 C48 1_555 1_555
C49 C48 1_555 1_555
C50 C49 1_555 1_555
N9 Mn3 1_555 1_555
N10 Mn3 1_555 1_555
C51 C45 1_555 1_555
C52 C51 1_555 1_555
H29 C52 1_555 1_555
N11 Mn1 1_555 1_555
C53 N11 1_555 1_555
H30 C53 1_555 1_555
C54 C53 1_555 1_555
H31 C54 1_555 1_555
C55 C51 1_555 1_555
H32 C55 1_555 1_555
C56 C50 1_555 1_555
C57 C56 1_555 1_555
H33 C57 1_555 1_555
N12 Mn2 1_555 1_555
C58 N12 1_555 1_555
H34 C58 1_555 1_555
C59 C58 1_555 1_555
H35 C59 1_555 1_555
C60 C56 1_555 1_555
H36 C60 1_555 1_555
Mn4 N3 1_555 1_555
Cl2 Mn4 1_555 1_555
Cl3 Mn4 1_555 1_555
Cl4 Mn4 1_555 1_555
Mn5 N7 1_555 1_555
Cl5 Mn5 1_555 1_555
Mn6 N13 1_555 1_555
C61 C62 1_555 1_555
C62 H37 1_555 1_555
C63 C62 1_555 1_555
H38 C63 1_555 1_555
C64 C63 1_555 1_555
C65 C64 1_555 1_555
C66 C65 1_555 1_555
C67 C66 1_555 1_555
H39 C67 1_555 1_555
C68 C67 1_555 1_555
H40 C68 1_555 1_555
C69 C68 1_555 1_555
C70 C69 1_555 1_555
C71 C61 1_555 1_555
N13 C61 1_555 1_555
N14 Mn6 1_555 1_555
C72 C71 1_555 1_555
C73 C72 1_555 1_555
H41 C73 1_555 1_555
C74 C73 1_555 1_555
H42 C74 1_555 1_555
C75 C74 1_555 1_555
H43 C75 1_555 1_555
C76 C70 1_555 1_555
C77 C76 1_555 1_555
H44 C77 1_555 1_555
C78 C77 1_555 1_555
H45 C78 1_555 1_555
C79 C78 1_555 1_555
H46 C79 1_555 1_555
O1 Mn6 1_555 1_555
C80 O1 1_555 1_555
H47 C80 1_555 1_555
N15 C80 1_555 1_555
C81 N15 1_555 1_555
H48 C81 1_555 1_555
H49 C81 1_555 1_555
H50 C81 1_555 1_555
C82 N15 1_555 1_555
H51 C82 1_555 1_555
H52 C82 1_555 1_555
H53 C82 1_555 1_555
C83 C65 1_555 1_555
C84 C83 1_555 1_555
H54 C84 1_555 1_555
N16 C84 1_555 1_555
C85 N16 1_555 1_555
H55 C85 1_555 1_555
C86 C85 1_555 1_555
H56 C86 1_555 1_555
C87 C83 1_555 1_555
H57 C87 1_555 1_555
Mn1B N11F 1_555 1_555
C1D N1 1_555 1_555
C2D C1D 1_555 1_555
H1D C2D 1_555 1_555
C3D C4 1_555 1_555
H2D C3D 1_555 1_555
C4D C3 1_555 1_555
C5D C4D 1_555 1_555
C6D C5D 1_555 1_555
C7D C6D 1_555 1_555
H3D C7D 1_555 1_555
C8D C7D 1_555 1_555
H4D C8D 1_555 1_555
C9D C8D 1_555 1_555
C10D C1D 1_555 1_555
N1D Mn1 1_555 1_555
N2D Mn1 1_555 1_555
C11D C10D 1_555 1_555
C12D C11D 1_555 1_555
H5D C12D 1_555 1_555
N3D C12D 1_555 1_555
N3A Mn4A 1_555 1_555
C13D N3D 1_555 1_555
H6D C13D 1_555 1_555
C14D C13D 1_555 1_555
H7D C14D 1_555 1_555
C15D C11D 1_555 1_555
H8D C15D 1_555 1_555
C16D C5D 1_555 1_555
C17D C16D 1_555 1_555
H9D C17D 1_555 1_555
N4D C17D 1_555 1_555
N4B Mn5 1_555 1_555
N4D_2 Mn5 1_555 1_555
C18D N4D 1_555 1_555
H10D C18D 1_555 1_555
C19D C18D 1_555 1_555
H11D C19D 1_555 1_555
C20D C16D 1_555 1_555
H12D C20D 1_555 1_555
Mn2B N12F 1_555 1_555
C21D C22D 1_555 1_555
C22D H13D 1_555 1_555
C23D C22D 1_555 1_555
H14D C23D 1_555 1_555
C24D C23D 1_555 1_555
C25D C24D 1_555 1_555
C26D C27 1_555 1_555
C27D C26 1_555 1_555
H15D C27D 1_555 1_555
C28D C27D 1_555 1_555
H16D C28D 1_555 1_555
C29D N6 1_555 1_555
C30D C21D 1_555 1_555
N5D Mn2 1_555 1_555
N6D Mn2 1_555 1_555
C31D C25D 1_555 1_555
C32D C31D 1_555 1_555
H17D C32D 1_555 1_555
N7D C32D 1_555 1_555
N7F Mn5 1_555 1_555
C33D N7D 1_555 1_555
H18D C33D 1_555 1_555
C34D C33D 1_555 1_555
H19D C34D 1_555 1_555
C35D C31D 1_555 1_555
H20D C35D 1_555 1_555
C36D C30D 1_555 1_555
C37D C36D 1_555 1_555
H21D C37D 1_555 1_555
N8D C37D 1_555 1_555
N8E Mn4 1_555 1_555
C38D N8D 1_555 1_555
H22D C38D 1_555 1_555
C39D C38D 1_555 1_555
H23D C39D 1_555 1_555
C40D C36D 1_555 1_555
H24D C40D 1_555 1_555
Cl1F Mn3 1_555 1_555
C41F C50 1_555 1_555
C42F C41F 1_555 1_555
H25F C42F 1_555 1_555
C43F C42F 1_555 1_555
H26F C43F 1_555 1_555
C44F C43F 1_555 1_555
C45F C44F 1_555 1_555
C46F C45F 1_555 1_555
C47F C46F 1_555 1_555
H27F C47F 1_555 1_555
C48F C47F 1_555 1_555
H28F C48F 1_555 1_555
C49F C48F 1_555 1_555
C50F C41 1_555 1_555
N9F Mn3 1_555 1_555
N10F Mn3 1_555 1_555
C51F C45F 1_555 1_555
C52F C51F 1_555 1_555
H29F C52F 1_555 1_555
N11F C52F 1_555 1_555
N11D Mn1 1_555 1_555
C53F N11F 1_555 1_555
H30F C53F 1_555 1_555
C54F C53F 1_555 1_555
H31F C54F 1_555 1_555
C55F C51F 1_555 1_555
H32F C55F 1_555 1_555
C56F C50F 1_555 1_555
C57F C56F 1_555 1_555
H33F C57F 1_555 1_555
N12F C57F 1_555 1_555
N12D Mn2 1_555 1_555
C58F N12F 1_555 1_555
H34F C58F 1_555 1_555
C59F C58F 1_555 1_555
H35F C59F 1_555 1_555
C60F C56F 1_555 1_555
H36F C60F 1_555 1_555
Mn4A N8D 1_555 1_555
Mn4D N3D 1_555 1_555
Mn4E N8 1_555 1_555
Cl2A Mn4A 1_555 1_555
Cl3A Mn4A 1_555 1_555
Cl4A Mn4A 1_555 1_555
Mn5_2 N4D 1_555 1_555
Mn5B N4 1_555 1_555
Cl5F Mn5 1_555 1_555
C61A C71 1_555 1_555
C62A C61A 1_555 1_555
H37A C62A 1_555 1_555
C63A C62A 1_555 1_555
H38A C63A 1_555 1_555
C64A C63A 1_555 1_555
C65A C64A 1_555 1_555
C66A C65A 1_555 1_555
C67A C66A 1_555 1_555
H39A C67A 1_555 1_555
C68A C67A 1_555 1_555
H40A C68A 1_555 1_555
C69A C70 1_555 1_555
N13A Mn6 1_555 1_555
N14A Mn6 1_555 1_555
C73A C72 1_555 1_555
H41A C73A 1_555 1_555
C74A C75 1_555 1_555
H42A C74A 1_555 1_555
C77A C76 1_555 1_555
H44A C77A 1_555 1_555
C78A C79 1_555 1_555
H45A C78A 1_555 1_555
O1A Mn6 1_555 1_555
C80A O1A 1_555 1_555
H47A C80A 1_555 1_555
N15A C80A 1_555 1_555
C81A N15A 1_555 1_555
H48A C81A 1_555 1_555
H49A C81A 1_555 1_555
H50A C81A 1_555 1_555
C82A N15A 1_555 1_555
H51A C82A 1_555 1_555
H52A C82A 1_555 1_555
H53A C82A 1_555 1_555
C83A C65A 1_555 1_555
C84A C83A 1_555 1_555
H54A C84A 1_555 1_555
N16A C84A 1_555 1_555
C85A N16A 1_555 1_555
H55A C85A 1_555 1_555
C86A C85A 1_555 1_555
H56A C86A 1_555 1_555
C87A C83A 1_555 1_555
H57A C87A 1_555 1_555
C1 N1D 1_555 1_555
C6 N2 1_555 1_555
C9 C10 1_555 1_555
C9 N2 1_555 1_555
C14 C15 1_555 1_555
C19 C20 1_555 1_555
C24 N5 1_555 1_555
C26 N6 1_555 1_555
C29 C30 1_555 1_555
C29 N6D 1_555 1_555
C34 C35 1_555 1_555
C39 C40 1_555 1_555
C41 N9 1_555 1_555
C44 N9 1_555 1_555
C46 N10 1_555 1_555
C49 N10 1_555 1_555
C52 N11 1_555 1_555
C54 C55 1_555 1_555
C57 N12 1_555 1_555
C59 C60 1_555 1_555
C64 N13 1_555 1_555
C66 N14 1_555 1_555
C69 N14 1_555 1_555
C86 C87 1_555 1_555
C2D C3D 1_555 1_555
C4D N1D 1_555 1_555
C6D N2D 1_555 1_555
C9D C10D 1_555 1_555
C9D N2D 1_555 1_555
C14D C15D 1_555 1_555
C19D C20D 1_555 1_555
C21D N5D 1_555 1_555
C24D N5D 1_555 1_555
C25D C26D 1_555 1_555
C26D N6D 1_555 1_555
C28D C29D 1_555 1_555
C29D C30D 1_555 1_555
N7D Mn5B 1_555 1_555
C34D C35D 1_555 1_555
C39D C40D 1_555 1_555
C41F N9F 1_555 1_555
C44F N9F 1_555 1_555
C46F N10F 1_555 1_555
C49F C50F 1_555 1_555
C49F N10F 1_555 1_555
C54F C55F 1_555 1_555
C59F C60F 1_555 1_555
C61A N13A 1_555 1_555
C64A N13A 1_555 1_555
C66A N14A 1_555 1_555
C68A C69A 1_555 1_555
C69A N14A 1_555 1_555
C73A C74A 1_555 1_555
C77A C78A 1_555 1_555
C86A C87A 1_555 1_555

#END
