
#######################################################################
#
#                 Cambridge Crystallographic Data Centre
#                                CCDC 
#
#######################################################################
#
# If this CIF has been generated from an entry in the Cambridge 
# Structural Database, then it will include bibliographic, chemical, 
# crystal, experimental, refinement or atomic coordinate data resulting 
# from the CCDC's data processing and validation procedures.
#
#######################################################################

data_ENSCCO10
_symmetry_cell_setting           monoclinic
_symmetry_space_group_name_H-M   'P 21/c'
_symmetry_Int_Tables_number      14
_space_group_name_Hall           '-P 2ybc'
loop_
_symmetry_equiv_pos_site_id
_symmetry_equiv_pos_as_xyz
1 x,y,z
2 -x,1/2+y,1/2-z
3 -x,-y,-z
4 x,1/2-y,1/2+z
_cell_length_a                   9.624(10)
_cell_length_b                   12.788(6)
_cell_length_c                   12.049(6)
_cell_angle_alpha                90
_cell_angle_beta                 94.85(6)
_cell_angle_gamma                90
_cell_volume                     1477.58
loop_
_atom_site_label
_atom_site_type_symbol
_atom_site_fract_x
_atom_site_fract_y
_atom_site_fract_z
C1 C 0.16370 0.19820 -0.13810
C2 C 0.30020 0.13900 -0.12150
C3 C 0.43510 0.21500 0.05130
C4 C 0.34180 0.30430 0.08070
C5 C 0.50780 0.16850 0.15770
C6 C 0.41650 0.12160 0.24320
C7 C -0.05150 0.21330 -0.03400
C8 C -0.07810 0.19730 0.08700
C9 C -0.18090 0.18840 -0.11250
C10 C -0.24040 0.08310 -0.08720
O1 O 0.21340 0.28080 0.08740
O2 O 0.39350 0.39060 0.09800
O3 O 0.28510 0.11480 0.22150
O4 O 0.47320 0.09190 0.33180
O5 O 0.01630 0.15370 0.14970
O6 O -0.19100 0.22440 0.11800
O7 O -0.14910 0.01080 -0.07350
O8 O -0.36710 0.07230 -0.08630
N1 N 0.07320 0.15340 -0.05560
N2 N 0.34550 0.13060 0.00010
Co1 Co 0.18400 0.13480 0.08060
H1 H 0.04200 0.09600 -0.08300
H2 H 0.17300 0.28200 -0.11200
H3 H 0.12200 0.19900 -0.20000
H4 H 0.39600 0.06300 0.02300
H5 H 0.36500 0.15800 -0.14700
H6 H 0.28600 0.06900 -0.14300
H7 H 0.51700 0.24200 -0.01000
H8 H 0.57500 0.11900 0.14200
H9 H 0.54700 0.22300 0.20200
H10 H -0.04100 0.29000 -0.04300
H11 H -0.24100 0.24200 -0.09500
H12 H -0.14400 0.19100 -0.19100
Co1B Co -0.18400 -0.13480 -0.08060
O7B O 0.14910 -0.01080 0.07350
O9 O 0.79990 0.06570 0.30030
O10 O 0.68920 0.41700 0.04400
O11 O 0.07170 0.01060 0.34480
Li1 Li 0.65120 0.03640 0.38980
loop_
_geom_bond_atom_site_label_1
_geom_bond_atom_site_label_2
_geom_bond_site_symmetry_1
_geom_bond_site_symmetry_2
C1 C2 1_555 1_555
C2 N2 1_555 1_555
C3 C4 1_555 1_555
C4 O1 1_555 1_555
C5 C3 1_555 1_555
C6 C5 1_555 1_555
C7 C8 1_555 1_555
C8 O5 1_555 1_555
C9 C7 1_555 1_555
C10 C9 1_555 1_555
O1 Co1 1_555 1_555
O2 C4 1_555 1_555
O3 C6 1_555 1_555
O4 C6 1_555 1_555
O5 Co1 1_555 1_555
O6 C8 1_555 1_555
O7 C10 1_555 1_555
O8 C10 1_555 1_555
N1 C1 1_555 1_555
N2 C3 1_555 1_555
Co1 O3 1_555 1_555
H1 N1 1_555 1_555
H2 C1 1_555 1_555
H3 C1 1_555 1_555
H4 N2 1_555 1_555
H5 C2 1_555 1_555
H6 C2 1_555 1_555
H7 C3 1_555 1_555
H8 C5 1_555 1_555
H9 C5 1_555 1_555
H10 C7 1_555 1_555
H11 C9 1_555 1_555
H12 C9 1_555 1_555
Co1B O7 1_555 1_555
O7B Co1 1_555 1_555
C7 N1 1_555 1_555
N1 Co1 1_555 1_555
N2 Co1 1_555 1_555

#END
