
#######################################################################
#
#                 Cambridge Crystallographic Data Centre
#                                CCDC 
#
#######################################################################
#
# If this CIF has been generated from an entry in the Cambridge 
# Structural Database, then it will include bibliographic, chemical, 
# crystal, experimental, refinement or atomic coordinate data resulting 
# from the CCDC's data processing and validation procedures.
#
#######################################################################

data_EPEWAY01
_symmetry_cell_setting           tetragonal
_symmetry_space_group_name_H-M   'P 41 2 2'
_symmetry_Int_Tables_number      91
_space_group_name_Hall           'P 4w 2c'
loop_
_symmetry_equiv_pos_site_id
_symmetry_equiv_pos_as_xyz
1 x,y,z
2 -y,x,1/4+z
3 -x,-y,1/2+z
4 y,-x,3/4+z
5 x,-y,1/2-z
6 y,x,3/4-z
7 -x,y,-z
8 -y,-x,1/4-z
_cell_length_a                   11.3358(2)
_cell_length_b                   11.3358(2)
_cell_length_c                   24.9541(9)
_cell_angle_alpha                90
_cell_angle_beta                 90
_cell_angle_gamma                90
_cell_volume                     3206.61
loop_
_atom_site_label
_atom_site_type_symbol
_atom_site_fract_x
_atom_site_fract_y
_atom_site_fract_z
Co1 Co 0.40050(14) 0.59950(14) 0.1250
Co2 Co 0.29241(19) 0.5000 0.2500
O1 O 0.2904(7) 0.3690(7) 0.1924(2)
O2 O 0.4057(6) 0.4188(7) 0.1231(2)
O3 O 0.3988(7) -0.2179(5) 0.1245(2)
O4 O 0.4037(8) -0.1667(7) 0.0384(2)
O5 O 0.4006(7) 0.5719(7) 0.0380(2)
N1 N 0.3722(11) 0.4299(9) -0.0265(4)
H1 H 0.4430 0.4298 -0.0389
N2 N 0.2238(9) 0.4714(10) 0.0286(4)
H2 H 0.1863 0.5064 0.0541
C1 C 0.3556(11) 0.2215(11) 0.1359(4)
C2 C 0.3968(13) 0.1907(11) 0.0829(3)
H3 H 0.4177 0.2490 0.0585
C3 C 0.4048(13) 0.0701(11) 0.0691(4)
H4 H 0.4295 0.0508 0.0346
C4 C 0.3782(11) -0.0199(11) 0.1035(3)
C5 C 0.3397(14) 0.0142(12) 0.1560(4)
H5 H 0.3218 -0.0444 0.1808
C6 C 0.3287(12) 0.1263(9) 0.1706(4)
H6 H 0.3023 0.1431 0.2051
C7 C 0.3515(12) 0.3448(11) 0.1506(3)
C8 C 0.3957(10) -0.1444(10) 0.0885(4)
C9 C 0.3327(12) 0.4937(10) 0.0153(3)
C10 C 0.2697(12) 0.3584(14) -0.0479(5)
H7 H 0.2899 0.2754 -0.0506
H8 H 0.2447 0.3868 -0.0827
C11 C 0.1738(12) 0.3790(14) -0.0053(5)
H9 H 0.1007 0.4050 -0.0217
H10 H 0.1589 0.3078 0.0151
Co1_2 Co 0.40050(14) -0.40050(14) 0.1250
Co1_3 Co 1.40050(14) 0.59950(14) 0.1250
Co2C Co 0.5000 -0.29241(19) 0.0000
Co2C_2 Co 0.5000 0.70759(19) 0.0000
Co2_2 Co 1.29241(19) 0.5000 0.2500
O1G O 0.6310(7) 0.7096(7) 0.0576(2)
O1D O 0.2904(7) 0.6310(7) 0.3076(2)
O2G O 0.5812(7) 0.5943(6) 0.1269(2)
O3G O 1.2179(5) 0.6012(7) 0.1255(2)
O3_2 O 0.3988(7) 0.7821(5) 0.1245(2)
O3G_2 O 0.2179(5) 0.6012(7) 0.1255(2)
O4G O 1.1667(7) 0.5963(8) 0.2116(2)
O4A O 0.1667(7) 0.4037(8) 0.2884(2)
O4G_2 O 0.1667(7) 0.5963(8) 0.2116(2)
O5G O 0.4281(7) 0.5994(7) 0.2120(2)
O5A O 0.4281(7) 0.4006(7) 0.2880(2)
N1G N 0.5701(9) 0.6278(11) 0.2765(4)
H1G H 0.5702 0.5570 0.2889
N2G N 0.5286(10) 0.7762(9) 0.2214(4)
H2G H 0.4936 0.8137 0.1959
C1G C 0.7785(11) 0.6444(11) 0.1141(4)
C2G C 0.8093(11) 0.6032(13) 0.1671(3)
H3G H 0.7510 0.5823 0.1915
C3G C 0.9299(11) 0.5952(13) 0.1809(4)
H4G H 0.9492 0.5705 0.2154
C4G C 1.0199(11) 0.6218(11) 0.1465(3)
C5G C 0.9858(12) 0.6603(14) 0.0940(4)
H5G H 1.0444 0.6782 0.0692
C6G C 0.8737(9) 0.6713(12) 0.0794(4)
H6G H 0.8569 0.6977 0.0449
C7G C 0.6552(11) 0.6485(12) 0.0994(3)
C8G C 1.1444(10) 0.6043(10) 0.1615(4)
C9G C 0.5063(10) 0.6673(12) 0.2347(3)
C10G C 0.6416(14) 0.7303(12) 0.2979(5)
H7G H 0.7246 0.7101 0.3006
H8G H 0.6132 0.7553 0.3327
C11G C 0.6210(14) 0.8262(12) 0.2553(5)
H9G H 0.5950 0.8993 0.2717
H10G H 0.6922 0.8411 0.2349
loop_
_geom_bond_atom_site_label_1
_geom_bond_atom_site_label_2
_geom_bond_site_symmetry_1
_geom_bond_site_symmetry_2
Co1 O2 1_555 1_555
Co2 O1 1_555 1_555
O1 C7 1_555 1_555
O2 C7 1_555 1_555
O3 C8 1_555 1_555
O4 C8 1_555 1_555
O5 Co1 1_555 1_555
N1 H1 1_555 1_555
N2 H2 1_555 1_555
C1 C2 1_555 1_555
C2 H3 1_555 1_555
C3 C2 1_555 1_555
H4 C3 1_555 1_555
C4 C3 1_555 1_555
C5 C4 1_555 1_555
H5 C5 1_555 1_555
C6 C1 1_555 1_555
H6 C6 1_555 1_555
C7 C1 1_555 1_555
C8 C4 1_555 1_555
C9 O5 1_555 1_555
C10 N1 1_555 1_555
H7 C10 1_555 1_555
H8 C10 1_555 1_555
C11 N2 1_555 1_555
H9 C11 1_555 1_555
H10 C11 1_555 1_555
Co1_2 O3 1_555 1_555
Co1_3 O3G 1_555 1_555
Co2C O4 1_555 1_555
Co2C_2 O5 1_555 1_555
Co2_2 O4G 1_555 1_555
O1G Co2C_2 1_555 1_555
O1D Co2 1_555 1_555
O2G Co1 1_555 1_555
O3G C8G 1_555 1_555
O3_2 Co1 1_555 1_555
O3G_2 Co1 1_555 1_555
O4G C8G 1_555 1_555
O4A Co2 1_555 1_555
O4G_2 Co2 1_555 1_555
O5G Co1 1_555 1_555
O5A Co2 1_555 1_555
N1G H1G 1_555 1_555
N2G H2G 1_555 1_555
C1G C2G 1_555 1_555
C2G H3G 1_555 1_555
C3G C2G 1_555 1_555
H4G C3G 1_555 1_555
C4G C3G 1_555 1_555
C5G C4G 1_555 1_555
H5G C5G 1_555 1_555
C6G C1G 1_555 1_555
H6G C6G 1_555 1_555
C7G O1G 1_555 1_555
C8G C4G 1_555 1_555
C9G O5G 1_555 1_555
C10G N1G 1_555 1_555
H7G C10G 1_555 1_555
H8G C10G 1_555 1_555
C11G N2G 1_555 1_555
H9G C11G 1_555 1_555
H10G C11G 1_555 1_555
Co2 O5G 1_555 1_555
N1 C9 1_555 1_555
N2 C9 1_555 1_555
C5 C6 1_555 1_555
C10 C11 1_555 1_555
O2G C7G 1_555 1_555
N1G C9G 1_555 1_555
N2G C9G 1_555 1_555
C1G C7G 1_555 1_555
C5G C6G 1_555 1_555
C10G C11G 1_555 1_555

#END
