
#######################################################################
#
#                 Cambridge Crystallographic Data Centre
#                                CCDC 
#
#######################################################################
#
# If this CIF has been generated from an entry in the Cambridge 
# Structural Database, then it will include bibliographic, chemical, 
# crystal, experimental, refinement or atomic coordinate data resulting 
# from the CCDC's data processing and validation procedures.
#
#######################################################################

data_EQERIC
_symmetry_cell_setting           monoclinic
_symmetry_space_group_name_H-M   'P 21/c'
_symmetry_Int_Tables_number      14
_space_group_name_Hall           '-P 2ybc'
loop_
_symmetry_equiv_pos_site_id
_symmetry_equiv_pos_as_xyz
1 x,y,z
2 -x,1/2+y,1/2-z
3 -x,-y,-z
4 x,1/2-y,1/2+z
_cell_length_a                   11.6486(14)
_cell_length_b                   17.609(2)
_cell_length_c                   10.5835(13)
_cell_angle_alpha                90
_cell_angle_beta                 110.272(2)
_cell_angle_gamma                90
_cell_volume                     2036.42
loop_
_atom_site_label
_atom_site_type_symbol
_atom_site_fract_x
_atom_site_fract_y
_atom_site_fract_z
Co1 Co -0.21628(4) 0.17353(2) 0.01683(4)
C1 C 0.2963(3) 0.27337(19) -0.1990(4)
C2 C 0.2974(3) 0.33492(18) -0.2803(4)
H1 H 0.3680 0.3459 -0.2988
C3 C 0.1949(3) 0.38037(18) -0.3343(3)
C4 C 0.0887(3) 0.36376(19) -0.3067(3)
H2 H 0.0211 0.3956 -0.3387
C5 C 0.0839(3) 0.3003(2) -0.2323(3)
C6 C 0.1876(3) 0.2558(2) -0.1769(4)
H3 H 0.1849 0.2139 -0.1246
C7 C 0.4078(3) 0.22947(19) -0.1333(4)
C8 C 0.5264(3) 0.24507(19) -0.1177(4)
H4 H 0.5529 0.2874 -0.1525
C9 C 0.5243(3) 0.1408(2) -0.0159(4)
H5 H 0.5496 0.0965 0.0338
C10 C 0.2003(3) 0.44589(18) -0.4183(3)
C11 C 0.1662(3) 0.51970(18) -0.4149(3)
H6 H 0.1271 0.5392 -0.3587
C12 C 0.2504(3) 0.51053(19) -0.5644(4)
H7 H 0.2806 0.5228 -0.6324
C13 C -0.0280(3) 0.27777(19) -0.2051(4)
C14 C -0.0344(3) 0.2421(2) -0.0951(4)
H8 H 0.0323 0.2294 -0.0194
C15 C -0.2165(3) 0.25560(18) -0.2339(3)
H9 H -0.3013 0.2537 -0.2723
N1 N 0.6011(2) 0.18862(16) -0.0428(3)
N2 N 0.4082(3) 0.16230(17) -0.0666(3)
N3 N 0.1987(2) 0.56078(15) -0.5077(3)
N4 N 0.2550(3) 0.44044(16) -0.5144(3)
N5 N -0.1549(3) 0.22746(17) -0.1121(3)
N6 N -0.1459(2) 0.28665(15) -0.2958(3)
Co1_2 Co 0.78372(4) 0.17353(2) 0.01683(4)
Co1A Co 0.21628(4) 0.67353(2) -0.51683(4)
Co1C Co -0.21628(4) 0.32647(2) -0.48317(4)
N1_2 N -0.3989(2) 0.18862(16) -0.0428(3)
N3A N -0.1987(2) 0.06078(15) 0.0077(3)
N6C N -0.1459(2) 0.21335(15) 0.2042(3)
C16 C 0.4716(12) 0.8923(6) -0.6113(11)
H10 H 0.4449 0.9098 -0.5401
H11 H 0.5096 0.8434 -0.5882
H12 H 0.4025 0.8884 -0.6932
C17 C 0.6948(12) 0.9279(9) -0.5679(15)
H13 H 0.7116 0.8815 -0.6060
H14 H 0.7160 0.9219 -0.4724
H15 H 0.7421 0.9684 -0.5858
C18 C 0.5253(8) 1.0030(5) -0.7131(8)
H16 H 0.4426 1.0053 -0.7651
N7 N 0.5603(7) 0.9464(4) -0.6302(7)
O1 O 0.5923(6) 1.0552(4) -0.7300(7)
O2 O 0.001(4) 0.989(4) -0.588(3)
loop_
_geom_bond_atom_site_label_1
_geom_bond_atom_site_label_2
_geom_bond_site_symmetry_1
_geom_bond_site_symmetry_2
Co1 N5 1_555 1_555
C1 C2 1_555 1_555
C2 H1 1_555 1_555
C3 C2 1_555 1_555
C4 C3 1_555 1_555
H2 C4 1_555 1_555
C5 C4 1_555 1_555
C6 C1 1_555 1_555
H3 C6 1_555 1_555
C7 C1 1_555 1_555
C8 C7 1_555 1_555
H4 C8 1_555 1_555
C9 H5 1_555 1_555
C10 C3 1_555 1_555
C11 C10 1_555 1_555
H6 C11 1_555 1_555
C12 H7 1_555 1_555
C13 C5 1_555 1_555
C14 C13 1_555 1_555
H8 C14 1_555 1_555
C15 H9 1_555 1_555
C16 H10 1_555 1_555
H11 C16 1_555 1_555
H12 C16 1_555 1_555
C17 H13 1_555 1_555
H14 C17 1_555 1_555
H15 C17 1_555 1_555
C18 H16 1_555 1_555
N1 C8 1_555 1_555
N2 C7 1_555 1_555
N3 C11 1_555 1_555
N4 C10 1_555 1_555
N5 C14 1_555 1_555
N6 C13 1_555 1_555
N7 C16 1_555 1_555
O1 C18 1_555 1_555
Co1_2 N1 1_555 1_555
Co1A N3 1_555 1_555
Co1C N6 1_555 1_555
N1_2 Co1 1_555 1_555
N3A Co1 1_555 1_555
N6C Co1 1_555 1_555
C5 C6 1_555 1_555
C9 N1 1_555 1_555
C9 N2 1_555 1_555
C12 N3 1_555 1_555
C12 N4 1_555 1_555
C15 N5 1_555 1_555
C15 N6 1_555 1_555
C17 N7 1_555 1_555
C18 N7 1_555 1_555

#END
