
#######################################################################
#
#                 Cambridge Crystallographic Data Centre
#                                CCDC 
#
#######################################################################
#
# If this CIF has been generated from an entry in the Cambridge 
# Structural Database, then it will include bibliographic, chemical, 
# crystal, experimental, refinement or atomic coordinate data resulting 
# from the CCDC's data processing and validation procedures.
#
#######################################################################

data_EQOCES
_symmetry_cell_setting           orthorhombic
_symmetry_space_group_name_H-M   'F d d 2'
_symmetry_Int_Tables_number      43
_space_group_name_Hall           'F 2 -2d'
loop_
_symmetry_equiv_pos_site_id
_symmetry_equiv_pos_as_xyz
1 x,y,z
2 -x,-y,z
3 1/4+x,1/4-y,1/4+z
4 1/4-x,1/4+y,1/4+z
5 x,1/2+y,1/2+z
6 -x,1/2-y,1/2+z
7 1/4+x,3/4-y,3/4+z
8 1/4-x,3/4+y,3/4+z
9 1/2+x,y,1/2+z
10 1/2-x,-y,1/2+z
11 3/4+x,1/4-y,3/4+z
12 3/4-x,1/4+y,3/4+z
13 1/2+x,1/2+y,z
14 1/2-x,1/2-y,z
15 3/4+x,3/4-y,1/4+z
16 3/4-x,3/4+y,1/4+z
_cell_length_a                   17.635(4)
_cell_length_b                   27.706(6)
_cell_length_c                   9.0810(18)
_cell_angle_alpha                90
_cell_angle_beta                 90
_cell_angle_gamma                90
_cell_volume                     4436.93
loop_
_atom_site_label
_atom_site_type_symbol
_atom_site_fract_x
_atom_site_fract_y
_atom_site_fract_z
C7 C 0.7200(15) 0.2315(10) 0.033(3)
H7 H 0.6853 0.2372 0.1138
H8 H 0.7424 0.1998 0.0455
C8 C 0.6786(11) 0.2335(6) -0.1081(19)
H9 H 0.6473 0.2628 -0.1082
C9 C 0.7197(8) 0.2315(6) -0.248(2)
H10 H 0.6851 0.2373 -0.3288
H11 H 0.7418 0.1997 -0.2606
O1 O 0.6265(13) 0.1905(6) -0.101(2)
H12 H 0.5985 0.1905 -0.1730
C7M C 0.7800(15) 0.2685(10) 0.033(3)
H7M H 0.8147 0.2628 0.1138
H8M H 0.7576 0.3002 0.0455
C8M C 0.8214(11) 0.2665(6) -0.1081(19)
H9M H 0.8527 0.2372 -0.1082
C9M C 0.7803(8) 0.2685(6) -0.248(2)
H10M H 0.8149 0.2627 -0.3288
H11M H 0.7582 0.3003 -0.2606
O1M O 0.8735(13) 0.3095(6) -0.101(2)
H12M H 0.9015 0.3095 -0.1730
Co1 Co 0.78504(3) 0.06302(2) 0.68559(12)
N1 N 0.7258(2) 0.10966(16) 0.5656(6)
C1 C 0.6547(3) 0.12523(18) 0.5746(7)
H1 H 0.6212 0.1149 0.6473
N2 N 0.6357(2) 0.15662(15) 0.4713(5)
C2 C 0.6995(4) 0.1610(3) 0.3875(9)
H2 H 0.7046 0.1806 0.3050
C3 C 0.7534(3) 0.1327(2) 0.4426(9)
H3 H 0.8020 0.1291 0.4043
N3 N 0.7945(2) 0.00356(16) 0.5607(6)
C4 C 0.7595(3) -0.0013(2) 0.4360(8)
H4 H 0.7316 0.0235 0.3933
N4 N 0.7666(3) -0.04466(16) 0.3737(5)
C5 C 0.8096(6) -0.0692(2) 0.4705(9)
H5 H 0.8254 -0.1010 0.4593
C6 C 0.8262(4) -0.0406(2) 0.5865(8)
H6 H 0.8543 -0.0493 0.6690
N1B N 0.9758(2) 0.14034(16) 0.8156(6)
C1B C 0.9047(3) 0.12477(18) 0.8246(7)
H1B H 0.8712 0.1351 0.8973
N2B N 0.8857(2) 0.09338(15) 0.7213(5)
C2B C 0.9495(4) 0.0890(3) 0.6375(9)
H2B H 0.9546 0.0694 0.5550
C3B C 1.0034(3) 0.1173(2) 0.6926(9)
H3B H 1.0520 0.1209 0.6543
N3I N 0.7055(2) -0.00356(16) 1.0607(6)
C4I C 0.7405(3) 0.0013(2) 0.9360(8)
H4I H 0.7684 -0.0235 0.8933
N4I N 0.7334(3) 0.04466(16) 0.8737(5)
C5I C 0.6904(6) 0.0692(2) 0.9705(9)
H5I H 0.6746 0.1010 0.9593
C6I C 0.6738(4) 0.0406(2) 1.0865(8)
H6I H 0.6457 0.0493 1.1690
Co1B Co 1.03504(3) 0.18698(2) 0.93559(12)
Co1J Co 0.53504(3) 0.18698(2) 0.43559(12)
Co1I Co 0.71496(3) -0.06302(2) 0.18559(12)
Co1I_2 Co 0.71496(3) -0.06302(2) 1.18559(12)
N2H N 1.1357(2) 0.15662(15) 0.9713(5)
N3B N 1.0445(2) 0.24644(16) 0.8107(6)
N4K N 0.9834(3) 0.20534(16) 1.1237(5)
loop_
_geom_bond_atom_site_label_1
_geom_bond_atom_site_label_2
_geom_bond_site_symmetry_1
_geom_bond_site_symmetry_2
Co1 N1 1_555 1_555
N1 C1 1_555 1_555
C1 H1 1_555 1_555
N2 C1 1_555 1_555
C2 N2 1_555 1_555
H2 C2 1_555 1_555
C3 N1 1_555 1_555
H3 C3 1_555 1_555
N3 Co1 1_555 1_555
C4 N3 1_555 1_555
H4 C4 1_555 1_555
N4 C4 1_555 1_555
C5 N4 1_555 1_555
H5 C5 1_555 1_555
C6 N3 1_555 1_555
H6 C6 1_555 1_555
C7 H7 1_555 1_555
H8 C7 1_555 1_555
C8 C7 1_555 1_555
H9 C8 1_555 1_555
C9 C8 1_555 1_555
H10 C9 1_555 1_555
H11 C9 1_555 1_555
O1 C8 1_555 1_555
H12 O1 1_555 1_555
C7M C7 1_555 1_555
H7M C7M 1_555 1_555
H8M C7M 1_555 1_555
C8M C7M 1_555 1_555
H9M C8M 1_555 1_555
C9M C9 1_555 1_555
H10M C9M 1_555 1_555
H11M C9M 1_555 1_555
O1M C8M 1_555 1_555
H12M O1M 1_555 1_555
N1B C1B 1_555 1_555
C1B H1B 1_555 1_555
N2B Co1 1_555 1_555
C2B N2B 1_555 1_555
H2B C2B 1_555 1_555
C3B N1B 1_555 1_555
H3B C3B 1_555 1_555
N3I C4I 1_555 1_555
C4I H4I 1_555 1_555
N4I Co1 1_555 1_555
C5I N4I 1_555 1_555
H5I C5I 1_555 1_555
C6I N3I 1_555 1_555
H6I C6I 1_555 1_555
Co1B N1B 1_555 1_555
Co1J N2 1_555 1_555
Co1I N4 1_555 1_555
Co1I_2 N3I 1_555 1_555
N2H Co1B 1_555 1_555
N3B Co1B 1_555 1_555
N4K Co1B 1_555 1_555
C2 C3 1_555 1_555
C5 C6 1_555 1_555
C8M C9M 1_555 1_555
C1B N2B 1_555 1_555
C2B C3B 1_555 1_555
C4I N4I 1_555 1_555
C5I C6I 1_555 1_555

#END
