
#######################################################################
#
#                 Cambridge Crystallographic Data Centre
#                                CCDC 
#
#######################################################################
#
# If this CIF has been generated from an entry in the Cambridge 
# Structural Database, then it will include bibliographic, chemical, 
# crystal, experimental, refinement or atomic coordinate data resulting 
# from the CCDC's data processing and validation procedures.
#
#######################################################################

data_EQUBUO
_symmetry_cell_setting           tetragonal
_symmetry_space_group_name_H-M   'P -4 21 c'
_symmetry_Int_Tables_number      114
_space_group_name_Hall           'P -4 2n'
loop_
_symmetry_equiv_pos_site_id
_symmetry_equiv_pos_as_xyz
1 x,y,z
2 -x,-y,z
3 y,-x,-z
4 -y,x,-z
5 1/2-x,1/2+y,1/2-z
6 1/2+x,1/2-y,1/2-z
7 1/2-y,1/2-x,1/2+z
8 1/2+y,1/2+x,1/2+z
_cell_length_a                   17.1743(3)
_cell_length_b                   17.1743(3)
_cell_length_c                   8.5106(2)
_cell_angle_alpha                90
_cell_angle_beta                 90
_cell_angle_gamma                90
_cell_volume                     2510.26
loop_
_atom_site_label
_atom_site_type_symbol
_atom_site_fract_x
_atom_site_fract_y
_atom_site_fract_z
C1 C 0.1286(2) -0.7611(2) -0.4583(5)
C2 C 0.1989(2) -0.7258(2) -0.4962(5)
H1 H 0.2362 -0.7526 -0.5542
C3 C 0.2129(2) -0.6501(2) -0.4465(6)
C4 C 0.2872(2) -0.6101(3) -0.4894(5)
C5 C 0.1573(2) -0.6114(2) -0.3584(7)
H2 H 0.1667 -0.5608 -0.3245
C6 C 0.0878(3) -0.6475(3) -0.3205(7)
H3 H 0.0512 -0.6215 -0.2595
C7 C 0.0726(2) -0.7227(3) -0.3734(7)
H4 H 0.0252 -0.7466 -0.3515
Gd1 Gd -0.036870(10) -0.889710(10) -0.84969(3)
O1 O 0.05046(16) -0.84898(16) -0.6470(4)
O2 O 0.07553(16) -0.89637(16) -0.3865(3)
O3 O 0.17972(17) -0.89171(17) -0.5817(4)
O4 O 0.34215(17) -0.64919(18) -0.5429(4)
O5 O 0.28987(16) -0.53603(18) -0.4692(4)
O6 O 0.07367(14) -0.97401(15) -0.8781(3)
O7 O -0.0788(2) -0.76333(19) -0.7331(4)
S1 S 0.10823(6) -0.85686(5) -0.52366(12)
H5 H 0.109(3) -0.961(4) -0.797(6)
H7 H -0.117(3) -0.729(3) -0.765(7)
H9 H -0.078(4) -0.766(4) -0.622(2)
C1C C -0.2389(2) -0.8714(2) -0.5417(5)
C2C C -0.2742(2) -0.8011(2) -0.5038(5)
H1C H -0.2474 -0.7638 -0.4458
C3C C -0.3499(2) -0.7871(2) -0.5535(6)
C4C C -0.3899(3) -0.7128(2) -0.5106(5)
C5C C -0.3886(2) -0.8427(2) -0.6416(7)
H2C H -0.4392 -0.8333 -0.6755
C6C C -0.3525(3) -0.9122(3) -0.6795(7)
H3C H -0.3785 -0.9488 -0.7405
C7C C -0.2773(3) -0.9274(2) -0.6266(7)
H4C H -0.2534 -0.9748 -0.6485
Gd1C Gd -0.110290(10) -1.036870(10) -0.15031(3)
Gd1B Gd 0.110290(10) -0.963130(10) -0.15031(3)
Gd1E Gd 0.463130(10) -0.610290(10) -0.65031(3)
Gd1F Gd 0.389710(10) -0.463130(10) -0.34969(3)
Gd1A Gd 0.036870(10) -1.110290(10) -0.84969(3)
Gd1B_2 Gd 0.110290(10) -0.963130(10) -1.15031(3)
Gd1G Gd -0.389710(10) -0.536870(10) -0.34969(3)
Gd1E_2 Gd -0.536870(10) -0.610290(10) -0.65031(3)
Gd1C_2 Gd -0.110290(10) -1.036870(10) -1.15031(3)
O1C O -0.15102(16) -0.94954(16) -0.3530(4)
O2C O -0.10363(16) -0.92447(16) -0.6135(3)
O2A O -0.07553(16) -1.10363(16) -0.3865(3)
O3C O -0.10829(17) -0.82028(17) -0.4183(4)
O4C O -0.35081(18) -0.65785(17) -0.4571(4)
O4E O -0.15785(17) -0.85081(18) -0.9571(4)
O4G O -0.14919(18) -1.15785(17) -0.0429(4)
O5C O -0.46397(18) -0.71013(16) -0.5308(4)
O5F O 0.03603(18) -0.78987(16) -0.9692(4)
O5E O -0.21013(16) -0.96397(18) -0.0308(4)
O6A O -0.07367(14) -1.02599(15) -0.8781(3)
O6C O -0.02599(15) -0.92633(14) -1.1219(3)
O6C_2 O -0.02599(15) -0.92633(14) -0.1219(3)
O6B O 0.02599(15) -1.07367(14) -0.1219(3)
O6A_2 O -0.07367(14) -1.02599(15) 0.1219(3)
O7C O -0.23667(19) -1.0788(2) -0.2669(4)
S1C S -0.14314(5) -0.89177(6) -0.47634(12)
H5A H -0.109(3) -1.039(4) -0.797(6)
H5C H -0.039(4) -0.891(3) -1.203(6)
H5C_2 H -0.039(4) -0.891(3) -0.203(6)
H5B H 0.039(4) -1.109(3) -0.203(6)
H5A_2 H -0.109(3) -1.039(4) 0.203(6)
H7C H -0.271(3) -1.117(3) -0.235(7)
H9C H -0.234(4) -1.078(4) -0.378(2)
O8 O -0.6379(3) -0.8271(3) -0.2054(10)
H6 H -0.615(4) -0.821(3) -0.312(4)
H8 H -0.649(4) -0.7714(16) -0.184(7)
O9 O -0.0647(5) -0.6485(5) -1.0337(10)
H10 H -0.025(3) -0.668(4) -0.965(6)
H11 H -0.099(3) -0.618(4) -0.961(6)
O10 O -1.0000 -0.5000 -0.051(4)
H12? H -1.017(8) -0.447(3) -0.065(12)
H13? H -0.966(6) -0.511(6) -0.138(10)
loop_
_geom_bond_atom_site_label_1
_geom_bond_atom_site_label_2
_geom_bond_site_symmetry_1
_geom_bond_site_symmetry_2
C1 C2 1_555 1_555
C2 H1 1_555 1_555
C3 C2 1_555 1_555
C4 C3 1_555 1_555
C5 C3 1_555 1_555
H2 C5 1_555 1_555
C6 C5 1_555 1_555
H3 C6 1_555 1_555
C7 C1 1_555 1_555
H4 C7 1_555 1_555
Gd1 O1 1_555 1_555
O1 S1 1_555 1_555
O2 S1 1_555 1_555
O3 S1 1_555 1_555
O4 C4 1_555 1_555
O5 C4 1_555 1_555
O6 Gd1 1_555 1_555
O7 Gd1 1_555 1_555
O8 H6 1_555 1_555
O9 H10 1_555 1_555
S1 C1 1_555 1_555
H5 O6 1_555 1_555
H7 O7 1_555 1_555
H8 O8 1_555 1_555
H9 O7 1_555 1_555
H11 O9 1_555 1_555
C1C C2C 1_555 1_555
C2C H1C 1_555 1_555
C3C C2C 1_555 1_555
C4C C3C 1_555 1_555
C5C C3C 1_555 1_555
H2C C5C 1_555 1_555
C6C C5C 1_555 1_555
H3C C6C 1_555 1_555
C7C C1C 1_555 1_555
H4C C7C 1_555 1_555
Gd1C O1C 1_555 1_555
Gd1B O2 1_555 1_555
Gd1E O4 1_555 1_555
Gd1F O5 1_555 1_555
Gd1A O6 1_555 1_555
Gd1B_2 O6 1_555 1_555
Gd1G O4C 1_555 1_555
Gd1E_2 O5C 1_555 1_555
Gd1C_2 O6A 1_555 1_555
O1C S1C 1_555 1_555
O2C Gd1 1_555 1_555
O2A Gd1C 1_555 1_555
O3C S1C 1_555 1_555
O4C C4C 1_555 1_555
O4E Gd1 1_555 1_555
O4G Gd1C 1_555 1_555
O5C C4C 1_555 1_555
O5F Gd1 1_555 1_555
O5E Gd1C 1_555 1_555
O6A Gd1 1_555 1_555
O6C Gd1 1_555 1_555
O6C_2 Gd1C 1_555 1_555
O6B Gd1C 1_555 1_555
O6A_2 Gd1C 1_555 1_555
O7C Gd1C 1_555 1_555
S1C C1C 1_555 1_555
H5A O6A 1_555 1_555
H5C O6C 1_555 1_555
H5C_2 O6C_2 1_555 1_555
H5B O6B 1_555 1_555
H5A_2 O6A_2 1_555 1_555
H7C O7C 1_555 1_555
H9C O7C 1_555 1_555
C6 C7 1_555 1_555
C6C C7C 1_555 1_555
Gd1B O6C_2 1_555 1_555
Gd1B O6B 1_555 1_555
Gd1A O6A 1_555 1_555
Gd1B_2 O6C 1_555 1_555
Gd1C_2 O6C 1_555 1_555
O2C S1C 1_555 1_555

#END
