
#######################################################################
#
#                 Cambridge Crystallographic Data Centre
#                                CCDC 
#
#######################################################################
#
# If this CIF has been generated from an entry in the Cambridge 
# Structural Database, then it will include bibliographic, chemical, 
# crystal, experimental, refinement or atomic coordinate data resulting 
# from the CCDC's data processing and validation procedures.
#
#######################################################################

data_ERELIX
_symmetry_cell_setting           orthorhombic
_symmetry_space_group_name_H-M   'P c c m'
_symmetry_Int_Tables_number      49
_space_group_name_Hall           '-P 2 2c'
loop_
_symmetry_equiv_pos_site_id
_symmetry_equiv_pos_as_xyz
1 x,y,z
2 x,-y,1/2-z
3 -x,y,1/2-z
4 -x,-y,z
5 -x,-y,-z
6 -x,y,1/2+z
7 x,-y,1/2+z
8 x,y,-z
_cell_length_a                   11.4507(19)
_cell_length_b                   11.4635(19)
_cell_length_c                   21.121(3)
_cell_angle_alpha                90
_cell_angle_beta                 90
_cell_angle_gamma                90
_cell_volume                     2772.45
loop_
_atom_site_label
_atom_site_type_symbol
_atom_site_fract_x
_atom_site_fract_y
_atom_site_fract_z
Au1 Au 1.0000 1.0000 0.5000
Br1 Br 0.79699(12) 0.93891(13) 0.5000
Zn1 Zn 1.0000 1.0000 0.7500
N1 N 1.0000 1.0000 0.6479(4)
N3 N 1.0000 0.8100(8) 0.7500
N4 N 0.8091(8) 1.0000 0.7500
C1 C 1.0000 1.0000 0.5943(5)
C3 C 1.0469(9) 0.7475(8) 0.7031(4)
C4 C 1.0452(10) 0.6284(8) 0.7008(5)
C5 C 1.0000 0.5645(10) 0.7500
C6 C 0.7470(8) 0.9628(9) 0.7002(4)
C7 C 0.6275(7) 0.9615(8) 0.6984(4)
C8 C 0.5643(9) 1.0000 0.7500
H1 H 1.0832 0.7884 0.6698
H2 H 1.0785 0.5900 0.6660
H3 H 0.7889 0.9367 0.6652
H4 H 0.5885 0.9349 0.6622
Br1C Br 1.20301(12) 1.06109(13) 0.5000
Zn1_2 Zn 1.0000 0.0000 0.7500
Zn1_3 Zn 0.0000 1.0000 0.7500
Zn1D Zn 1.0000 1.0000 0.2500
N1D N 1.0000 1.0000 0.3521(4)
N1A N 1.0000 1.0000 0.8521(4)
N3A N 1.0000 0.1900(8) 0.7500
N3A_2 N 1.0000 1.1900(8) 0.7500
N4B N 0.1909(8) 1.0000 0.7500
N4B_2 N 1.1909(8) 1.0000 0.7500
C1D C 1.0000 1.0000 0.4057(5)
C3B C 0.9531(9) 0.7475(8) 0.7969(4)
C3A C 1.0469(9) 0.2525(8) 0.7969(4)
C3C C 0.9531(9) 0.2525(8) 0.7031(4)
C4B C 0.9548(10) 0.6284(8) 0.7992(5)
C4A C 1.0452(10) 0.3716(8) 0.7992(5)
C4C C 0.9548(10) 0.3716(8) 0.7008(5)
C5A C 1.0000 0.4355(10) 0.7500
C6A C 0.7470(8) 1.0372(9) 0.7998(4)
C6B C 0.2530(8) 0.9628(9) 0.7998(4)
C6C C 0.2530(8) 1.0372(9) 0.7002(4)
C7A C 0.6275(7) 1.0385(8) 0.8016(4)
C7B C 0.3725(7) 0.9615(8) 0.8016(4)
C7C C 0.3725(7) 1.0385(8) 0.6984(4)
C8B C 0.4357(9) 1.0000 0.7500
H1B H 0.9168 0.7884 0.8302
H1C H 0.9168 0.2116 0.6698
H1A H 1.0832 0.2116 0.8302
H2B H 0.9215 0.5900 0.8340
H2C H 0.9215 0.4100 0.6660
H2A H 1.0785 0.4100 0.8340
H3A H 0.7889 1.0633 0.8348
H3C H 0.2111 1.0633 0.6652
H3B H 0.2111 0.9367 0.8348
H4A H 0.5885 1.0651 0.8378
H4C H 0.4115 1.0651 0.6622
H4B H 0.4115 0.9349 0.8378
Au2 Au 0.31063(6) 0.76274(6) 0.5000
Br2 Br 0.10622(17) 0.70567(17) 0.5000
Br3 Br 0.5138(2) 0.8185(3) 0.5000
N2 N 0.3165(12) 0.7563(12) 0.6458(7)
C2 C 0.3140(12) 0.7597(12) 0.5944(7)
N2G N 0.3165(12) 0.7563(12) 0.3542(7)
C2G C 0.3140(12) 0.7597(12) 0.4056(7)
N5 N 0.5000 0.5000 0.2500
C9 C 0.571(2) 0.409(3) 0.2115(13)
C10 C 0.640(3) 0.444(3) 0.1672(14)
C11 C 0.719(2) 0.3391(19) 0.1383(15)
C12 C 0.775(2) 0.392(2) 0.0880(12)
H5 H 0.6166 0.3648 0.2408
H6 H 0.5180 0.3583 0.1906
H7 H 0.6923 0.4975 0.1870
H8 H 0.5962 0.4840 0.1358
H9 H 0.7755 0.3080 0.1669
H10 H 0.6695 0.2783 0.1241
H11 H 0.8214 0.3370 0.0653
H12 H 0.8233 0.4527 0.1034
H13 H 0.7172 0.4231 0.0606
C9A C 0.571(2) 0.591(3) 0.2885(13)
C9B C 0.429(2) 0.409(3) 0.2885(13)
C9C C 0.429(2) 0.591(3) 0.2115(13)
C10A C 0.640(3) 0.556(3) 0.3328(14)
C10B C 0.360(3) 0.444(3) 0.3328(14)
C10C C 0.360(3) 0.556(3) 0.1672(14)
C11A C 0.719(2) 0.6609(19) 0.3617(15)
C11B C 0.281(2) 0.3391(19) 0.3617(15)
C11C C 0.281(2) 0.6609(19) 0.1383(15)
C12A C 0.775(2) 0.608(2) 0.4120(12)
C12B C 0.225(2) 0.392(2) 0.4120(12)
C12C C 0.225(2) 0.608(2) 0.0880(12)
H5A H 0.6166 0.6352 0.2592
H5B H 0.3834 0.3648 0.2592
H5C H 0.3834 0.6352 0.2408
H6A H 0.5180 0.6417 0.3094
H6B H 0.4820 0.3583 0.3094
H6C H 0.4820 0.6417 0.1906
H7A H 0.6923 0.5025 0.3130
H7B H 0.3077 0.4975 0.3130
H7C H 0.3077 0.5025 0.1870
H8A H 0.5962 0.5160 0.3642
H8B H 0.4038 0.4840 0.3642
H8C H 0.4038 0.5160 0.1358
H9A H 0.7755 0.6920 0.3331
H9B H 0.2245 0.3080 0.3331
H9C H 0.2245 0.6920 0.1669
H10A H 0.6695 0.7217 0.3759
H10B H 0.3305 0.2783 0.3759
H10C H 0.3305 0.7217 0.1241
H11A H 0.8214 0.6630 0.4347
H11B H 0.1786 0.3370 0.4347
H11C H 0.1786 0.6630 0.0653
H12A H 0.8233 0.5473 0.3966
H12B H 0.1767 0.4527 0.3966
H12C H 0.1767 0.5473 0.1034
H13A H 0.7172 0.5769 0.4394
H13B H 0.2828 0.4231 0.4394
H13C H 0.2828 0.5769 0.0606
loop_
_geom_bond_atom_site_label_1
_geom_bond_atom_site_label_2
_geom_bond_site_symmetry_1
_geom_bond_site_symmetry_2
Au1 Br1 1_555 1_555
Au2 Br2 1_555 1_555
Br3 Au2 1_555 1_555
Zn1 N1 1_555 1_555
N1 C1 1_555 1_555
N2 C2 1_555 1_555
N3 Zn1 1_555 1_555
N4 Zn1 1_555 1_555
N5 C9 1_555 1_555
C1 Au1 1_555 1_555
C2 Au2 1_555 1_555
C3 N3 1_555 1_555
C4 C3 1_555 1_555
C5 C4 1_555 1_555
C6 N4 1_555 1_555
C7 C6 1_555 1_555
C8 C7 1_555 1_555
C9 C10 1_555 1_555
C10 C11 1_555 1_555
C11 C12 1_555 1_555
C12 H11 1_555 1_555
H1 C3 1_555 1_555
H2 C4 1_555 1_555
H3 C6 1_555 1_555
H4 C7 1_555 1_555
H5 C9 1_555 1_555
H6 C9 1_555 1_555
H7 C10 1_555 1_555
H8 C10 1_555 1_555
H9 C11 1_555 1_555
H10 C11 1_555 1_555
H12 C12 1_555 1_555
H13 C12 1_555 1_555
Br1C Au1 1_555 1_555
Zn1_2 N3A 1_555 1_555
Zn1_3 N4B 1_555 1_555
Zn1D N1D 1_555 1_555
N1D C1D 1_555 1_555
N1A Zn1 1_555 1_555
N2G C2G 1_555 1_555
N3A C3A 1_555 1_555
N3A_2 Zn1 1_555 1_555
N4B C6B 1_555 1_555
N4B_2 Zn1 1_555 1_555
C1D Au1 1_555 1_555
C2G Au2 1_555 1_555
C3B N3 1_555 1_555
C3A C4A 1_555 1_555
C3C N3A 1_555 1_555
C4B C5 1_555 1_555
C4A C5A 1_555 1_555
C4C C3C 1_555 1_555
C5A C5 1_555 1_555
C6A N4 1_555 1_555
C6B C7B 1_555 1_555
C6C N4B 1_555 1_555
C7A C8 1_555 1_555
C7B C8B 1_555 1_555
C7C C6C 1_555 1_555
C8B C8 1_555 1_555
C9A N5 1_555 1_555
C9B N5 1_555 1_555
C9C N5 1_555 1_555
C10A C9A 1_555 1_555
C10B C9B 1_555 1_555
C10C C9C 1_555 1_555
C11A C10A 1_555 1_555
C11B C10B 1_555 1_555
C11C C10C 1_555 1_555
C12A C11A 1_555 1_555
C12B C11B 1_555 1_555
C12C C11C 1_555 1_555
H1B C3B 1_555 1_555
H1C C3C 1_555 1_555
H1A C3A 1_555 1_555
H2B C4B 1_555 1_555
H2C C4C 1_555 1_555
H2A C4A 1_555 1_555
H3A C6A 1_555 1_555
H3C C6C 1_555 1_555
H3B C6B 1_555 1_555
H4A C7A 1_555 1_555
H4C C7C 1_555 1_555
H4B C7B 1_555 1_555
H5A C9A 1_555 1_555
H5B C9B 1_555 1_555
H5C C9C 1_555 1_555
H6A C9A 1_555 1_555
H6B C9B 1_555 1_555
H6C C9C 1_555 1_555
H7A C10A 1_555 1_555
H7B C10B 1_555 1_555
H7C C10C 1_555 1_555
H8A C10A 1_555 1_555
H8B C10B 1_555 1_555
H8C C10C 1_555 1_555
H9A C11A 1_555 1_555
H9B C11B 1_555 1_555
H9C C11C 1_555 1_555
H10A C11A 1_555 1_555
H10B C11B 1_555 1_555
H10C C11C 1_555 1_555
H11A C12A 1_555 1_555
H11B C12B 1_555 1_555
H11C C12C 1_555 1_555
H12A C12A 1_555 1_555
H12B C12B 1_555 1_555
H12C C12C 1_555 1_555
H13A C12A 1_555 1_555
H13B C12B 1_555 1_555
H13C C12C 1_555 1_555
C3B C4B 1_555 1_555
C4C C5A 1_555 1_555
C6A C7A 1_555 1_555
C7C C8B 1_555 1_555

#END
