
#######################################################################
#
#                 Cambridge Crystallographic Data Centre
#                                CCDC 
#
#######################################################################
#
# If this CIF has been generated from an entry in the Cambridge 
# Structural Database, then it will include bibliographic, chemical, 
# crystal, experimental, refinement or atomic coordinate data resulting 
# from the CCDC's data processing and validation procedures.
#
#######################################################################

data_ESEDIQ
_symmetry_cell_setting           monoclinic
_symmetry_space_group_name_H-M   'P 21/c'
_symmetry_Int_Tables_number      14
_space_group_name_Hall           '-P 2ybc'
loop_
_symmetry_equiv_pos_site_id
_symmetry_equiv_pos_as_xyz
1 x,y,z
2 -x,1/2+y,1/2-z
3 -x,-y,-z
4 x,1/2-y,1/2+z
_cell_length_a                   10.195(2)
_cell_length_b                   21.342(4)
_cell_length_c                   18.533(4)
_cell_angle_alpha                90
_cell_angle_beta                 102.96(3)
_cell_angle_gamma                90
_cell_volume                     3929.72
loop_
_atom_site_label
_atom_site_type_symbol
_atom_site_fract_x
_atom_site_fract_y
_atom_site_fract_z
Zn1 Zn 0.34843(6) 0.65082(3) 0.78606(3)
O1 O 0.3568(5) 0.5290(3) 0.8837(3)
O3 O 0.2387(4) 0.61577(18) 0.8498(2)
O6 O 1.1306(4) 0.7304(2) 1.2948(2)
O8 O 1.2300(4) 0.78911(19) 1.2222(2)
O9 O 0.2275(4) 0.5591(2) 0.6601(2)
O10 O 0.4247(4) 0.60080(17) 0.71744(19)
O11 O 0.6162(4) 0.72447(19) 0.7815(2)
O12 O 0.4987(4) 0.68466(19) 0.8594(2)
C20 C 0.2635(6) 0.5657(3) 0.8868(3)
C21 C 0.1006(6) 0.6000(3) 0.9635(3)
H18 H 0.1225 0.6413 0.9556
C22 C 0.1667(5) 0.5502(3) 0.9350(3)
C23 C 0.1348(5) 0.4897(3) 0.9468(3)
H19 H 0.1806 0.4574 0.9295
C24 C 0.0324(5) 0.4752(2) 0.9855(3)
C25 C 0.0048(6) 0.5871(3) 1.0025(3)
H20 H -0.0368 0.6200 1.0216
C26 C 1.1342(6) 0.7545(3) 1.2341(3)
C27 C 0.3505(6) 0.5681(3) 0.6667(3)
C28 C 0.3637(5) 0.5376(2) 0.5386(3)
H21 H 0.2769 0.5531 0.5220
C29 C 0.4228(5) 0.5390(2) 0.6127(3)
C30 C 0.5532(5) 0.5147(2) 0.6388(3)
H22 H 0.5926 0.5162 0.6892
C31 C 0.6232(6) 0.4885(2) 0.5905(3)
H23 H 0.7082 0.4714 0.6083
C32 C 0.4349(5) 0.5122(2) 0.4860(3)
C33 C 0.6024(5) 0.7097(2) 0.8442(3)
C34 C 0.7169(5) 0.7219(2) 0.9107(3)
C35 C 0.7058(5) 0.7028(2) 0.9799(3)
H24 H 0.6289 0.6816 0.9854
C36 C 0.8112(5) 0.7150(2) 1.0437(3)
C37 C 0.8037(5) 0.6956(3) 1.1154(3)
H25 H 0.7279 0.6740 1.1218
C38 C 0.9052(5) 0.7077(3) 1.1756(3)
H26 H 0.8983 0.6943 1.2224
C39 C 1.0216(5) 0.7409(2) 1.1667(3)
C40 C 1.0312(5) 0.7603(2) 1.0983(3)
H27 H 1.1073 0.7823 1.0931
C41 C 0.9271(5) 0.7478(2) 1.0339(3)
C42 C 0.9362(6) 0.7674(3) 0.9618(3)
H28 H 1.0119 0.7890 0.9553
C43 C 0.8337(6) 0.7544(3) 0.9021(3)
H29 H 0.8408 0.7671 0.8551
Zn1B Zn -0.34843(6) 0.34918(3) 1.21394(3)
Zn1C Zn 1.34843(6) 0.84918(3) 1.28606(3)
Zn1B_2 Zn 0.65157(6) 0.34918(3) 0.21394(3)
Zn1C_2 Zn -0.65157(6) 0.84918(3) 0.28606(3)
O1B O -0.3568(5) 0.4710(3) 1.1163(3)
O3B O -0.2387(4) 0.38423(18) 1.1502(2)
O6C O 0.1306(4) 0.7696(2) 0.7948(2)
O8C O 0.2300(4) 0.71089(19) 0.7222(2)
O8A O -0.2300(4) 0.28911(19) 1.2778(2)
O9B O 0.7725(4) 0.4409(2) 0.3399(2)
O10B O 0.5753(4) 0.39920(17) 0.28256(19)
O10B_2 O -0.4247(4) 0.39920(17) 1.28256(19)
O11C O -0.3838(4) 0.77553(19) 0.2815(2)
O12C O -0.5013(4) 0.81534(19) 0.3594(2)
O12B O -0.4987(4) 0.31534(19) 1.1406(2)
C20B C -0.2635(6) 0.4343(3) 1.1132(3)
C21B C -0.1006(6) 0.4000(3) 1.0365(3)
H18B H -0.1225 0.3587 1.0444
C22B C -0.1667(5) 0.4498(3) 1.0650(3)
C23B C -0.1348(5) 0.5103(3) 1.0532(3)
H19B H -0.1806 0.5426 1.0705
C24B C -0.0324(5) 0.5248(2) 1.0145(3)
C25B C -0.0048(6) 0.4129(3) 0.9975(3)
H20B H 0.0368 0.3800 0.9784
C26C C 0.1342(6) 0.7455(3) 0.7341(3)
C27B C 0.6495(6) 0.4319(3) 0.3333(3)
C28B C 0.6363(5) 0.4624(2) 0.4614(3)
H21B H 0.7231 0.4469 0.4780
C29B C 0.5772(5) 0.4610(2) 0.3873(3)
C30B C 0.4468(5) 0.4853(2) 0.3612(3)
H22B H 0.4074 0.4838 0.3108
C31B C 0.3768(6) 0.5115(2) 0.4095(3)
H23B H 0.2918 0.5286 0.3917
C32B C 0.5651(5) 0.4878(2) 0.5140(3)
C33C C -0.3976(5) 0.7903(2) 0.3442(3)
C34C C -0.2831(5) 0.7781(2) 0.4107(3)
C35C C -0.2942(5) 0.7972(2) 0.4799(3)
H24C H -0.3711 0.8184 0.4854
C36C C -0.1888(5) 0.7850(2) 0.5437(3)
C37C C -0.1963(5) 0.8044(3) 0.6154(3)
H25C H -0.2721 0.8260 0.6218
C38C C -0.0948(5) 0.7923(3) 0.6756(3)
H26C H -0.1017 0.8057 0.7224
C39C C 0.0216(5) 0.7591(2) 0.6667(3)
C40C C 0.0312(5) 0.7397(2) 0.5983(3)
H27C H 0.1073 0.7177 0.5931
C41C C -0.0729(5) 0.7522(2) 0.5339(3)
C42C C -0.0638(6) 0.7326(3) 0.4618(3)
H28C H 0.0119 0.7110 0.4553
C43C C -0.1663(6) 0.7456(3) 0.4021(3)
H29C H -0.1592 0.7329 0.3551
O2 O 0.4597(5) 0.4198(2) 0.9591(3)
O4 O 0.0743(6) 0.4650(3) 0.5648(4)
O5 O 0.1860(10) 0.4614(5) 0.7494(6)
O7 O 0.0632(10) 0.8855(4) 0.8578(5)
N1 N 0.8569(5) 0.6199(2) 0.7117(2)
N2 N 0.7194(4) 0.6418(2) 0.6079(2)
N3 N 0.6033(4) 0.6487(2) 0.4860(2)
N4 N 0.5046(5) 0.6510(2) 0.3604(2)
N5 N 0.4458(6) 0.6358(2) 0.2425(3)
C1 C 0.9054(6) 0.6081(3) 0.7921(3)
H1 H 0.8784 0.6422 0.8202
H2 H 1.0029 0.6055 0.8045
C2 C 0.7388(6) 0.6450(2) 0.6819(3)
H3 H 0.6790 0.6620 0.7078
C3 C 0.9156(6) 0.5996(3) 0.6557(3)
H4 H 0.9992 0.5804 0.6618
C4 C 0.8306(5) 0.6125(3) 0.5907(3)
H5 H 0.8435 0.6037 0.5436
C5 C 0.6042(6) 0.6639(3) 0.5554(3)
C6 C 0.5047(6) 0.6984(3) 0.5778(3)
H6 H 0.5093 0.7073 0.6274
C7 C 0.3982(6) 0.7189(3) 0.5224(4)
H7 H 0.3299 0.7427 0.5346
C8 C 0.3932(6) 0.7041(3) 0.4494(4)
H8 H 0.3221 0.7171 0.4116
C9 C 0.4985(6) 0.6690(3) 0.4347(3)
C10 C 0.4061(7) 0.6595(3) 0.3000(3)
H9 H 0.3238 0.6788 0.2986
C11 C 0.6105(6) 0.6204(3) 0.3403(3)
H10 H 0.6917 0.6087 0.3712
C12 C 0.5717(7) 0.6111(3) 0.2666(4)
H11 H 0.6221 0.5913 0.2372
C13 C 0.3568(7) 0.6264(3) 0.1675(3)
H12 H 0.4105 0.6240 0.1305
H13 H 0.2949 0.6614 0.1552
C14 C 0.2788(6) 0.5657(3) 0.1686(3)
C15 C 0.3265(6) 0.5100(3) 0.1458(3)
H14 H 0.3998 0.5102 0.1237
C16 C 0.2642(6) 0.4540(3) 0.1562(3)
H15 H 0.2967 0.4165 0.1414
C17 C 0.8455(6) 0.5468(3) 0.8116(3)
C18 C 0.8959(6) 0.4906(3) 0.7906(3)
H16 H 0.9711 0.4906 0.7700
C19 C 0.1662(6) 0.5647(3) 0.1992(3)
H17 H 0.1324 0.6021 0.2131
N1B N 0.1431(5) 0.3801(2) 0.2883(2)
N2B N 0.2806(4) 0.3582(2) 0.3921(2)
N3B N 0.3967(4) 0.3513(2) 0.5140(2)
N4B N 0.4954(5) 0.3490(2) 0.6396(2)
N5B N 0.5542(6) 0.3642(2) 0.7575(3)
C1B C 0.0946(6) 0.3919(3) 0.2079(3)
H1B H 0.1216 0.3578 0.1798
H2B H -0.0029 0.3945 0.1955
C2B C 0.2612(6) 0.3550(2) 0.3181(3)
H3B H 0.3210 0.3380 0.2922
C3B C 0.0844(6) 0.4004(3) 0.3443(3)
H4B H 0.0008 0.4196 0.3382
C4B C 0.1694(5) 0.3875(3) 0.4093(3)
H5B H 0.1565 0.3963 0.4564
C5B C 0.3958(6) 0.3361(3) 0.4446(3)
C6B C 0.4953(6) 0.3016(3) 0.4222(3)
H6B H 0.4907 0.2927 0.3726
C7B C 0.6018(6) 0.2811(3) 0.4776(4)
H7B H 0.6701 0.2573 0.4654
C8B C 0.6068(6) 0.2959(3) 0.5506(4)
H8B H 0.6779 0.2829 0.5884
C9B C 0.5015(6) 0.3310(3) 0.5653(3)
C10B C 0.5939(7) 0.3405(3) 0.7000(3)
H9B H 0.6762 0.3212 0.7014
C11B C 0.3895(6) 0.3796(3) 0.6597(3)
H10B H 0.3083 0.3913 0.6288
C12B C 0.4283(7) 0.3889(3) 0.7334(4)
H11B H 0.3779 0.4087 0.7628
C13B C 0.6432(7) 0.3736(3) 0.8325(3)
H12B H 0.5895 0.3760 0.8695
H13B H 0.7051 0.3386 0.8448
C14B C 0.7212(6) 0.4343(3) 0.8314(3)
C15B C 0.6735(6) 0.4900(3) 0.8542(3)
H14B H 0.6002 0.4898 0.8763
C16B C 0.7358(6) 0.5460(3) 0.8438(3)
H15B H 0.7033 0.5835 0.8586
C17B C 0.1545(6) 0.4532(3) 0.1884(3)
C18B C 0.1041(6) 0.5094(3) 0.2094(3)
H16B H 0.0289 0.5094 0.2300
C19B C 0.8338(6) 0.4353(3) 0.8008(3)
H17B H 0.8676 0.3979 0.7869
loop_
_geom_bond_atom_site_label_1
_geom_bond_atom_site_label_2
_geom_bond_site_symmetry_1
_geom_bond_site_symmetry_2
Zn1 O3 1_555 1_555
O1 C20 1_555 1_555
O3 C20 1_555 1_555
O6 C26 1_555 1_555
O8 C26 1_555 1_555
O9 C27 1_555 1_555
O10 Zn1 1_555 1_555
O11 C33 1_555 1_555
O12 Zn1 1_555 1_555
N1 C1 1_555 1_555
N2 C2 1_555 1_555
N3 C5 1_555 1_555
N4 C9 1_555 1_555
N5 C10 1_555 1_555
C1 H1 1_555 1_555
H2 C1 1_555 1_555
C2 N1 1_555 1_555
H3 C2 1_555 1_555
C3 N1 1_555 1_555
H4 C3 1_555 1_555
C4 N2 1_555 1_555
H5 C4 1_555 1_555
C5 N2 1_555 1_555
C6 C5 1_555 1_555
H6 C6 1_555 1_555
C7 C6 1_555 1_555
H7 C7 1_555 1_555
C8 C7 1_555 1_555
H8 C8 1_555 1_555
C9 N3 1_555 1_555
C10 N4 1_555 1_555
H9 C10 1_555 1_555
C11 N4 1_555 1_555
H10 C11 1_555 1_555
C12 N5 1_555 1_555
H11 C12 1_555 1_555
C13 N5 1_555 1_555
H12 C13 1_555 1_555
H13 C13 1_555 1_555
C14 C13 1_555 1_555
C15 C14 1_555 1_555
H14 C15 1_555 1_555
C16 C15 1_555 1_555
H15 C16 1_555 1_555
C17 C1 1_555 1_555
C18 C17 1_555 1_555
H16 C18 1_555 1_555
C19 C14 1_555 1_555
H17 C19 1_555 1_555
C20 C22 1_555 1_555
C21 H18 1_555 1_555
C22 C21 1_555 1_555
C23 C22 1_555 1_555
H19 C23 1_555 1_555
C24 C23 1_555 1_555
C25 C21 1_555 1_555
H20 C25 1_555 1_555
C26 C39 1_555 1_555
C27 O10 1_555 1_555
C28 H21 1_555 1_555
C29 C27 1_555 1_555
C30 C29 1_555 1_555
H22 C30 1_555 1_555
C31 C30 1_555 1_555
H23 C31 1_555 1_555
C32 C28 1_555 1_555
C33 O12 1_555 1_555
C34 C33 1_555 1_555
C35 C34 1_555 1_555
H24 C35 1_555 1_555
C36 C35 1_555 1_555
C37 C36 1_555 1_555
H25 C37 1_555 1_555
C38 C37 1_555 1_555
H26 C38 1_555 1_555
C39 C38 1_555 1_555
C40 C39 1_555 1_555
H27 C40 1_555 1_555
C41 C36 1_555 1_555
C42 C41 1_555 1_555
H28 C42 1_555 1_555
C43 C34 1_555 1_555
H29 C43 1_555 1_555
Zn1B O3B 1_555 1_555
Zn1C O8 1_555 1_555
Zn1B_2 O10B 1_555 1_555
Zn1C_2 O12C 1_555 1_555
O1B C20B 1_555 1_555
O3B C20B 1_555 1_555
O6C C26C 1_555 1_555
O8C Zn1 1_555 1_555
O8A Zn1B 1_555 1_555
O9B C27B 1_555 1_555
O10B C27B 1_555 1_555
O10B_2 Zn1B 1_555 1_555
O11C C33C 1_555 1_555
O12C C33C 1_555 1_555
O12B Zn1B 1_555 1_555
N1B C1B 1_555 1_555
N2B C2B 1_555 1_555
N3B C5B 1_555 1_555
N4B C9B 1_555 1_555
N5B C10B 1_555 1_555
C1B H1B 1_555 1_555
H2B C1B 1_555 1_555
C2B N1B 1_555 1_555
H3B C2B 1_555 1_555
C3B N1B 1_555 1_555
H4B C3B 1_555 1_555
C4B N2B 1_555 1_555
H5B C4B 1_555 1_555
C5B N2B 1_555 1_555
C6B C5B 1_555 1_555
H6B C6B 1_555 1_555
C7B C6B 1_555 1_555
H7B C7B 1_555 1_555
C8B C7B 1_555 1_555
H8B C8B 1_555 1_555
C9B N3B 1_555 1_555
C10B N4B 1_555 1_555
H9B C10B 1_555 1_555
C11B N4B 1_555 1_555
H10B C11B 1_555 1_555
C12B N5B 1_555 1_555
H11B C12B 1_555 1_555
C13B N5B 1_555 1_555
H12B C13B 1_555 1_555
H13B C13B 1_555 1_555
C14B C13B 1_555 1_555
C15B C14B 1_555 1_555
H14B C15B 1_555 1_555
C16B C17 1_555 1_555
H15B C16B 1_555 1_555
C17B C16 1_555 1_555
C18B C19 1_555 1_555
H16B C18B 1_555 1_555
C19B C18 1_555 1_555
H17B C19B 1_555 1_555
C20B C22B 1_555 1_555
C21B H18B 1_555 1_555
C22B C21B 1_555 1_555
C23B C22B 1_555 1_555
H19B C23B 1_555 1_555
C24B C24 1_555 1_555
C25B C24 1_555 1_555
H20B C25B 1_555 1_555
C26C O8C 1_555 1_555
C27B C29B 1_555 1_555
C28B H21B 1_555 1_555
C29B C28B 1_555 1_555
C30B C29B 1_555 1_555
H22B C30B 1_555 1_555
C31B C32 1_555 1_555
H23B C31B 1_555 1_555
C32B C31 1_555 1_555
C33C C34C 1_555 1_555
C34C C35C 1_555 1_555
C35C H24C 1_555 1_555
C36C C35C 1_555 1_555
C37C C36C 1_555 1_555
H25C C37C 1_555 1_555
C38C C37C 1_555 1_555
H26C C38C 1_555 1_555
C39C C26C 1_555 1_555
C40C C39C 1_555 1_555
H27C C40C 1_555 1_555
C41C C36C 1_555 1_555
C42C C41C 1_555 1_555
H28C C42C 1_555 1_555
C43C C34C 1_555 1_555
H29C C43C 1_555 1_555
C3 C4 1_555 1_555
C8 C9 1_555 1_555
C11 C12 1_555 1_555
C25 C24B 1_555 1_555
C28 C29 1_555 1_555
C32 C32B 1_555 1_555
C40 C41 1_555 1_555
C42 C43 1_555 1_555
C1B C17B 1_555 1_555
C3B C4B 1_555 1_555
C8B C9B 1_555 1_555
C11B C12B 1_555 1_555
C14B C19B 1_555 1_555
C15B C16B 1_555 1_555
C17B C18B 1_555 1_555
C21B C25B 1_555 1_555
C23B C24B 1_555 1_555
C28B C32B 1_555 1_555
C30B C31B 1_555 1_555
C38C C39C 1_555 1_555
C40C C41C 1_555 1_555
C42C C43C 1_555 1_555

#END
