
#######################################################################
#
#                 Cambridge Crystallographic Data Centre
#                                CCDC 
#
#######################################################################
#
# If this CIF has been generated from an entry in the Cambridge 
# Structural Database, then it will include bibliographic, chemical, 
# crystal, experimental, refinement or atomic coordinate data resulting 
# from the CCDC's data processing and validation procedures.
#
#######################################################################

data_EWULEO
_symmetry_cell_setting           monoclinic
_symmetry_space_group_name_H-M   'P 21'
_symmetry_Int_Tables_number      4
_space_group_name_Hall           'P 2yb'
loop_
_symmetry_equiv_pos_site_id
_symmetry_equiv_pos_as_xyz
1 x,y,z
2 -x,1/2+y,-z
_cell_length_a                   14.0574(13)
_cell_length_b                   23.305(2)
_cell_length_c                   15.2152(14)
_cell_angle_alpha                90
_cell_angle_beta                 115.859(1)
_cell_angle_gamma                90
_cell_volume                     4485.51
loop_
_atom_site_label
_atom_site_type_symbol
_atom_site_fract_x
_atom_site_fract_y
_atom_site_fract_z
W1 W -0.59614(4) -0.38893(2) 0.44554(4)
W2 W -0.79717(4) -0.44731(2) 0.21175(4)
W3 W -0.39534(4) -0.43712(2) 0.40360(4)
W4 W -0.79847(4) -0.29272(2) 0.26734(4)
W5 W -0.77976(4) -0.41665(2) 0.00443(4)
W6 W -0.41042(4) -0.29715(2) 0.44961(4)
W7 W -0.39361(4) -0.26377(2) 0.21878(4)
W8 W -0.79217(4) -0.26206(2) 0.05365(4)
W9 W -0.57300(4) -0.31721(3) 0.00604(4)
W10 W -0.59591(4) -0.50033(2) 0.17417(4)
W11 W -0.38980(4) -0.40438(2) 0.16758(4)
W12 W -0.61286(4) -0.20464(2) 0.26307(4)
Si1 Si -0.5944(2) -0.35243(15) 0.2222(3)
O1 O -0.6721(6) -0.2980(4) 0.2076(6)
O2 O -0.5243(6) -0.3653(4) 0.3382(6)
O3 O -0.5155(6) -0.3389(4) 0.1725(6)
O4 O -0.6670(6) -0.4092(4) 0.1705(6)
O5 O -0.7125(7) -0.5100(4) 0.2077(7)
O6 O -0.5656(8) -0.5703(4) 0.1645(8)
O7 O -0.3580(7) -0.4168(4) 0.3022(7)
O8 O -0.3659(6) -0.2850(4) 0.3480(7)
O9 O -0.5912(8) -0.1344(4) 0.2972(8)
O10 O -0.4617(7) -0.3743(4) 0.0397(6)
O11 O -0.5078(7) -0.2197(4) 0.2181(7)
O12 O -0.8834(8) -0.2279(5) -0.0460(8)
O13 O -0.7180(7) -0.1972(4) 0.1301(7)
O14 O -0.4956(7) -0.4607(4) 0.1429(7)
O15 O -0.8237(7) -0.3398(4) 0.0190(7)
O16 O -0.5178(7) -0.2425(4) 0.3813(6)
O17 O -0.8673(8) -0.4331(5) -0.1126(6)
O18 O -0.6295(7) -0.4039(5) 0.5395(7)
O19 O -0.4932(7) -0.3297(4) 0.5086(7)
O20 O -0.8591(6) -0.4440(4) 0.0751(6)
O21 O -0.8966(7) -0.2781(4) 0.3018(8)
O22 O -0.5953(8) -0.3026(5) -0.1111(7)
O23 O -0.8942(7) -0.4834(4) 0.2289(7)
O24 O -0.7258(6) -0.2210(4) 0.2997(6)
O25 O -0.6917(7) -0.4351(4) 0.3446(6)
O26 O -0.6997(7) -0.4862(4) 0.0411(6)
O27 O -0.3017(7) -0.4867(4) 0.4658(7)
O28 O -0.3205(7) -0.3313(4) 0.2079(7)
O29 O -0.4671(7) -0.2622(4) 0.0760(7)
O30 O -0.3200(8) -0.2574(4) 0.5424(7)
O31 O -0.2989(7) -0.2124(5) 0.2389(8)
O32 O -0.3337(7) -0.3691(4) 0.4742(7)
O33 O -0.5037(6) -0.4838(4) 0.3051(7)
O34 O -0.6704(7) -0.3803(4) -0.0139(7)
O35 O -0.4828(6) -0.4404(4) 0.4747(6)
O36 O -0.6939(6) -0.3276(4) 0.3805(6)
O37 O -0.2921(7) -0.4416(5) 0.1567(8)
O38 O -0.6768(6) -0.2714(4) 0.0199(6)
O39 O -0.8647(6) -0.2660(4) 0.1347(6)
O40 O -0.8359(6) -0.3698(4) 0.2177(7)
Cu1 Cu -0.0715(2) -0.36596(12) 0.21814(17)
Cu4 Cu -0.09967(19) -0.20155(11) 0.29418(17)
C1 C -0.0661(13) -0.3364(7) 0.0355(13)
H1 H -0.0024 -0.3562 0.0599
C2 C -0.0983(12) -0.3108(8) -0.0510(12)
H2 H -0.0583 -0.3141 -0.0858
C3 C -0.1939(12) -0.2782(8) -0.0907(14)
C4 C -0.2543(13) -0.2805(9) -0.0378(14)
H3 H -0.3221 -0.2651 -0.0642
C5 C -0.2138(15) -0.3050(8) 0.0513(14)
H4 H -0.2513 -0.3010 0.0884
C6 C -0.2270(14) -0.2477(9) -0.1864(13)
H5 H -0.2215 -0.2744 -0.2330
H6 H -0.3008 -0.2371 -0.2106
C7 C -0.1659(16) -0.1962(9) -0.1832(15)
H7 H -0.1845 -0.1848 -0.2500
H8 H -0.0918 -0.2068 -0.1540
C8 C -0.1771(18) -0.1438(9) -0.1293(15)
H9 H -0.1286 -0.1147 -0.1313
H10 H -0.2481 -0.1288 -0.1656
C9 C -0.1582(14) -0.1506(8) -0.0257(14)
C10 C -0.0648(13) -0.1732(7) 0.0432(13)
H11 H -0.0108 -0.1808 0.0250
C11 C -0.0476(14) -0.1849(8) 0.1372(13)
H12 H 0.0179 -0.1990 0.1809
C12 C -0.2296(15) -0.1383(9) 0.0113(15)
H13 H -0.2930 -0.1204 -0.0287
C13 C -0.2096(16) -0.1517(10) 0.1056(14)
H14 H -0.2607 -0.1426 0.1266
C14 C -0.0929(14) -0.3893(12) 0.3904(15)
H15 H -0.1640 -0.3828 0.3499
C15 C -0.0619(16) -0.3986(12) 0.4923(14)
H16 H -0.1122 -0.4012 0.5165
C16 C 0.0435(13) -0.4034(8) 0.5532(12)
C17 C 0.1113(14) -0.4022(9) 0.5082(13)
H17 H 0.1836 -0.4060 0.5469
C18 C 0.0779(13) -0.3959(9) 0.4138(11)
H18 H 0.1283 -0.3958 0.3897
C19 C 0.0793(17) -0.4056(10) 0.6620(14)
H19 H 0.1225 -0.4396 0.6872
H20 H 0.0172 -0.4101 0.6739
C20 C 0.1431(17) -0.3528(11) 0.7219(19)
H21 H 0.1805 -0.3632 0.7903
H22 H 0.1950 -0.3416 0.6991
C21 C 0.0701(17) -0.3032(11) 0.7109(14)
H23 H 0.0105 -0.3172 0.7208
H24 H 0.1075 -0.2755 0.7621
C22 C 0.0286(14) -0.2729(8) 0.6140(12)
C23 C -0.0791(13) -0.2646(10) 0.5583(15)
H25 H -0.1276 -0.2757 0.5815
C24 C -0.1116(13) -0.2400(10) 0.4694(15)
H26 H -0.1833 -0.2315 0.4359
C25 C 0.0933(13) -0.2556(8) 0.5714(13)
H27 H 0.1662 -0.2597 0.6055
C26 C 0.0521(13) -0.2335(9) 0.4832(13)
H28 H 0.0995 -0.2217 0.4592
N1 N -0.1219(11) -0.3352(6) 0.0908(10)
N2 N -0.1225(11) -0.1767(6) 0.1678(10)
N3 N -0.0233(11) -0.3895(7) 0.3495(9)
N4 N -0.0503(9) -0.2263(6) 0.4242(10)
Cu2 Cu 0.00340(19) -0.58118(12) 1.5097(2)
Cu3 Cu -0.58733(17) -0.36786(9) 0.71168(17)
C27 C -0.6323(13) -0.4545(7) 0.8229(11)
H29 H -0.6697 -0.4270 0.8392
C28 C -0.5996(13) -0.5033(7) 0.8804(11)
H30 H -0.6139 -0.5066 0.9344
C29 C -0.5475(14) -0.5463(8) 0.8600(13)
C30 C -0.5297(17) -0.5364(8) 0.7785(13)
H31 H -0.4937 -0.5641 0.7609
C31 C -0.5612(14) -0.4899(9) 0.7250(14)
H32 H -0.5480 -0.4869 0.6704
C32 C -0.5044(16) -0.5964(8) 0.9260(13)
H33 H -0.4883 -0.6266 0.8907
H34 H -0.5585 -0.6108 0.9436
C33 C -0.4047(14) -0.5835(8) 1.0198(14)
H35 H -0.3491 -0.5709 1.0027
H36 H -0.4194 -0.5523 1.0542
C34 C -0.3662(16) -0.6345(8) 1.0867(14)
H37 H -0.3431 -0.6642 1.0557
H38 H -0.4238 -0.6498 1.0985
C35 C -0.2734(16) -0.6177(8) 1.1853(14)
C36 C -0.2874(14) -0.5815(10) 1.2504(14)
H39 H -0.3532 -0.5645 1.2318
C37 C -0.2111(14) -0.5698(10) 1.3386(14)
H40 H -0.2264 -0.5460 1.3799
C38 C -0.1739(16) -0.6397(9) 1.2149(15)
H41 H -0.1588 -0.6631 1.1731
C39 C -0.0980(17) -0.6275(10) 1.3044(16)
H42 H -0.0322 -0.6445 1.3230
C40 C -0.6558(11) -0.2721(7) 0.5790(11)
H43 H -0.7005 -0.2980 0.5331
C41 C -0.6441(11) -0.2168(7) 0.5491(11)
H44 H -0.6821 -0.2067 0.4838
C42 C -0.5797(11) -0.1778(7) 0.6119(11)
C43 C -0.5294(14) -0.1931(8) 0.7096(13)
H45 H -0.4878 -0.1671 0.7571
C44 C -0.5435(12) -0.2488(8) 0.7340(11)
H46 H -0.5075 -0.2592 0.7993
C45 C -0.5568(16) -0.1188(8) 0.5801(17)
H47 H -0.5457 -0.0904 0.6302
H48 H -0.6156 -0.1066 0.5201
C46 C -0.4474(14) -0.1263(9) 0.5632(16)
H49 H -0.3863 -0.1314 0.6255
H50 H -0.4537 -0.1597 0.5230
C47 C -0.4356(15) -0.0771(10) 0.5175(19)
H51 H -0.4329 -0.0435 0.5560
H52 H -0.4947 -0.0731 0.4535
C48 C -0.3301(17) -0.0836(11) 0.5077(18)
C49 C -0.2404(15) -0.0595(12) 0.5816(18)
H53 H -0.2422 -0.0437 0.6370
C50 C -0.1485(15) -0.0600(10) 0.5699(18)
H54 H -0.0880 -0.0438 0.6187
C51 C -0.3199(14) -0.1114(10) 0.4347(14)
H55 H -0.3747 -0.1337 0.3904
C52 C -0.2239(13) -0.1057(9) 0.4274(14)
H56 H -0.2203 -0.1199 0.3718
C53 C -0.3702(12) -0.4070(8) 0.8734(13)
H57 H -0.4070 -0.4045 0.9113
C54 C -0.2752(13) -0.4341(8) 0.9128(13)
H58 H -0.2492 -0.4491 0.9756
C55 C -0.2146(11) -0.4396(7) 0.8574(12)
C56 C -0.2634(14) -0.4159(10) 0.7649(14)
H59 H -0.2307 -0.4191 0.7235
C57 C -0.3586(16) -0.3877(9) 0.7323(14)
H60 H -0.3858 -0.3706 0.6710
C58 C -0.1075(17) -0.4660(9) 0.8989(18)
H61 H -0.0630 -0.4457 0.9584
H62 H -0.0775 -0.4604 0.8529
C59 C -0.1030(16) -0.5328(14) 0.9234(18)
H63 H -0.0301 -0.5456 0.9537
H64 H -0.1330 -0.5393 0.9692
C60 C -0.1618(19) -0.5654(11) 0.8348(17)
H65 H -0.2317 -0.5485 0.8015
H66 H -0.1709 -0.6041 0.8533
C61 C -0.1128(17) -0.5694(9) 0.7598(16)
C62 C -0.0139(16) -0.5512(9) 0.7724(16)
H67 H 0.0325 -0.5365 0.8328
C63 C 0.0173(16) -0.5540(9) 0.7017(16)
H68 H 0.0838 -0.5398 0.7140
C64 C -0.1760(15) -0.5915(9) 0.6671(15)
H69 H -0.2440 -0.6043 0.6520
C65 C -0.1373(16) -0.5942(10) 0.5984(15)
H70 H -0.1799 -0.6096 0.5373
N5 N -0.6134(11) -0.4445(6) 0.7454(9)
N6 N -0.1105(11) -0.5914(8) 1.3710(12)
N7 N -0.6039(9) -0.2884(6) 0.6721(9)
N8 N -0.1421(12) -0.0822(7) 0.4924(11)
N9 N -0.4145(10) -0.3839(8) 0.7853(11)
N10 N -0.0409(13) -0.5755(7) 0.6161(14)
Cu2A Cu -0.00340(19) -0.08118(12) 0.4903(2)
Cu2_2 Cu 0.00340(19) -0.58118(12) 0.5097(2)
N8A N 0.1421(12) -0.5822(7) 1.5076(11)
N10_2 N -0.0409(13) -0.5755(7) 1.6161(14)
loop_
_geom_bond_atom_site_label_1
_geom_bond_atom_site_label_2
_geom_bond_site_symmetry_1
_geom_bond_site_symmetry_2
W1 O2 1_555 1_555
W2 O4 1_555 1_555
W3 O2 1_555 1_555
W4 O1 1_555 1_555
W5 O4 1_555 1_555
W6 O2 1_555 1_555
W7 O3 1_555 1_555
W8 O1 1_555 1_555
W9 O3 1_555 1_555
W10 O4 1_555 1_555
W11 O3 1_555 1_555
W12 O1 1_555 1_555
Cu1 N1 1_555 1_555
Cu2 N6 1_555 1_555
Cu3 N5 1_555 1_555
Cu4 N2 1_555 1_555
Si1 O1 1_555 1_555
O2 Si1 1_555 1_555
O3 Si1 1_555 1_555
O4 Si1 1_555 1_555
O5 W2 1_555 1_555
O6 W10 1_555 1_555
O7 W3 1_555 1_555
O8 W6 1_555 1_555
O9 W12 1_555 1_555
O10 W9 1_555 1_555
O11 W7 1_555 1_555
O12 W8 1_555 1_555
O13 W8 1_555 1_555
O14 W10 1_555 1_555
O15 W5 1_555 1_555
O16 W6 1_555 1_555
O17 W5 1_555 1_555
O18 W1 1_555 1_555
O19 W1 1_555 1_555
O20 W2 1_555 1_555
O21 W4 1_555 1_555
O22 W9 1_555 1_555
O23 W2 1_555 1_555
O24 W4 1_555 1_555
O25 W1 1_555 1_555
O26 W5 1_555 1_555
O27 W3 1_555 1_555
O28 W7 1_555 1_555
O29 W7 1_555 1_555
O30 W6 1_555 1_555
O31 W7 1_555 1_555
O32 W3 1_555 1_555
O33 W3 1_555 1_555
O34 W5 1_555 1_555
O35 W1 1_555 1_555
O36 W1 1_555 1_555
O37 W11 1_555 1_555
O38 W8 1_555 1_555
O39 W4 1_555 1_555
O40 W2 1_555 1_555
C1 H1 1_555 1_555
C2 C1 1_555 1_555
H2 C2 1_555 1_555
C3 C2 1_555 1_555
C4 C3 1_555 1_555
H3 C4 1_555 1_555
C5 C4 1_555 1_555
H4 C5 1_555 1_555
C6 C3 1_555 1_555
H5 C6 1_555 1_555
H6 C6 1_555 1_555
C7 C6 1_555 1_555
H7 C7 1_555 1_555
H8 C7 1_555 1_555
C8 C7 1_555 1_555
H9 C8 1_555 1_555
H10 C8 1_555 1_555
C9 C8 1_555 1_555
C10 C9 1_555 1_555
H11 C10 1_555 1_555
C11 C10 1_555 1_555
H12 C11 1_555 1_555
C12 C9 1_555 1_555
H13 C12 1_555 1_555
C13 C12 1_555 1_555
H14 C13 1_555 1_555
C14 H15 1_555 1_555
C15 C14 1_555 1_555
H16 C15 1_555 1_555
C16 C15 1_555 1_555
C17 C16 1_555 1_555
H17 C17 1_555 1_555
C18 C17 1_555 1_555
H18 C18 1_555 1_555
C19 C16 1_555 1_555
H19 C19 1_555 1_555
H20 C19 1_555 1_555
C20 C19 1_555 1_555
H21 C20 1_555 1_555
H22 C20 1_555 1_555
C21 C20 1_555 1_555
H23 C21 1_555 1_555
H24 C21 1_555 1_555
C22 C21 1_555 1_555
C23 C22 1_555 1_555
H25 C23 1_555 1_555
C24 C23 1_555 1_555
H26 C24 1_555 1_555
C25 C22 1_555 1_555
H27 C25 1_555 1_555
C26 C25 1_555 1_555
H28 C26 1_555 1_555
C27 H29 1_555 1_555
C28 C27 1_555 1_555
H30 C28 1_555 1_555
C29 C28 1_555 1_555
C30 C29 1_555 1_555
H31 C30 1_555 1_555
C31 C30 1_555 1_555
H32 C31 1_555 1_555
C32 C29 1_555 1_555
H33 C32 1_555 1_555
H34 C32 1_555 1_555
C33 C32 1_555 1_555
H35 C33 1_555 1_555
H36 C33 1_555 1_555
C34 C33 1_555 1_555
H37 C34 1_555 1_555
H38 C34 1_555 1_555
C35 C34 1_555 1_555
C36 C35 1_555 1_555
H39 C36 1_555 1_555
C37 C36 1_555 1_555
H40 C37 1_555 1_555
C38 C35 1_555 1_555
H41 C38 1_555 1_555
C39 C38 1_555 1_555
H42 C39 1_555 1_555
C40 H43 1_555 1_555
C41 C40 1_555 1_555
H44 C41 1_555 1_555
C42 C41 1_555 1_555
C43 C42 1_555 1_555
H45 C43 1_555 1_555
C44 C43 1_555 1_555
H46 C44 1_555 1_555
C45 C42 1_555 1_555
H47 C45 1_555 1_555
H48 C45 1_555 1_555
C46 C45 1_555 1_555
H49 C46 1_555 1_555
H50 C46 1_555 1_555
C47 C46 1_555 1_555
H51 C47 1_555 1_555
H52 C47 1_555 1_555
C48 C47 1_555 1_555
C49 C48 1_555 1_555
H53 C49 1_555 1_555
C50 C49 1_555 1_555
H54 C50 1_555 1_555
C51 C48 1_555 1_555
H55 C51 1_555 1_555
C52 C51 1_555 1_555
H56 C52 1_555 1_555
C53 H57 1_555 1_555
C54 C53 1_555 1_555
H58 C54 1_555 1_555
C55 C54 1_555 1_555
C56 C55 1_555 1_555
H59 C56 1_555 1_555
C57 C56 1_555 1_555
H60 C57 1_555 1_555
C58 C55 1_555 1_555
H61 C58 1_555 1_555
H62 C58 1_555 1_555
C59 C58 1_555 1_555
H63 C59 1_555 1_555
H64 C59 1_555 1_555
C60 C59 1_555 1_555
H65 C60 1_555 1_555
H66 C60 1_555 1_555
C61 C60 1_555 1_555
C62 C61 1_555 1_555
H67 C62 1_555 1_555
C63 C62 1_555 1_555
H68 C63 1_555 1_555
C64 C61 1_555 1_555
H69 C64 1_555 1_555
C65 C64 1_555 1_555
H70 C65 1_555 1_555
N1 C1 1_555 1_555
N2 C11 1_555 1_555
N3 Cu1 1_555 1_555
N4 Cu4 1_555 1_555
N5 C27 1_555 1_555
N6 C37 1_555 1_555
N7 Cu3 1_555 1_555
N8 C50 1_555 1_555
N9 Cu3 1_555 1_555
N10 C63 1_555 1_555
Cu2A N8 1_555 1_555
Cu2_2 N10 1_555 1_555
N8A Cu2 1_555 1_555
N10_2 Cu2 1_555 1_555
W2 O25 1_555 1_555
W3 O35 1_555 1_555
W4 O36 1_555 1_555
W4 O40 1_555 1_555
W5 O20 1_555 1_555
W6 O19 1_555 1_555
W6 O32 1_555 1_555
W7 O8 1_555 1_555
W8 O15 1_555 1_555
W8 O39 1_555 1_555
W9 O29 1_555 1_555
W9 O34 1_555 1_555
W9 O38 1_555 1_555
W10 O5 1_555 1_555
W10 O26 1_555 1_555
W10 O33 1_555 1_555
W11 O7 1_555 1_555
W11 O10 1_555 1_555
W11 O14 1_555 1_555
W11 O28 1_555 1_555
W12 O11 1_555 1_555
W12 O13 1_555 1_555
W12 O16 1_555 1_555
W12 O24 1_555 1_555
C5 N1 1_555 1_555
C13 N2 1_555 1_555
C14 N3 1_555 1_555
C18 N3 1_555 1_555
C24 N4 1_555 1_555
C26 N4 1_555 1_555
C31 N5 1_555 1_555
C39 N6 1_555 1_555
C40 N7 1_555 1_555
C44 N7 1_555 1_555
C52 N8 1_555 1_555
C53 N9 1_555 1_555
C57 N9 1_555 1_555
C65 N10 1_555 1_555

#END
