
#######################################################################
#
#                 Cambridge Crystallographic Data Centre
#                                CCDC 
#
#######################################################################
#
# If this CIF has been generated from an entry in the Cambridge 
# Structural Database, then it will include bibliographic, chemical, 
# crystal, experimental, refinement or atomic coordinate data resulting 
# from the CCDC's data processing and validation procedures.
#
#######################################################################

data_EXOFIH
_symmetry_cell_setting           hexagonal
_symmetry_space_group_name_H-M   'P 62 2 2'
_symmetry_Int_Tables_number      180
_space_group_name_Hall           "P 62 2' (0,0,4)"
loop_
_symmetry_equiv_pos_site_id
_symmetry_equiv_pos_as_xyz
1 x,y,z
2 -y,x-y,2/3+z
3 -x+y,-x,1/3+z
4 -x,-y,z
5 y,-x+y,2/3+z
6 x-y,x,1/3+z
7 y,x,2/3-z
8 x-y,-y,-z
9 -x,-x+y,1/3-z
10 -y,-x,2/3-z
11 -x+y,y,-z
12 x,x-y,1/3-z
_cell_length_a                   9.038(2)
_cell_length_b                   9.038(2)
_cell_length_c                   18.975(10)
_cell_angle_alpha                90
_cell_angle_beta                 90
_cell_angle_gamma                120
_cell_volume                     1342.32
loop_
_atom_site_label
_atom_site_type_symbol
_atom_site_fract_x
_atom_site_fract_y
_atom_site_fract_z
O3 O 0.685(5) -0.462(9) 0.0449(18)
H2 H 0.7146 -0.5183 0.0713
H3 H 0.6171 -0.5107 0.0106
In1 In 1.0000 0.0000 0.1667
C1 C 0.7692(10) -0.0016(12) 0.0778(4)
O1 O 0.8535(10) 0.1120(11) 0.1252(3)
C2 C 0.5000 0.0000 0.0715(5)
H1 H 0.5000 0.0000 0.1215
C3 C 0.6311(9) -0.0031(11) 0.0381(3)
O2 O 0.8137(10) -0.1123(10) 0.0695(4)
In1_2 In 0.0000 0.0000 0.1667
In1G In 0.0000 0.0000 -0.1667
In1G_2 In 1.0000 0.0000 -0.1667
C1C C 0.2308(10) 0.0016(12) 0.0778(4)
C1J C 0.2292(16) -0.0016(12) -0.0778(4)
C1G C 0.7708(16) 0.0016(12) -0.0778(4)
O1C O 0.1465(10) -0.1120(11) 0.1252(3)
O1J O 0.2585(15) 0.1120(11) -0.1252(3)
O1G O 0.7415(15) -0.1120(11) -0.1252(3)
O1C_2 O 1.1465(10) -0.1120(11) 0.1252(3)
O1H O 1.1465(10) 0.2585(15) 0.2081(3)
O1K O 0.8535(10) -0.2585(15) 0.2081(3)
C2G C 0.5000 0.0000 -0.0715(5)
H1G H 0.5000 0.0000 -0.1215
C3C C 0.3689(9) 0.0031(11) 0.0381(3)
C3J C 0.3658(14) -0.0031(11) -0.0381(3)
C3G C 0.6342(14) 0.0031(11) -0.0381(3)
O2C O 0.1863(10) 0.1123(10) 0.0695(4)
O2J O 0.0740(14) -0.1123(10) -0.0695(4)
O2G O 0.9260(14) 0.1123(10) -0.0695(4)
O2C_2 O 1.1863(10) 0.1123(10) 0.0695(4)
O2H O 1.1863(10) 0.0740(14) 0.2638(4)
O2K O 0.8137(10) -0.0740(14) 0.2638(4)
loop_
_geom_bond_atom_site_label_1
_geom_bond_atom_site_label_2
_geom_bond_site_symmetry_1
_geom_bond_site_symmetry_2
In1 O1 1_555 1_555
C1 O1 1_555 1_555
C2 H1 1_555 1_555
C3 C1 1_555 1_555
O2 In1 1_555 1_555
O3 H2 1_555 1_555
H3 O3 1_555 1_555
In1_2 O1C 1_555 1_555
In1G O1J 1_555 1_555
In1G_2 O1G 1_555 1_555
C1C O1C 1_555 1_555
C1J O1J 1_555 1_555
C1G O1G 1_555 1_555
O1C_2 In1 1_555 1_555
O1H In1 1_555 1_555
O1K In1 1_555 1_555
C2G H1G 1_555 1_555
C3C C2 1_555 1_555
C3J C1J 1_555 1_555
C3G C3 1_555 1_555
O2C In1_2 1_555 1_555
O2J In1G 1_555 1_555
O2G In1G_2 1_555 1_555
O2C_2 In1 1_555 1_555
O2H In1 1_555 1_555
O2K In1 1_555 1_555
C1 O2 1_555 1_555
C2 C3 1_555 1_555
C1C C3C 1_555 1_555
C1C O2C 1_555 1_555
C1J O2J 1_555 1_555
C1G C3G 1_555 1_555
C1G O2G 1_555 1_555
C2G C3J 1_555 1_555
C2G C3G 1_555 1_555
C3C C3J 1_555 1_555

#END
