
#######################################################################
#
#                 Cambridge Crystallographic Data Centre
#                                CCDC 
#
#######################################################################
#
# If this CIF has been generated from an entry in the Cambridge 
# Structural Database, then it will include bibliographic, chemical, 
# crystal, experimental, refinement or atomic coordinate data resulting 
# from the CCDC's data processing and validation procedures.
#
#######################################################################

data_EZIMEG
_symmetry_cell_setting           rhombohedral
_symmetry_space_group_name_H-M   'R -3 m'
_symmetry_Int_Tables_number      166
_space_group_name_Hall           '-R 3 2"'
loop_
_symmetry_equiv_pos_site_id
_symmetry_equiv_pos_as_xyz
1 x,y,z
2 -y,x-y,z
3 -x+y,-x,z
4 y,x,-z
5 x-y,-y,-z
6 -x,-x+y,-z
7 2/3+x,1/3+y,1/3+z
8 2/3-y,1/3+x-y,1/3+z
9 2/3-x+y,1/3-x,1/3+z
10 2/3+y,1/3+x,1/3-z
11 2/3+x-y,1/3-y,1/3-z
12 2/3-x,1/3-x+y,1/3-z
13 1/3+x,2/3+y,2/3+z
14 1/3-y,2/3+x-y,2/3+z
15 1/3-x+y,2/3-x,2/3+z
16 1/3+y,2/3+x,2/3-z
17 1/3+x-y,2/3-y,2/3-z
18 1/3-x,2/3-x+y,2/3-z
19 -x,-y,-z
20 y,-x+y,-z
21 x-y,x,-z
22 -y,-x,z
23 -x+y,y,z
24 x,x-y,z
25 1/3-x,2/3-y,2/3-z
26 1/3+y,2/3-x+y,2/3-z
27 1/3+x-y,2/3+x,2/3-z
28 1/3-y,2/3-x,2/3+z
29 1/3-x+y,2/3+y,2/3+z
30 1/3+x,2/3+x-y,2/3+z
31 2/3-x,1/3-y,1/3-z
32 2/3+y,1/3-x+y,1/3-z
33 2/3+x-y,1/3+x,1/3-z
34 2/3-y,1/3-x,1/3+z
35 2/3-x+y,1/3+y,1/3+z
36 2/3+x,1/3+x-y,1/3+z
_cell_length_a                   18.628(3)
_cell_length_b                   18.628(3)
_cell_length_c                   36.435(7)
_cell_angle_alpha                90
_cell_angle_beta                 90
_cell_angle_gamma                120
_cell_volume                     10949.2
loop_
_atom_site_label
_atom_site_type_symbol
_atom_site_fract_x
_atom_site_fract_y
_atom_site_fract_z
Zn1 Zn 0.527040(14) 0.472960(14) 1.032658(11)
O1 O 0.48093(18) 0.36975(18) 1.00151(7)
O2 O 0.4092(2) 0.43850(19) 1.04817(7)
C1 C 0.5414(3) 0.45863(17) 1.11148(12)
N1 N 0.5414(3) 0.4207(3) 1.07952(12)
C2 C 0.5468(4) 0.3512(5) 1.07944(18)
H1 H 0.5514 0.3296 1.0565
C3 C 0.5461(5) 0.3102(6) 1.1109(2)
C4 C 0.5407(5) 0.3435(6) 1.1439(2)
H2 H 0.5414 0.3177 1.1663
C5 C 0.5342(5) 0.4154(4) 1.14448(16)
C6 C 0.5363(5) 0.4638(3) 1.17826(17)
C7 C 0.5161(5) 0.4839(2) 1.20545(15)
C8 C 0.4911(4) 0.5089(2) 1.23814(13)
C9 C 0.4143(3) 0.4563(3) 1.25401(9)
H3 H 0.3778 0.4045 1.2428
C10 C 0.3909(3) 0.4796(2) 1.28616(9)
C11 C 0.4451(3) 0.55492(17) 1.30231(12)
H4 H 0.4303 0.5697 1.3248
C12 C 0.4485(3) 0.3581(3) 0.96991(9)
Zn1K Zn 0.139627(14) 0.279253(20) 1.300675(11)
Zn1G Zn 0.193707(14) 0.387413(20) 1.365991(11)
Zn1H Zn 0.612587(20) 0.806293(14) 1.365991(11)
Zn1J Zn 0.720747(20) 0.860373(14) 1.300675(11)
O1U O 0.63025(18) 0.51907(18) 1.00151(7)
O1G O 0.29692(18) 0.44451(25) 1.33484(7)
O1HA O 0.55549(25) 0.70308(18) 1.33484(7)
O1K O 0.18574(18) 0.22215(25) 1.33182(7)
O1EA O 0.03642(18) 0.22215(25) 1.33182(7)
O2U O 0.56150(19) 0.5908(2) 1.04817(7)
O2C O 0.43850(19) 0.4092(2) 0.95183(7)
O2K O 0.2575(2) 0.36263(28) 1.28516(7)
O2FA O 0.63737(28) 0.7425(2) 1.28516(7)
O2EA O 0.10517(19) 0.36263(28) 1.28516(7)
N1U N 0.5793(3) 0.4586(3) 1.07952(12)
N1K N 0.1253(3) 0.2126(4) 1.25381(12)
N1EA N 0.0874(3) 0.2126(4) 1.25381(12)
C3W C 0.5461(5) 0.2359(8) 1.1109(2)
C5U C 0.5846(4) 0.4658(5) 1.14448(16)
C9U C 0.5437(3) 0.5857(3) 1.25401(9)
H3U H 0.5955 0.6222 1.2428
C10U C 0.5204(2) 0.6091(3) 1.28616(9)
C10N C 0.4220(4) 0.2758(3) 0.95283(9)
C12C C 0.3581(3) 0.4485(3) 1.03009(9)
C12G C 0.3086(3) 0.4237(4) 1.30324(9)
C12HA C 0.5763(4) 0.6914(3) 1.30324(9)
loop_
_geom_bond_atom_site_label_1
_geom_bond_atom_site_label_2
_geom_bond_site_symmetry_1
_geom_bond_site_symmetry_2
Zn1 O1 1_555 1_555
O1 C12 1_555 1_555
O2 Zn1 1_555 1_555
C1 N1 1_555 1_555
N1 Zn1 1_555 1_555
C2 N1 1_555 1_555
H1 C2 1_555 1_555
C3 C2 1_555 1_555
C4 C3 1_555 1_555
H2 C4 1_555 1_555
C5 C1 1_555 1_555
C6 C5 1_555 1_555
C7 C6 1_555 1_555
C8 C7 1_555 1_555
C9 C8 1_555 1_555
H3 C9 1_555 1_555
C10 C9 1_555 1_555
C11 C10 1_555 1_555
H4 C11 1_555 1_555
C12 O2C 1_555 1_555
Zn1K O1K 1_555 1_555
Zn1G O1G 1_555 1_555
Zn1H O1HA 1_555 1_555
Zn1J O2FA 1_555 1_555
O1U Zn1 1_555 1_555
O1G C12G 1_555 1_555
O1HA C12HA 1_555 1_555
O1EA Zn1K 1_555 1_555
O2U Zn1 1_555 1_555
O2K Zn1K 1_555 1_555
O2FA C12HA 1_555 1_555
O2EA Zn1K 1_555 1_555
N1U Zn1 1_555 1_555
N1K Zn1K 1_555 1_555
N1EA Zn1K 1_555 1_555
C3W C3 1_555 1_555
C5U C1 1_555 1_555
C9U C8 1_555 1_555
H3U C9U 1_555 1_555
C10U C11 1_555 1_555
C10N C12 1_555 1_555
C12C O2 1_555 1_555
C12G C10 1_555 1_555
C12HA C10U 1_555 1_555
C1 N1U 1_555 1_555
N1 N1U 1_555 1_555
C4 C5 1_555 1_555
C5 C5U 1_555 1_555
C6 C5U 1_555 1_555
O2K C12G 1_555 1_555
C9U C10U 1_555 1_555

#END
