
#######################################################################
#
#                 Cambridge Crystallographic Data Centre
#                                CCDC 
#
#######################################################################
#
# If this CIF has been generated from an entry in the Cambridge 
# Structural Database, then it will include bibliographic, chemical, 
# crystal, experimental, refinement or atomic coordinate data resulting 
# from the CCDC's data processing and validation procedures.
#
#######################################################################

data_EZOXEX
_symmetry_cell_setting           monoclinic
_symmetry_space_group_name_H-M   'P 21/n'
_symmetry_Int_Tables_number      14
_space_group_name_Hall           '-P 2yn'
loop_
_symmetry_equiv_pos_site_id
_symmetry_equiv_pos_as_xyz
1 x,y,z
2 1/2-x,1/2+y,1/2-z
3 -x,-y,-z
4 1/2+x,1/2-y,1/2+z
_cell_length_a                   6.3846(5)
_cell_length_b                   16.7722(19)
_cell_length_c                   8.9996(12)
_cell_angle_alpha                90
_cell_angle_beta                 100.121(8)
_cell_angle_gamma                90
_cell_volume                     948.715
loop_
_atom_site_label
_atom_site_type_symbol
_atom_site_fract_x
_atom_site_fract_y
_atom_site_fract_z
C1 C 0.2107(10) 0.1886(5) 0.1958(10)
C2 C 0.2122(10) 0.2413(4) 0.0882(9)
H1 H 0.0739 0.2403 0.0231
H2 H 0.3161 0.2244 0.0279
C3 C 0.2637(10) 0.3307(3) 0.1389(7)
H3 H 0.4062 0.3313 0.1980
H4 H 0.1674 0.3451 0.2068
O1 O 0.2754(7) 0.1166(3) 0.6124(5)
O3 O 0.1904(7) 0.1118(2) 0.1742(5)
O4 O 0.2270(7) 0.2096(2) 0.3414(5)
O5 O 0.0329(6) 0.4092(2) -0.0953(5)
O6 O 0.4115(6) 0.3927(2) -0.1002(5)
O7 O 0.2984(7) 0.4832(2) 0.0982(5)
P1 P 0.2510(2) 0.40762(9) 0.00379(19)
V1 V 0.22727(16) 0.09853(6) 0.43374(12)
O5C O 0.5329(6) 0.0908(2) 0.4047(5)
O6C O -0.0885(6) 0.1073(2) 0.3998(5)
O7A O 0.2016(7) -0.0168(2) 0.4018(5)
V1C V -0.27273(16) 0.40147(6) -0.06626(12)
V1C_2 V 0.72727(16) 0.40147(6) -0.06626(12)
V1A V 0.27273(16) 0.59853(6) 0.06626(12)
C4 C -0.4848(10) -0.0132(4) 0.1578(7)
H5 H -0.5331 0.0376 0.1908
H6 H -0.4512 -0.0474 0.2456
C5 C -0.2914(14) -0.0005(5) 0.0929(9)
H7 H -0.2346 -0.0515 0.0684
H8 H -0.1844 0.0259 0.1663
N1 N -0.6584(14) -0.0500(5) 0.0480(10)
H9 H -0.7756 -0.0547 0.0903
H10 H -0.6190 -0.0991 0.0236
C4B C -0.5152(10) 0.0132(4) -0.1578(7)
H5B H -0.4669 -0.0376 -0.1908
H6B H -0.5488 0.0474 -0.2456
C5B C -0.7086(14) 0.0005(5) -0.0929(9)
H7B H -0.7654 0.0515 -0.0684
H8B H -0.8156 -0.0259 -0.1663
N1B N -0.3416(14) 0.0500(5) -0.0480(10)
H9B H -0.2244 0.0547 -0.0903
H10B H -0.3810 0.0991 -0.0236
O2 O -0.299(2) 0.2049(7) 0.1642(13)
loop_
_geom_bond_atom_site_label_1
_geom_bond_atom_site_label_2
_geom_bond_site_symmetry_1
_geom_bond_site_symmetry_2
C1 C2 1_555 1_555
C2 H1 1_555 1_555
H2 C2 1_555 1_555
C3 C2 1_555 1_555
H3 C3 1_555 1_555
H4 C3 1_555 1_555
C4 H5 1_555 1_555
H6 C4 1_555 1_555
C5 C4 1_555 1_555
H7 C5 1_555 1_555
H8 C5 1_555 1_555
N1 C4 1_555 1_555
H9 N1 1_555 1_555
H10 N1 1_555 1_555
O1 V1 1_555 1_555
O3 C1 1_555 1_555
O4 C1 1_555 1_555
O5 P1 1_555 1_555
O6 P1 1_555 1_555
O7 P1 1_555 1_555
P1 C3 1_555 1_555
V1 O3 1_555 1_555
C4B H5B 1_555 1_555
H6B C4B 1_555 1_555
C5B N1 1_555 1_555
H7B C5B 1_555 1_555
H8B C5B 1_555 1_555
N1B C5 1_555 1_555
H9B N1B 1_555 1_555
H10B N1B 1_555 1_555
O5C V1 1_555 1_555
O6C V1 1_555 1_555
O7A V1 1_555 1_555
V1C O5 1_555 1_555
V1C_2 O6 1_555 1_555
V1A O7 1_555 1_555
O4 V1 1_555 1_555
C4B C5B 1_555 1_555
C4B N1B 1_555 1_555

#END
