
#######################################################################
#
#                 Cambridge Crystallographic Data Centre
#                                CCDC 
#
#######################################################################
#
# If this CIF has been generated from an entry in the Cambridge 
# Structural Database, then it will include bibliographic, chemical, 
# crystal, experimental, refinement or atomic coordinate data resulting 
# from the CCDC's data processing and validation procedures.
#
#######################################################################

data_FAFGAU
_symmetry_cell_setting           monoclinic
_symmetry_space_group_name_H-M   'C 2/c'
_symmetry_Int_Tables_number      15
_space_group_name_Hall           '-C 2yn'
loop_
_symmetry_equiv_pos_site_id
_symmetry_equiv_pos_as_xyz
1 x,y,z
2 1/2+x,1/2+y,z
3 -x,y,1/2-z
4 1/2-x,1/2+y,1/2-z
5 -x,-y,-z
6 1/2-x,1/2-y,-z
7 x,-y,1/2+z
8 1/2+x,1/2-y,1/2+z
_cell_length_a                   8.061(2)
_cell_length_b                   15.080(3)
_cell_length_c                   19.740(3)
_cell_angle_alpha                90
_cell_angle_beta                 93.70(4)
_cell_angle_gamma                90
_cell_volume                     2394.59
loop_
_atom_site_label
_atom_site_type_symbol
_atom_site_fract_x
_atom_site_fract_y
_atom_site_fract_z
Nd1 Nd 0.25443(5) 0.03773(3) 0.01188(2)
O1 O -0.0133(7) 0.0449(4) 0.0621(3)
O2 O 0.2683(7) -0.0492(4) -0.0942(3)
O3 O -0.0148(6) 0.4198(4) 0.0340(3)
O4 O -0.2664(6) 0.3836(4) 0.0607(3)
O5 O 0.3457(8) 0.0552(4) 0.1328(3)
O6 O 0.3323(7) 0.1774(4) 0.0740(3)
O7 O 0.1133(8) 0.1485(4) -0.0616(4)
C1 C -0.1212(9) 0.0743(5) 0.1019(4)
C2 C -0.0720(10) 0.1407(5) 0.1553(5)
C3 C -0.1405(11) 0.2341(6) 0.1354(5)
C4 C -0.0516(11) 0.2743(5) 0.0779(5)
C5 C -0.1159(9) 0.3637(5) 0.0573(5)
C6 C 0.3663(9) 0.1372(6) 0.1298(5)
C7 C 0.4261(11) 0.1905(6) 0.1921(5)
C8 C 0.50000 0.1331(8) 0.25000
H1 H 0.050 0.143 0.162
H2 H -0.117 0.122 0.199
H3 H -0.126 0.274 0.175
H4 H -0.259 0.229 0.122
H5 H 0.068 0.278 0.091
H6 H -0.067 0.234 0.038
H7 H 0.332 0.224 0.209
H8 H 0.512 0.233 0.180
H9 H 0.588 0.095 0.233
O1D O 0.0133(7) -0.0449(4) -0.0621(3)
O3E O 0.5148(6) 0.0802(4) -0.0340(3)
Nd1D Nd -0.25443(5) -0.03773(3) -0.01188(2)
C1D C 0.1212(9) -0.0743(5) -0.1019(4)
O2D O -0.2683(7) 0.0492(4) 0.0942(3)
H9B H 0.412 0.095 0.267
C7B C 0.5739(11) 0.1905(6) 0.3079(5)
C2D C 0.0720(10) -0.1407(5) -0.1553(5)
O3A O 0.4852(6) -0.0802(4) 0.0340(3)
O4A O 0.2336(6) -0.1164(4) 0.0607(3)
C6B C 0.6337(9) 0.1372(6) 0.3702(5)
H7B H 0.668 0.224 0.291
H8B H 0.488 0.233 0.320
C3D C 0.1405(11) -0.2341(6) -0.1354(5)
H1D H -0.050 -0.143 -0.162
H2D H 0.117 -0.122 -0.199
Nd1A Nd -0.24557(5) 0.53773(3) 0.01188(2)
Nd1E Nd 0.24557(5) 0.46227(3) -0.01188(2)
O5B O 0.6543(8) 0.0552(4) 0.3672(3)
O6B O 0.6677(7) 0.1774(4) 0.4260(3)
C4D C 0.0516(11) -0.2743(5) -0.0779(5)
H3D H 0.126 -0.274 -0.175
H4D H 0.259 -0.229 -0.122
Nd1B Nd 0.74557(5) 0.03773(3) 0.48812(2)
C5D C 0.1159(9) -0.3637(5) -0.0573(5)
H5D H -0.068 -0.278 -0.091
H6D H 0.067 -0.234 -0.038
O3D O 0.0148(6) -0.4198(4) -0.0340(3)
O4D O 0.2664(6) -0.3836(4) -0.0607(3)
Nd1A_2 Nd -0.24557(5) -0.46227(3) 0.01188(2)
Nd1E_2 Nd 0.24557(5) -0.53773(3) -0.01188(2)
O3A_2 O -0.5148(6) -0.0802(4) 0.0340(3)
O3E_2 O -0.4852(6) 0.0802(4) -0.0340(3)
O4E O -0.2336(6) 0.1164(4) -0.0607(3)
O5D O -0.3457(8) -0.0552(4) -0.1328(3)
O6D O -0.3323(7) -0.1774(4) -0.0740(3)
O7D O -0.1133(8) -0.1485(4) 0.0616(4)
O8 O 0.1085(26) 0.4056(8) 0.2001(7)
loop_
_geom_bond_atom_site_label_1
_geom_bond_atom_site_label_2
_geom_bond_site_symmetry_1
_geom_bond_site_symmetry_2
Nd1 O1 1_555 1_555
O1 C1 1_555 1_555
O2 Nd1 1_555 1_555
O3 C5 1_555 1_555
O4 C5 1_555 1_555
O5 Nd1 1_555 1_555
O6 Nd1 1_555 1_555
O7 Nd1 1_555 1_555
C1 C2 1_555 1_555
C2 C3 1_555 1_555
C3 C4 1_555 1_555
C4 C5 1_555 1_555
C6 O5 1_555 1_555
C7 C6 1_555 1_555
C8 C7 1_555 1_555
H1 C2 1_555 1_555
H2 C2 1_555 1_555
H3 C3 1_555 1_555
H4 C3 1_555 1_555
H5 C4 1_555 1_555
H6 C4 1_555 1_555
H7 C7 1_555 1_555
H8 C7 1_555 1_555
H9 C8 1_555 1_555
O1D Nd1 1_555 1_555
O3E Nd1 1_555 1_555
Nd1D O1 1_555 1_555
C1D O2 1_555 1_555
O2D C1 1_555 1_555
H9B C8 1_555 1_555
C7B C8 1_555 1_555
C2D C1D 1_555 1_555
O3A Nd1 1_555 1_555
O4A Nd1 1_555 1_555
C6B C7B 1_555 1_555
H7B C7B 1_555 1_555
H8B C7B 1_555 1_555
C3D C2D 1_555 1_555
H1D C2D 1_555 1_555
H2D C2D 1_555 1_555
Nd1A O3 1_555 1_555
Nd1E O3 1_555 1_555
O5B C6B 1_555 1_555
O6B C6B 1_555 1_555
C4D C3D 1_555 1_555
H3D C3D 1_555 1_555
H4D C3D 1_555 1_555
Nd1B O5B 1_555 1_555
C5D C4D 1_555 1_555
H5D C4D 1_555 1_555
H6D C4D 1_555 1_555
O3D C5D 1_555 1_555
O4D C5D 1_555 1_555
Nd1A_2 O3D 1_555 1_555
Nd1E_2 O3D 1_555 1_555
O3A_2 Nd1D 1_555 1_555
O3E_2 Nd1D 1_555 1_555
O4E Nd1D 1_555 1_555
O5D Nd1D 1_555 1_555
O6D Nd1D 1_555 1_555
O7D Nd1D 1_555 1_555
O4 Nd1A 1_555 1_555
O6 C6 1_555 1_555
O1D C1D 1_555 1_555
O1D Nd1D 1_555 1_555
Nd1D O2D 1_555 1_555
O6B Nd1B 1_555 1_555
O4D Nd1E_2 1_555 1_555

#END
