
#######################################################################
#
#                 Cambridge Crystallographic Data Centre
#                                CCDC 
#
#######################################################################
#
# If this CIF has been generated from an entry in the Cambridge 
# Structural Database, then it will include bibliographic, chemical, 
# crystal, experimental, refinement or atomic coordinate data resulting 
# from the CCDC's data processing and validation procedures.
#
#######################################################################

data_FAFMAC
_symmetry_cell_setting           monoclinic
_symmetry_space_group_name_H-M   'P 21/n'
_symmetry_Int_Tables_number      14
_space_group_name_Hall           '-P 2yn'
loop_
_symmetry_equiv_pos_site_id
_symmetry_equiv_pos_as_xyz
1 x,y,z
2 1/2-x,1/2+y,1/2-z
3 -x,-y,-z
4 1/2+x,1/2-y,1/2+z
_cell_length_a                   6.3902(3)
_cell_length_b                   31.1619(14)
_cell_length_c                   10.5428(5)
_cell_angle_alpha                90
_cell_angle_beta                 93.7700(10)
_cell_angle_gamma                90
_cell_volume                     2094.85
loop_
_atom_site_label
_atom_site_type_symbol
_atom_site_fract_x
_atom_site_fract_y
_atom_site_fract_z
Ag1 Ag 0.13588(3) 0.248329(7) 0.41464(2)
S1 S 0.10125(12) 0.34865(2) 0.58448(7)
N1 N 0.4592(4) 0.22064(8) 0.5056(2)
N2 N 0.6664(4) 0.15842(8) 0.5784(2)
N3 N 0.6578(4) 0.22205(8) 0.7126(2)
N4 N 0.8448(4) 0.22375(8) 0.5163(2)
N5 N 0.4014(4) 0.45794(8) 0.4905(3)
O1 O 0.2183(4) 0.32226(7) 0.4994(2)
O2 O 0.1796(3) 0.34385(8) 0.7168(2)
O3 O -0.1264(3) 0.34186(8) 0.5677(2)
C1 C 0.6677(5) 0.17417(10) 0.7101(3)
H1 H 0.7970 0.1644 0.7583
H2 H 0.5459 0.1622 0.7515
C2 C 0.8479(4) 0.17603(10) 0.5185(3)
H3 H 0.8489 0.1651 0.4304
H4 H 0.9781 0.1661 0.5657
C3 C 0.4737(4) 0.17325(10) 0.5065(3)
H5 H 0.3497 0.1612 0.5454
H6 H 0.4730 0.1626 0.4180
C4 C 0.8426(5) 0.23877(10) 0.6501(3)
H7 H 0.9724 0.2291 0.6982
H8 H 0.8402 0.2705 0.6516
C5 C 0.6465(5) 0.23781(11) 0.4468(3)
H9 H 0.6403 0.2696 0.4463
H10 H 0.6454 0.2279 0.3575
C6 C 0.4646(5) 0.23582(10) 0.6391(3)
H11 H 0.4560 0.2675 0.6400
H12 H 0.3411 0.2244 0.6800
C7 C 0.1393(5) 0.40274(10) 0.5410(3)
H13 H 0.0714 0.4077 0.4551
H14 H 0.0703 0.4216 0.6011
C8 C 0.3716(5) 0.41479(10) 0.5409(3)
H15 H 0.4358 0.4132 0.6288
H16 H 0.4443 0.3938 0.4887
C9 C 0.6255(5) 0.46459(11) 0.4722(4)
H17 H 0.6734 0.4428 0.4121
H18 H 0.7076 0.4608 0.5544
C10 C 0.3351(5) 0.49094(11) 0.5792(3)
H19 H 0.4138 0.4873 0.6626
H20 H 0.1839 0.4875 0.5919
O6 O 0.1161(3) 0.16216(8) 0.2719(2)
H25 H -0.0086 0.1606 0.2389
H26 H 0.1941 0.1574 0.2112
Ag1C Ag 0.63588(3) 0.251671(7) 0.91464(2)
Ag1_2 Ag 1.13588(3) 0.248329(7) 0.41464(2)
Ag1B Ag 0.86412(3) 0.751671(7) 0.58536(2)
Ag1B_2 Ag -0.13588(3) 0.751671(7) 0.58536(2)
Ag1A Ag 0.36412(3) 0.748329(7) 0.08536(2)
S1B S 0.89875(12) 0.65135(2) 0.41552(7)
N1B N 0.5408(4) 0.77936(8) 0.4944(2)
N2B N 0.3336(4) 0.84158(8) 0.4216(2)
N3C N 0.1578(4) 0.27795(8) 0.2126(2)
N3A N 0.8422(4) 0.72205(8) 0.7874(2)
N3B N 0.3422(4) 0.77795(8) 0.2874(2)
N4_2 N -0.1552(4) 0.22375(8) 0.5163(2)
N4B N 1.1552(4) 0.77625(8) 0.4837(2)
N4B_2 N 0.1552(4) 0.77625(8) 0.4837(2)
N5B N 0.5986(4) 0.54206(8) 0.5095(3)
O1B O 0.7817(4) 0.67774(7) 0.5006(2)
O2B O 0.8204(3) 0.65615(8) 0.2832(2)
O3B O 1.1264(3) 0.65814(8) 0.4323(2)
C1B C 0.3323(5) 0.82583(10) 0.2899(3)
H1B H 0.2030 0.8356 0.2417
H2B H 0.4541 0.8378 0.2485
C2B C 0.1521(4) 0.82397(10) 0.4815(3)
H3B H 0.1511 0.8349 0.5696
H4B H 0.0219 0.8339 0.4343
C3B C 0.5263(4) 0.82675(10) 0.4935(3)
H5B H 0.6503 0.8388 0.4546
H6B H 0.5270 0.8374 0.5820
C4B C 0.1574(5) 0.76123(10) 0.3499(3)
H7B H 0.0276 0.7709 0.3018
H8B H 0.1598 0.7295 0.3484
C5B C 0.3535(5) 0.76219(11) 0.5532(3)
H9B H 0.3597 0.7304 0.5537
H10B H 0.3546 0.7721 0.6425
C6B C 0.5354(5) 0.76418(10) 0.3609(3)
H11B H 0.5440 0.7325 0.3600
H12B H 0.6589 0.7756 0.3200
C7B C 0.8607(5) 0.59726(10) 0.4590(3)
H13B H 0.9286 0.5923 0.5449
H14B H 0.9297 0.5784 0.3989
C8B C 0.6284(5) 0.58521(10) 0.4591(3)
H15B H 0.5642 0.5868 0.3712
H16B H 0.5557 0.6062 0.5113
C9B C 0.3745(5) 0.53541(11) 0.5278(4)
H17B H 0.3266 0.5572 0.5879
H18B H 0.2924 0.5392 0.4456
C10B C 0.6649(5) 0.50906(11) 0.4208(3)
H19B H 0.5862 0.5127 0.3374
H20B H 0.8161 0.5125 0.4081
O6B O 0.8839(3) 0.83784(8) 0.7281(2)
H25B H 1.0086 0.8394 0.7611
H26B H 0.8059 0.8426 0.7888
O4 O 0.4568(4) 0.04603(8) 0.3106(3)
H21 H 0.5558 0.0495 0.3675
H22 H 0.4408 0.0191 0.3028
O5 O 0.2790(4) 0.08554(9) 0.6904(2)
H23 H 0.3915 0.0715 0.7074
H24 H 0.2502 0.0829 0.6109
O7 O 0.1721(4) 0.15996(8) 0.8148(2)
H27 H 0.2008 0.1357 0.7833
H28 H 0.2189 0.1594 0.8921
O8 O 0.6491(4) 0.03766(8) 0.7523(2)
H29 H 0.7232 0.0437 0.6906
H30 H 0.7334 0.0362 0.8179
O9 O 0.7489(4) 0.06993(8) 0.5165(2)
H31 H 0.7354 0.0955 0.5429
H32 H 0.8709 0.0679 0.4896
O10 O 0.1417(4) 0.08731(8) 0.4260(2)
H33 H 0.1153 0.1082 0.3756
H34 H 0.2414 0.0737 0.3945
loop_
_geom_bond_atom_site_label_1
_geom_bond_atom_site_label_2
_geom_bond_site_symmetry_1
_geom_bond_site_symmetry_2
Ag1 N1 1_555 1_555
S1 O1 1_555 1_555
N1 C3 1_555 1_555
N2 C1 1_555 1_555
N3 C1 1_555 1_555
N4 C2 1_555 1_555
N5 C8 1_555 1_555
O1 Ag1 1_555 1_555
O2 S1 1_555 1_555
O3 S1 1_555 1_555
C1 H1 1_555 1_555
H2 C1 1_555 1_555
C2 N2 1_555 1_555
H3 C2 1_555 1_555
H4 C2 1_555 1_555
C3 N2 1_555 1_555
H5 C3 1_555 1_555
H6 C3 1_555 1_555
C4 N3 1_555 1_555
H7 C4 1_555 1_555
H8 C4 1_555 1_555
C5 N1 1_555 1_555
H9 C5 1_555 1_555
H10 C5 1_555 1_555
C6 N1 1_555 1_555
H11 C6 1_555 1_555
H12 C6 1_555 1_555
C7 S1 1_555 1_555
H13 C7 1_555 1_555
H14 C7 1_555 1_555
C8 C7 1_555 1_555
H15 C8 1_555 1_555
H16 C8 1_555 1_555
C9 N5 1_555 1_555
H17 C9 1_555 1_555
H18 C9 1_555 1_555
C10 N5 1_555 1_555
H19 C10 1_555 1_555
H20 C10 1_555 1_555
O4 H21 1_555 1_555
H22 O4 1_555 1_555
O5 H23 1_555 1_555
H24 O5 1_555 1_555
O6 Ag1 1_555 1_555
H25 O6 1_555 1_555
H26 O6 1_555 1_555
O7 H27 1_555 1_555
H28 O7 1_555 1_555
O8 H29 1_555 1_555
H30 O8 1_555 1_555
O9 H31 1_555 1_555
H32 O9 1_555 1_555
O10 H33 1_555 1_555
H34 O10 1_555 1_555
Ag1C N3 1_555 1_555
Ag1_2 N4 1_555 1_555
Ag1B N1B 1_555 1_555
Ag1B_2 N4B_2 1_555 1_555
Ag1A N3B 1_555 1_555
S1B O1B 1_555 1_555
N1B C3B 1_555 1_555
N2B C1B 1_555 1_555
N3C Ag1 1_555 1_555
N3A Ag1B 1_555 1_555
N3B C1B 1_555 1_555
N4_2 Ag1 1_555 1_555
N4B Ag1B 1_555 1_555
N4B_2 C2B 1_555 1_555
N5B C8B 1_555 1_555
O1B Ag1B 1_555 1_555
O2B S1B 1_555 1_555
O3B S1B 1_555 1_555
C1B H1B 1_555 1_555
H2B C1B 1_555 1_555
C2B N2B 1_555 1_555
H3B C2B 1_555 1_555
H4B C2B 1_555 1_555
C3B N2B 1_555 1_555
H5B C3B 1_555 1_555
H6B C3B 1_555 1_555
C4B N3B 1_555 1_555
H7B C4B 1_555 1_555
H8B C4B 1_555 1_555
C5B N1B 1_555 1_555
H9B C5B 1_555 1_555
H10B C5B 1_555 1_555
C6B N1B 1_555 1_555
H11B C6B 1_555 1_555
H12B C6B 1_555 1_555
C7B S1B 1_555 1_555
H13B C7B 1_555 1_555
H14B C7B 1_555 1_555
C8B C7B 1_555 1_555
H15B C8B 1_555 1_555
H16B C8B 1_555 1_555
C9B C10 1_555 1_555
H17B C9B 1_555 1_555
H18B C9B 1_555 1_555
C10B C9 1_555 1_555
H19B C10B 1_555 1_555
H20B C10B 1_555 1_555
O6B Ag1B 1_555 1_555
H25B O6B 1_555 1_555
H26B O6B 1_555 1_555
N3 C6 1_555 1_555
N4 C4 1_555 1_555
N4 C5 1_555 1_555
N3B C6B 1_555 1_555
N4B_2 C4B 1_555 1_555
N4B_2 C5B 1_555 1_555
N5B C9B 1_555 1_555
N5B C10B 1_555 1_555

#END
