
#######################################################################
#
#                 Cambridge Crystallographic Data Centre
#                                CCDC 
#
#######################################################################
#
# If this CIF has been generated from an entry in the Cambridge 
# Structural Database, then it will include bibliographic, chemical, 
# crystal, experimental, refinement or atomic coordinate data resulting 
# from the CCDC's data processing and validation procedures.
#
#######################################################################

data_FAGFUQ
_symmetry_cell_setting           triclinic
_symmetry_space_group_name_H-M   'P -1'
_symmetry_Int_Tables_number      2
_space_group_name_Hall           '-P 1'
loop_
_symmetry_equiv_pos_site_id
_symmetry_equiv_pos_as_xyz
1 x,y,z
2 -x,-y,-z
_cell_length_a                   12.036(3)
_cell_length_b                   15.301(4)
_cell_length_c                   16.906(5)
_cell_angle_alpha                108.300(5)
_cell_angle_beta                 101.394(4)
_cell_angle_gamma                102.280(5)
_cell_volume                     2768.63
loop_
_atom_site_label
_atom_site_type_symbol
_atom_site_fract_x
_atom_site_fract_y
_atom_site_fract_z
C1 C 1.0175(2) 0.9078(2) 0.62814(18)
C2 C 0.9994(2) 0.8523(2) 0.68737(18)
H1 H 0.9601 0.8823 0.7286
H2 H 0.9507 0.7864 0.6535
C3 C 1.1213(2) 0.8075(2) 0.78825(18)
C4 C 1.2327(3) 0.8112(2) 0.8305(2)
H3 H 1.2980 0.8462 0.8204
C5 C 1.2511(3) 0.7639(2) 0.88842(18)
H4 H 1.3273 0.7665 0.9160
C6 C 1.1539(3) 0.7136(2) 0.90354(19)
C7 C 1.0462(3) 0.7062(2) 0.86088(18)
H5 H 0.9825 0.6669 0.8689
C8 C 1.0206(2) 0.7555(2) 0.80226(18)
H6 H 0.9439 0.7529 0.7759
C9 C 1.1691(2) 0.6603(2) 0.96308(18)
C10 C 0.8956(3) 0.9092(2) 0.58159(19)
H7 H 0.8626 0.9471 0.6232
H8 H 0.9030 0.9382 0.5388
C11 C 0.7366(2) 0.7856(2) 0.46392(19)
C12 C 0.6813(3) 0.6873(2) 0.4199(2)
H9 H 0.7041 0.6455 0.4450
C13 C 0.5958(3) 0.6486(2) 0.3420(2)
H10 H 0.5578 0.5827 0.3156
C14 C 0.5681(2) 0.7126(2) 0.30402(18)
C15 C 0.6174(2) 0.8100(2) 0.34556(19)
H11 H 0.5943 0.8513 0.3199
C16 C 0.7001(2) 0.8466(2) 0.42423(18)
H12 H 0.7330 0.9129 0.4521
C17 C 0.4795(3) 0.6712(2) 0.21407(18)
C18 C 1.0729(3) 0.8553(2) 0.56200(18)
H13 H 1.1511 0.8569 0.5922
H14 H 1.0252 0.7884 0.5340
C19 C 1.0838(3) 0.8269(2) 0.42290(19)
C20 C 0.9878(3) 0.7490(2) 0.3665(2)
H15 H 0.9169 0.7367 0.3809
C21 C 0.9977(3) 0.6894(2) 0.2887(2)
H16 H 0.9335 0.6372 0.2510
C22 C 1.1037(2) 0.70772(19) 0.26727(16)
C23 C 1.1998(3) 0.7857(2) 0.3236(2)
H17 H 1.2707 0.7980 0.3093
C24 C 1.1898(3) 0.8453(2) 0.4015(2)
H18 H 1.2541 0.8975 0.4392
C25 C 1.1270(2) 0.64719(19) 0.18649(17)
C26 C 1.0938(2) 1.00779(18) 0.68036(16)
H19 H 1.1728 1.0075 0.7070
H20 H 1.1000 1.0448 0.6434
C27 C 1.0943(2) 1.1416(2) 0.80131(18)
C28 C 1.0357(2) 1.1784(2) 0.86148(18)
H21 H 0.9645 1.1397 0.8612
C29 C 1.0818(2) 1.27137(19) 0.92128(17)
H22 H 1.0421 1.2948 0.9614
C30 C 1.1885(2) 1.3309(2) 0.92198(18)
C31 C 1.2485(2) 1.2920(2) 0.86337(18)
H23 H 1.3220 1.3291 0.8656
C32 C 1.1994(2) 1.1974(2) 0.80087(18)
H24 H 1.2378 1.1733 0.7600
C33 C 1.2354(2) 1.43197(19) 0.98231(16)
Co1 Co 1.0000 0.5000 1.0000
Co2 Co 0.29708(3) 0.60374(3) 0.08920(2)
O1 O 1.11353(17) 0.85407(14) 0.73171(12)
O2 O 1.07729(15) 0.61891(12) 0.97565(11)
O3 O 1.27418(16) 0.66131(14) 0.99725(13)
O4 O 0.81976(18) 0.81335(14) 0.54031(13)
O5 O 0.42236(17) 0.58659(14) 0.18511(13)
O6 O 0.46043(17) 0.72713(15) 0.17453(13)
O7 O 1.08313(18) 0.89274(13) 0.49955(12)
O8 O 1.22477(16) 0.66933(13) 0.17530(12)
O9 O 1.03197(16) 0.57788(13) 0.12968(12)
H25 H 0.9792 0.6027 0.1134
O10 O 1.04186(17) 1.04955(14) 0.74549(13)
O11 O 1.17123(15) 1.47088(12) 1.02658(12)
O12 O 1.33779(16) 1.48089(13) 0.98965(12)
C1A C 0.9825(2) 0.0922(2) 1.37186(18)
C2A C 1.0006(2) 0.1477(2) 1.31263(18)
H1A H 1.0399 0.1177 1.2714
H2A H 1.0493 0.2136 1.3465
C3A C 0.8787(2) 0.1925(2) 1.21175(18)
C4A C 0.7673(3) 0.1888(2) 1.1695(2)
H3A H 0.7020 0.1538 1.1796
C5A C 0.7489(3) 0.2361(2) 1.11158(18)
H4A H 0.6727 0.2335 1.0840
C6A C 0.8461(3) 0.2864(2) 1.09646(19)
C7A C 0.9538(3) 0.2938(2) 1.13912(18)
H5A H 1.0175 0.3331 1.1311
C8A C 0.9794(2) 0.2445(2) 1.19774(18)
H6A H 1.0561 0.2471 1.2241
C9A C 0.8309(2) 0.3397(2) 1.03692(18)
C10A C 1.1044(3) 0.0908(2) 1.41841(19)
H7A H 1.1374 0.0529 1.3768
H8A H 1.0970 0.0618 1.4612
C11A C 1.2634(2) 0.2144(2) 1.53608(19)
C12A C 1.3187(3) 0.3127(2) 1.5801(2)
H9A H 1.2959 0.3545 1.5550
C13A C 1.4042(3) 0.3514(2) 1.6580(2)
H10A H 1.4422 0.4173 1.6844
C14A C 1.4319(2) 0.2874(2) 1.69598(18)
C15A C 1.3826(2) 0.1900(2) 1.65444(19)
H11A H 1.4057 0.1487 1.6801
C16A C 1.2999(2) 0.1534(2) 1.57577(18)
H12A H 1.2670 0.0871 1.5479
C17A C 1.5205(3) 0.3288(2) 1.78593(18)
C18A C 0.9271(3) 0.1447(2) 1.43800(18)
H13A H 0.8489 0.1431 1.4078
H14A H 0.9748 0.2116 1.4660
C19A C 0.9162(3) 0.1731(2) 1.57710(19)
C20A C 1.0122(3) 0.2510(2) 1.6335(2)
H15A H 1.0831 0.2633 1.6191
C21A C 1.0023(3) 0.3106(2) 1.7113(2)
H16A H 1.0665 0.3628 1.7490
C22A C 0.8963(2) 0.29228(19) 1.73273(16)
C23A C 0.8002(3) 0.2143(2) 1.6764(2)
H17A H 0.7293 0.2020 1.6907
C24A C 0.8102(3) 0.1547(2) 1.5985(2)
H18A H 0.7459 0.1025 1.5608
C25A C 0.8730(2) 0.35281(19) 1.81351(17)
C26A C 0.9062(2) -0.00779(18) 1.31964(16)
H19A H 0.8272 -0.0075 1.2930
H20A H 0.9000 -0.0448 1.3566
C27A C 0.9057(2) -0.1416(2) 1.19869(18)
C28A C 0.9643(2) -0.1784(2) 1.13852(18)
H21A H 1.0355 -0.1397 1.1388
C29A C 0.9182(2) -0.27137(19) 1.07872(17)
H22A H 0.9579 -0.2948 1.0386
C30A C 0.8115(2) -0.3309(2) 1.07802(18)
C31A C 0.7515(2) -0.2920(2) 1.13663(18)
H23A H 0.6780 -0.3291 1.1344
C32A C 0.8006(2) -0.1974(2) 1.19913(18)
H24A H 0.7622 -0.1733 1.2400
C33A C 0.7646(2) -0.43197(19) 1.01769(16)
Co1_2 Co 1.0000 0.5000 0.0000
Co1_3 Co 1.0000 1.5000 1.0000
Co1_4 Co 1.0000 0.5000 2.0000
Co1_5 Co 1.0000 -0.5000 1.0000
Co2A Co 1.70292(3) 0.39626(3) 1.91080(2)
Co2_2 Co 1.29708(3) 0.60374(3) 1.08920(2)
Co2_3 Co 1.29708(3) 0.60374(3) 0.08920(2)
Co2_4 Co 1.29708(3) 1.60374(3) 1.08920(2)
Co2A_2 Co 0.70292(3) 0.39626(3) 0.91080(2)
Co2A_3 Co 0.70292(3) 0.39626(3) 1.91080(2)
Co2A_4 Co 0.70292(3) -0.60374(3) 0.91080(2)
O1A O 0.88647(17) 0.14593(14) 1.26829(12)
O2A O 0.92271(15) 0.38109(12) 1.02435(11)
O3A O 0.72582(16) 0.33869(14) 1.00275(13)
O3_2 O 0.27418(16) 0.66131(14) -0.00275(13)
O3A_2 O 1.72582(16) 0.33869(14) 2.00275(13)
O4A O 1.18024(18) 0.18665(14) 1.45969(13)
O5A O 1.57764(17) 0.41341(14) 1.81489(13)
O6A O 1.53957(17) 0.27287(15) 1.82547(13)
O7A O 0.91687(18) 0.10726(13) 1.50045(12)
O8A O 0.77523(16) 0.33067(13) 1.82470(12)
O8_2 O 0.22477(16) 0.66933(13) 0.17530(12)
O8A_2 O 1.77523(16) 0.33067(13) 1.82470(12)
O9A O 0.96803(16) 0.42212(13) 1.87032(12)
O9_2 O 1.03197(16) 0.57788(13) 1.12968(12)
O9A_2 O 0.96803(16) 0.42212(13) 0.87032(12)
H25A H 1.0208 0.3973 1.8866
H25_2 H 0.9792 0.6027 1.1134
H25A_2 H 1.0208 0.3973 0.8866
O10A O 0.95814(17) -0.04955(14) 1.25451(13)
O11A O 0.82877(15) -0.47088(12) 0.97342(12)
O11_2 O 1.17123(15) 0.47088(12) 1.02658(12)
O11A_2 O 0.82877(15) 0.52912(12) 0.97342(12)
O11_3 O 0.17123(15) 0.47088(12) 0.02658(12)
O11A_3 O 1.82877(15) 0.52912(12) 1.97342(12)
O12A O 0.66221(16) -0.48089(13) 1.01035(12)
O12_2 O 0.33779(16) 0.48089(13) -0.01035(12)
O12A_2 O 1.66221(16) 0.51911(13) 2.01035(12)
loop_
_geom_bond_atom_site_label_1
_geom_bond_atom_site_label_2
_geom_bond_site_symmetry_1
_geom_bond_site_symmetry_2
C1 C2 1_555 1_555
C2 H1 1_555 1_555
H2 C2 1_555 1_555
C3 C4 1_555 1_555
C4 H3 1_555 1_555
C5 C4 1_555 1_555
H4 C5 1_555 1_555
C6 C5 1_555 1_555
C7 C6 1_555 1_555
H5 C7 1_555 1_555
C8 C3 1_555 1_555
H6 C8 1_555 1_555
C9 C6 1_555 1_555
C10 C1 1_555 1_555
H7 C10 1_555 1_555
H8 C10 1_555 1_555
C11 C12 1_555 1_555
C12 H9 1_555 1_555
C13 C12 1_555 1_555
H10 C13 1_555 1_555
C14 C13 1_555 1_555
C15 C14 1_555 1_555
H11 C15 1_555 1_555
C16 C11 1_555 1_555
H12 C16 1_555 1_555
C17 C14 1_555 1_555
C18 C1 1_555 1_555
H13 C18 1_555 1_555
H14 C18 1_555 1_555
C19 C20 1_555 1_555
C20 H15 1_555 1_555
C21 C20 1_555 1_555
H16 C21 1_555 1_555
C22 C21 1_555 1_555
C23 C22 1_555 1_555
H17 C23 1_555 1_555
C24 C19 1_555 1_555
H18 C24 1_555 1_555
C25 C22 1_555 1_555
C26 C1 1_555 1_555
H19 C26 1_555 1_555
H20 C26 1_555 1_555
C27 C28 1_555 1_555
C28 H21 1_555 1_555
C29 C28 1_555 1_555
H22 C29 1_555 1_555
C30 C29 1_555 1_555
C31 C30 1_555 1_555
H23 C31 1_555 1_555
C32 C27 1_555 1_555
H24 C32 1_555 1_555
C33 C30 1_555 1_555
Co1 O2 1_555 1_555
Co2 O5 1_555 1_555
O1 C2 1_555 1_555
O2 C9 1_555 1_555
O3 C9 1_555 1_555
O4 C10 1_555 1_555
O5 C17 1_555 1_555
O6 C17 1_555 1_555
O7 C18 1_555 1_555
O8 C25 1_555 1_555
O9 C25 1_555 1_555
H25 O9 1_555 1_555
O10 C26 1_555 1_555
O11 C33 1_555 1_555
O12 C33 1_555 1_555
C1A C2A 1_555 1_555
C2A H1A 1_555 1_555
H2A C2A 1_555 1_555
C3A C4A 1_555 1_555
C4A H3A 1_555 1_555
C5A C4A 1_555 1_555
H4A C5A 1_555 1_555
C6A C5A 1_555 1_555
C7A C6A 1_555 1_555
H5A C7A 1_555 1_555
C8A C3A 1_555 1_555
H6A C8A 1_555 1_555
C9A C6A 1_555 1_555
C10A C1A 1_555 1_555
H7A C10A 1_555 1_555
H8A C10A 1_555 1_555
C11A C12A 1_555 1_555
C12A H9A 1_555 1_555
C13A C12A 1_555 1_555
H10A C13A 1_555 1_555
C14A C13A 1_555 1_555
C15A C14A 1_555 1_555
H11A C15A 1_555 1_555
C16A C11A 1_555 1_555
H12A C16A 1_555 1_555
C17A C14A 1_555 1_555
C18A C1A 1_555 1_555
H13A C18A 1_555 1_555
H14A C18A 1_555 1_555
C19A C20A 1_555 1_555
C20A H15A 1_555 1_555
C21A C20A 1_555 1_555
H16A C21A 1_555 1_555
C22A C21A 1_555 1_555
C23A C22A 1_555 1_555
H17A C23A 1_555 1_555
C24A C19A 1_555 1_555
H18A C24A 1_555 1_555
C25A C22A 1_555 1_555
C26A C1A 1_555 1_555
H19A C26A 1_555 1_555
H20A C26A 1_555 1_555
C27A C28A 1_555 1_555
C28A H21A 1_555 1_555
C29A C28A 1_555 1_555
H22A C29A 1_555 1_555
C30A C29A 1_555 1_555
C31A C30A 1_555 1_555
H23A C31A 1_555 1_555
C32A C27A 1_555 1_555
H24A C32A 1_555 1_555
C33A C30A 1_555 1_555
Co1_2 O9 1_555 1_555
Co1_3 O11 1_555 1_555
Co1_4 O9A 1_555 1_555
Co1_5 O11A 1_555 1_555
Co2A O3A_2 1_555 1_555
Co2_2 O3 1_555 1_555
Co2_3 O8 1_555 1_555
Co2_4 O11 1_555 1_555
Co2A_2 O3A 1_555 1_555
Co2A_3 O8A 1_555 1_555
Co2A_4 O11A 1_555 1_555
O1A C2A 1_555 1_555
O2A Co1 1_555 1_555
O3A C9A 1_555 1_555
O3_2 Co2 1_555 1_555
O4A C10A 1_555 1_555
O5A C17A 1_555 1_555
O6A C17A 1_555 1_555
O7A C18A 1_555 1_555
O8A C25A 1_555 1_555
O8_2 Co2 1_555 1_555
O8A_2 Co2A 1_555 1_555
O9A C25A 1_555 1_555
O9_2 Co1 1_555 1_555
O9A_2 Co1 1_555 1_555
H25A O9A 1_555 1_555
H25_2 O9_2 1_555 1_555
H25A_2 O9A_2 1_555 1_555
O10A C26A 1_555 1_555
O11A C33A 1_555 1_555
O11_2 Co1 1_555 1_555
O11A_2 Co1 1_555 1_555
O11_3 Co2 1_555 1_555
O11A_3 Co2A 1_555 1_555
O12A C33A 1_555 1_555
O12_2 Co2 1_555 1_555
O12A_2 Co2A 1_555 1_555
C3 O1 1_555 1_555
C7 C8 1_555 1_555
C11 O4 1_555 1_555
C15 C16 1_555 1_555
C19 O7 1_555 1_555
C23 C24 1_555 1_555
C27 O10 1_555 1_555
C31 C32 1_555 1_555
Co2 O6 1_555 1_555
O12 Co2_4 1_555 1_555
C3A O1A 1_555 1_555
C7A C8A 1_555 1_555
C9A O2A 1_555 1_555
C11A O4A 1_555 1_555
C15A C16A 1_555 1_555
C19A O7A 1_555 1_555
C23A C24A 1_555 1_555
C27A O10A 1_555 1_555
C31A C32A 1_555 1_555
Co2A O5A 1_555 1_555
Co2A O6A 1_555 1_555
Co2_2 O11_2 1_555 1_555
Co2A_2 O11A_2 1_555 1_555
Co2A_4 O12A 1_555 1_555

#END
