
#######################################################################
#
#                 Cambridge Crystallographic Data Centre
#                                CCDC 
#
#######################################################################
#
# If this CIF has been generated from an entry in the Cambridge 
# Structural Database, then it will include bibliographic, chemical, 
# crystal, experimental, refinement or atomic coordinate data resulting 
# from the CCDC's data processing and validation procedures.
#
#######################################################################

data_FAHFUR
_symmetry_cell_setting           tetragonal
_symmetry_space_group_name_H-M   'P 42/m n m'
_symmetry_Int_Tables_number      136
_space_group_name_Hall           '-P 4n 2n'
loop_
_symmetry_equiv_pos_site_id
_symmetry_equiv_pos_as_xyz
1 x,y,z
2 -x,-y,z
3 1/2-y,1/2+x,1/2+z
4 1/2+y,1/2-x,1/2+z
5 1/2-x,1/2+y,1/2-z
6 1/2+x,1/2-y,1/2-z
7 y,x,-z
8 -y,-x,-z
9 -x,-y,-z
10 x,y,-z
11 1/2+y,1/2-x,1/2-z
12 1/2-y,1/2+x,1/2-z
13 1/2+x,1/2-y,1/2+z
14 1/2-x,1/2+y,1/2+z
15 -y,-x,z
16 y,x,z
_cell_length_a                   18.9009(5)
_cell_length_b                   18.9009(5)
_cell_length_c                   10.2570(3)
_cell_angle_alpha                90
_cell_angle_beta                 90
_cell_angle_gamma                90
_cell_volume                     3664.25
loop_
_atom_site_label
_atom_site_type_symbol
_atom_site_fract_x
_atom_site_fract_y
_atom_site_fract_z
Be1 Be 0.8175(3) 0.0706(3) 0.1312(4)
O1 O 0.8314(2) 0.02925(18) 0.0000
H1 H 0.8471 -0.0174 0.0000
O2 O 0.88325(11) 0.11675(11) 0.1726(3)
H2 H 0.9015 0.0985 0.2498
O3 O 0.79977(14) 0.02288(13) 0.2582(2)
O4 O 0.7377(3) -0.0576(3) 0.1549(3)
O5 O 0.62565(15) -0.25182(13) 0.3902(2)
C1 C 0.7597(3) -0.0319(3) 0.2552(4)
C2 C 0.6428(3) -0.2243(3) 0.5000
C3 C 0.6849(3) -0.1593(3) 0.5000
C4 C 0.7428(2) -0.0659(2) 0.3819(3)
C5 C 0.7039(2) -0.1271(2) 0.3840(4)
H3 H 0.6900 -0.1474 0.3055
C6 C 0.7614(3) -0.0350(3) 0.5000
H4 H 0.7868 0.0072 0.5000
Be1I Be 0.8175(3) 0.0706(3) 0.8688(4)
Be1I_2 Be 0.8175(3) 0.0706(3) -0.1312(4)
Be1N Be 0.9294(3) 0.1825(3) 0.1312(4)
Be1J Be 0.5706(3) -0.3175(3) 0.3688(4)
Be1C Be 0.5706(3) -0.3175(3) 0.6312(4)
O1_2 O 0.8314(2) 0.02925(18) 1.0000
H1_2 H 0.8471 -0.0174 1.0000
O2G O 0.88325(11) 0.11675(11) 0.8274(3)
H2G H 0.9015 0.0985 0.7502
O3I O 0.79977(14) 0.02288(13) 0.7418(2)
O4I O 0.7377(3) -0.0576(3) 0.8451(3)
O5I O 0.62565(15) -0.25182(13) 0.6098(2)
O5K O 0.75182(13) 0.12565(15) 0.1098(2)
O5B O 0.75182(13) 0.12565(15) 0.8902(2)
C1I C 0.7597(3) -0.0319(3) 0.7448(4)
C4I C 0.7428(2) -0.0659(2) 0.6181(3)
C5I C 0.7039(2) -0.1271(2) 0.6160(4)
H3I H 0.6900 -0.1474 0.6945
loop_
_geom_bond_atom_site_label_1
_geom_bond_atom_site_label_2
_geom_bond_site_symmetry_1
_geom_bond_site_symmetry_2
Be1 O1 1_555 1_555
O1 H1 1_555 1_555
O2 Be1 1_555 1_555
H2 O2 1_555 1_555
O3 Be1 1_555 1_555
O4 C1 1_555 1_555
O5 C2 1_555 1_555
C1 O3 1_555 1_555
C2 C3 1_555 1_555
C3 C5 1_555 1_555
C4 C1 1_555 1_555
C5 C4 1_555 1_555
H3 C5 1_555 1_555
C6 C4 1_555 1_555
H4 C6 1_555 1_555
Be1I O1_2 1_555 1_555
Be1I_2 O1 1_555 1_555
Be1N O2 1_555 1_555
Be1J O5 1_555 1_555
Be1C O5I 1_555 1_555
O1_2 H1_2 1_555 1_555
O2G Be1I 1_555 1_555
H2G O2G 1_555 1_555
O3I Be1I 1_555 1_555
O4I C1I 1_555 1_555
O5I C2 1_555 1_555
O5K Be1 1_555 1_555
O5B Be1I 1_555 1_555
C1I O3I 1_555 1_555
C4I C6 1_555 1_555
C5I C3 1_555 1_555
H3I C5I 1_555 1_555
C1I C4I 1_555 1_555
C4I C5I 1_555 1_555

#END
