
#######################################################################
#
#                 Cambridge Crystallographic Data Centre
#                                CCDC 
#
#######################################################################
#
# If this CIF has been generated from an entry in the Cambridge 
# Structural Database, then it will include bibliographic, chemical, 
# crystal, experimental, refinement or atomic coordinate data resulting 
# from the CCDC's data processing and validation procedures.
#
#######################################################################

data_FANQER
_symmetry_cell_setting           monoclinic
_symmetry_space_group_name_H-M   'P 21/n'
_symmetry_Int_Tables_number      14
_space_group_name_Hall           '-P 2yn'
loop_
_symmetry_equiv_pos_site_id
_symmetry_equiv_pos_as_xyz
1 x,y,z
2 1/2-x,1/2+y,1/2-z
3 -x,-y,-z
4 1/2+x,1/2-y,1/2+z
_cell_length_a                   7.247(2)
_cell_length_b                   14.983(5)
_cell_length_c                   22.489(7)
_cell_angle_alpha                90
_cell_angle_beta                 90.905(3)
_cell_angle_gamma                90
_cell_volume                     2441.59
loop_
_atom_site_label
_atom_site_type_symbol
_atom_site_fract_x
_atom_site_fract_y
_atom_site_fract_z
W1 W 0.76222(3) 0.713770(10) 0.321800(10)
Mn1 Mn 0.24665(11) 0.47324(5) 0.23323(4)
Mn2 Mn 0.5000 0.5000 0.5000
O1 O 0.2305(7) 0.5368(4) 0.1480(2)
O2 O 0.7107(9) 0.4015(5) 0.5012(3)
N1 N 0.4314(7) 0.5824(3) 0.2679(2)
N2 N 0.0669(7) 0.3606(4) 0.2042(3)
N3 N 0.4868(7) 0.3931(4) 0.2064(2)
N4 N 0.0028(8) 0.5457(4) 0.2661(3)
N5 N 0.6376(8) 0.5743(4) 0.4275(2)
N6 N 0.7128(9) 0.8302(5) 0.4453(3)
N7 N 1.1496(9) 0.6867(5) 0.3985(3)
N8 N 0.7526(10) 0.7478(6) 0.1761(3)
N9 N 0.2791(7) 0.4014(4) 0.3251(2)
N10 N 0.3587(8) 0.4139(4) 0.4271(2)
C1 C 0.5428(8) 0.6306(4) 0.2869(3)
C2 C 0.5423(8) 0.8087(4) 0.3066(3)
C3 C 0.9254(7) 0.8310(4) 0.3035(3)
C4 C 0.9139(8) 0.6028(4) 0.2856(3)
C5 C 0.6832(8) 0.6208(4) 0.3905(3)
C6 C 0.7288(9) 0.7905(4) 0.4026(3)
C7 C 1.0161(9) 0.6975(4) 0.3726(3)
C8 C 0.7580(9) 0.7341(4) 0.2265(3)
C9 C 0.3201(8) 0.4478(4) 0.3739(3)
C10 C 0.3496(11) 0.3246(5) 0.4327(3)
C11 C 0.3018(12) 0.2718(5) 0.3853(4)
C12 C 0.2702(11) 0.3128(5) 0.3304(3)
H1 H 0.3214(8) 0.5110(4) 0.3703(3)
H2 H 0.3769(11) 0.2978(5) 0.4701(3)
H3 H 0.2903(12) 0.2090(5) 0.3897(4)
H4 H 0.2417(11) 0.2773(5) 0.2965(3)
H9 H 0.323(8) 0.542(8) 0.119(3)
H10 H 0.115(5) 0.550(6) 0.130(3)
H11 H 0.805(8) 0.419(10) 0.475(4)
H12 H 0.765(9) 0.374(5) 0.535(2)
W1A W -0.26222(3) 0.213770(10) 0.178200(10)
W1B W 0.23778(3) 0.286230(10) 0.678200(10)
W1A_2 W 0.73778(3) 0.213770(10) 0.178200(10)
W1_2 W -0.23778(3) 0.713770(10) 0.321800(10)
Mn1_2 Mn 1.24665(11) 0.47324(5) 0.23323(4)
Mn1B Mn 0.75335(11) 0.52676(5) 0.76677(4)
Mn1A Mn 0.25335(11) 0.97324(5) 0.26677(4)
Mn1A_2 Mn 1.25335(11) 0.97324(5) 0.26677(4)
O1B O 0.7695(7) 0.4632(4) 0.8520(2)
O2B O 0.2893(9) 0.5985(5) 0.4988(3)
N1B N 0.5686(7) 0.4176(3) 0.7321(2)
N2B N 0.9331(7) 0.6394(4) 0.7958(3)
N2A N 0.4331(7) 0.8606(4) 0.2958(3)
N3B N 0.5132(7) 0.6069(4) 0.7936(2)
N3A N 1.0132(7) 0.8931(4) 0.2936(2)
N4_2 N 1.0028(8) 0.5457(4) 0.2661(3)
N4B N 0.9972(8) 0.4543(4) 0.7339(3)
N5B N 0.3624(8) 0.4257(4) 0.5725(2)
N6B N 0.2872(9) 0.1698(5) 0.5547(3)
N7B N -0.1496(9) 0.3133(5) 0.6015(3)
N8B N 0.2474(10) 0.2522(6) 0.8239(3)
N9B N 0.7209(7) 0.5986(4) 0.6749(2)
N10B N 0.6413(8) 0.5861(4) 0.5729(2)
C1B C 0.4572(8) 0.3694(4) 0.7131(3)
C2A C -0.0423(8) 0.3087(4) 0.1934(3)
C2B C 0.4577(8) 0.1913(4) 0.6934(3)
C3B C 0.0746(7) 0.1690(4) 0.6965(3)
C3A C 0.5746(7) 0.3310(4) 0.1965(3)
C4B C 0.0861(8) 0.3972(4) 0.7144(3)
C4_2 C -0.0861(8) 0.6028(4) 0.2856(3)
C5B C 0.3168(8) 0.3792(4) 0.6095(3)
C6B C 0.2712(9) 0.2095(4) 0.5974(3)
C7B C -0.0161(9) 0.3025(4) 0.6274(3)
C8B C 0.2420(9) 0.2659(4) 0.7735(3)
C9B C 0.6799(8) 0.5522(4) 0.6261(3)
C10B C 0.6504(11) 0.6754(5) 0.5673(3)
C11B C 0.6982(12) 0.7282(5) 0.6147(4)
C12B C 0.7298(11) 0.6872(5) 0.6696(3)
H1B H 0.6786(8) 0.4890(4) 0.6297(3)
H2B H 0.6231(11) 0.7022(5) 0.5299(3)
H3B H 0.7097(12) 0.7910(5) 0.6103(4)
H4B H 0.7583(11) 0.7227(5) 0.7035(3)
H9B H 0.677(8) 0.458(8) 0.881(3)
H10B H 0.885(5) 0.450(6) 0.870(3)
H11B H 0.195(8) 0.581(10) 0.525(4)
H12B H 0.235(9) 0.626(5) 0.465(2)
O3 O 0.8790(10) 0.3893(5) 0.3958(3)
N11 N 0.5634(8) 0.5627(5) 0.0877(3)
N12 N 0.8901(8) 0.5582(4) 0.0874(3)
C13 C 0.7278(9) 0.5445(5) 0.1116(3)
C14 C 0.8887(11) 0.5945(6) 0.0340(4)
C15 C 0.725(1) 0.6170(8) 0.0055(4)
C16 C 0.5636(13) 0.6000(7) 0.0345(4)
H5 H 0.7287(9) 0.5193(5) 0.1503(3)
H6 H 1.0024(11) 0.6054(6) 0.0148(4)
H7 H 0.724(1) 0.6437(8) -0.0328(4)
H8 H 0.4496(13) 0.6151(7) 0.0157(4)
loop_
_geom_bond_atom_site_label_1
_geom_bond_atom_site_label_2
_geom_bond_site_symmetry_1
_geom_bond_site_symmetry_2
W1 C1 1_555 1_555
Mn1 O1 1_555 1_555
Mn2 O2 1_555 1_555
O1 H9 1_555 1_555
O2 H11 1_555 1_555
N1 Mn1 1_555 1_555
N2 Mn1 1_555 1_555
N3 Mn1 1_555 1_555
N4 Mn1 1_555 1_555
N5 Mn2 1_555 1_555
N6 C6 1_555 1_555
N7 C7 1_555 1_555
N8 C8 1_555 1_555
N9 Mn1 1_555 1_555
N10 Mn2 1_555 1_555
N11 C13 1_555 1_555
N12 C13 1_555 1_555
C1 N1 1_555 1_555
C2 W1 1_555 1_555
C3 W1 1_555 1_555
C4 W1 1_555 1_555
C5 W1 1_555 1_555
C6 W1 1_555 1_555
C7 W1 1_555 1_555
C8 W1 1_555 1_555
C9 N9 1_555 1_555
C10 N10 1_555 1_555
C11 C10 1_555 1_555
C12 N9 1_555 1_555
C13 H5 1_555 1_555
C14 N12 1_555 1_555
C15 C14 1_555 1_555
C16 N11 1_555 1_555
H1 C9 1_555 1_555
H2 C10 1_555 1_555
H3 C11 1_555 1_555
H4 C12 1_555 1_555
H6 C14 1_555 1_555
H7 C15 1_555 1_555
H8 C16 1_555 1_555
H10 O1 1_555 1_555
H12 O2 1_555 1_555
W1A C2A 1_555 1_555
W1B C1B 1_555 1_555
W1A_2 C3A 1_555 1_555
W1_2 C4_2 1_555 1_555
Mn1_2 N4_2 1_555 1_555
Mn1B O1B 1_555 1_555
Mn1A N2A 1_555 1_555
Mn1A_2 N3A 1_555 1_555
O1B H9B 1_555 1_555
O2B Mn2 1_555 1_555
N1B Mn1B 1_555 1_555
N2B Mn1B 1_555 1_555
N2A C2 1_555 1_555
N3B Mn1B 1_555 1_555
N3A C3 1_555 1_555
N4_2 C4 1_555 1_555
N4B Mn1B 1_555 1_555
N5B Mn2 1_555 1_555
N6B C6B 1_555 1_555
N7B C7B 1_555 1_555
N8B C8B 1_555 1_555
N9B Mn1B 1_555 1_555
N10B Mn2 1_555 1_555
C1B N1B 1_555 1_555
C2A N2 1_555 1_555
C2B W1B 1_555 1_555
C3B W1B 1_555 1_555
C3A N3 1_555 1_555
C4B W1B 1_555 1_555
C4_2 N4 1_555 1_555
C5B W1B 1_555 1_555
C6B W1B 1_555 1_555
C7B W1B 1_555 1_555
C8B W1B 1_555 1_555
C9B N9B 1_555 1_555
C10B N10B 1_555 1_555
C11B C10B 1_555 1_555
C12B N9B 1_555 1_555
H1B C9B 1_555 1_555
H2B C10B 1_555 1_555
H3B C11B 1_555 1_555
H4B C12B 1_555 1_555
H10B O1B 1_555 1_555
H11B O2B 1_555 1_555
H12B O2B 1_555 1_555
N5 C5 1_555 1_555
N10 C9 1_555 1_555
C11 C12 1_555 1_555
C15 C16 1_555 1_555
N5B C5B 1_555 1_555
N10B C9B 1_555 1_555
C11B C12B 1_555 1_555

#END
