
#######################################################################
#
#                 Cambridge Crystallographic Data Centre
#                                CCDC 
#
#######################################################################
#
# If this CIF has been generated from an entry in the Cambridge 
# Structural Database, then it will include bibliographic, chemical, 
# crystal, experimental, refinement or atomic coordinate data resulting 
# from the CCDC's data processing and validation procedures.
#
#######################################################################

data_FATKUI
_symmetry_cell_setting           monoclinic
_symmetry_space_group_name_H-M   'P 21/n'
_symmetry_Int_Tables_number      14
_space_group_name_Hall           '-P 2yn'
loop_
_symmetry_equiv_pos_site_id
_symmetry_equiv_pos_as_xyz
1 x,y,z
2 1/2-x,1/2+y,1/2-z
3 -x,-y,-z
4 1/2+x,1/2-y,1/2+z
_cell_length_a                   10.416(2)
_cell_length_b                   11.440(3)
_cell_length_c                   22.457(5)
_cell_angle_alpha                90
_cell_angle_beta                 97.695(2)
_cell_angle_gamma                90
_cell_volume                     2651.86
loop_
_atom_site_label
_atom_site_type_symbol
_atom_site_fract_x
_atom_site_fract_y
_atom_site_fract_z
Ce1 Ce 0.607719(14) 0.692984(13) 0.225191(6)
Ce2 Ce 0.263120(15) 0.420000(16) 0.065050(7)
N1 N 1.0312(2) 0.6341(3) 0.15878(12)
H1 H 1.1137 0.6244 0.1621
N2 N 0.8379(2) 0.6640(2) 0.18428(11)
N3 N 0.1113(3) 0.3222(2) 0.29129(11)
N4 N 0.2774(3) 0.4391(2) 0.31514(11)
H2 H 0.3364 0.4788 0.3368
C1 C 1.0042(3) 0.6172(3) 0.04875(14)
C2 C 0.9476(3) 0.6313(3) 0.10576(13)
C3 C 0.8270(3) 0.6498(3) 0.12250(13)
C4 C 0.6958(3) 0.6517(3) 0.08696(12)
C5 C 0.9627(3) 0.6545(3) 0.20454(14)
C6 C 1.0244(3) 0.6634(4) 0.26847(15)
H3 H 0.9770 0.7181 0.2895
H4 H 1.1122 0.6898 0.2696
H5 H 1.0238 0.5881 0.2873
C7 C 0.0834(3) 0.3223(3) 0.18070(14)
C8 C 0.1540(3) 0.3621(3) 0.23924(13)
C9 C 0.2583(3) 0.4357(3) 0.25315(13)
C10 C 0.3396(3) 0.5127(3) 0.21949(13)
C11 C 0.1891(3) 0.3705(3) 0.33626(14)
C12 C 0.1818(4) 0.3536(4) 0.40156(15)
H6 H 0.0944 0.3658 0.4093
H7 H 0.2380 0.4085 0.4244
H8 H 0.2083 0.2755 0.4130
C13 C 0.7039(3) 0.4143(2) 0.22324(13)
C14 C 0.7656(3) 0.4603(3) 0.28584(13)
O1 O 1.1232(2) 0.5927(2) 0.05490(11)
O2 O 0.9367(2) 0.6338(2) -0.00050(10)
O3 O 0.6020(2) 0.68066(19) 0.11432(9)
O4 O 0.6808(2) 0.6229(3) 0.03311(10)
O5 O -0.0206(2) 0.2684(2) 0.18241(9)
O6 O 0.1291(3) 0.3412(3) 0.13337(11)
O7 O 0.3149(2) 0.5217(2) 0.16336(10)
O8 O 0.4262(2) 0.5670(2) 0.25167(10)
O9 O 0.6312(2) 0.48350(18) 0.19113(10)
O10 O 0.7302(2) 0.31235(18) 0.20982(10)
O11 O 0.8432(2) 0.39364(19) 0.31616(10)
O12 O 0.7329(2) 0.56090(18) 0.30085(9)
O13 O 0.4945(3) 0.3642(3) 0.09788(14)
O14 O 0.3940(2) 0.5890(2) 0.03247(12)
O15 O 0.2804(4) 0.1976(3) 0.0613(2)
H9 H 0.524(4) 0.295(2) 0.096(4)
H10 H 0.543(4) 0.399(5) 0.126(3)
H11 H 0.460(6) 0.618(6) 0.0533(18)
H12 H 0.390(6) 0.614(6) -0.0032(10)
H13 H 0.341(6) 0.159(2) 0.048(4)
H14 H 0.231(6) 0.1495(19) 0.076(4)
Ce1A Ce 0.892281(14) 0.192984(13) 0.274809(6)
Ce1A_2 Ce -0.107719(14) 0.192984(13) 0.274809(6)
Ce2_2 Ce 1.263120(15) 0.420000(16) 0.065050(7)
Ce2B Ce 0.736880(15) 0.580000(16) -0.065050(7)
N3A N 0.3887(3) 0.8222(2) 0.20871(11)
O1_2 O 0.1232(2) 0.5927(2) 0.05490(11)
O2B O 0.0633(2) 0.3662(2) 0.00050(10)
O4B O 0.3192(2) 0.3771(3) -0.03311(10)
O5A O 0.5206(2) 0.7684(2) 0.31759(9)
O10A O 0.7698(2) 0.81235(18) 0.29018(10)
O11A O 0.6568(2) 0.89364(19) 0.18384(10)
C15 C -0.4485(16) 0.5370(19) 0.4305(10)
C16 C -0.426(2) 0.4074(17) 0.4409(10)
O17 O -0.5618(4) 0.5804(3) 0.39863(16)
O16 O -0.1351(4) 0.6556(3) 0.41273(16)
O18 O -0.3144(5) 0.8303(6) 0.4318(2)
O19 O -0.1228(11) 0.4230(7) 0.4615(4)
O20? O -0.221(2) 0.4254(16) 0.4425(9)
loop_
_geom_bond_atom_site_label_1
_geom_bond_atom_site_label_2
_geom_bond_site_symmetry_1
_geom_bond_site_symmetry_2
Ce1 N2 1_555 1_555
Ce2 O6 1_555 1_555
N1 H1 1_555 1_555
N2 C3 1_555 1_555
N3 C8 1_555 1_555
N4 H2 1_555 1_555
C1 C2 1_555 1_555
C2 N1 1_555 1_555
C3 C2 1_555 1_555
C4 C3 1_555 1_555
C5 N1 1_555 1_555
C6 C5 1_555 1_555
H3 C6 1_555 1_555
H4 C6 1_555 1_555
H5 C6 1_555 1_555
C7 C8 1_555 1_555
C8 C9 1_555 1_555
C9 N4 1_555 1_555
C10 C9 1_555 1_555
C11 N3 1_555 1_555
C12 C11 1_555 1_555
H6 C12 1_555 1_555
H7 C12 1_555 1_555
H8 C12 1_555 1_555
C13 C14 1_555 1_555
C14 O11 1_555 1_555
C15 C16 1_555 1_555
O1 C1 1_555 1_555
O2 C1 1_555 1_555
O3 Ce1 1_555 1_555
O4 C4 1_555 1_555
O5 C7 1_555 1_555
O6 C7 1_555 1_555
O7 Ce2 1_555 1_555
O8 Ce1 1_555 1_555
O9 Ce1 1_555 1_555
O10 C13 1_555 1_555
O11 Ce1A 1_555 1_555
O12 Ce1 1_555 1_555
O13 Ce2 1_555 1_555
O14 Ce2 1_555 1_555
O15 Ce2 1_555 1_555
O17 C15 1_555 1_555
H9 O13 1_555 1_555
H10 O13 1_555 1_555
H11 O14 1_555 1_555
H12 O14 1_555 1_555
H13 O15 1_555 1_555
H14 O15 1_555 1_555
Ce1A O10 1_555 1_555
Ce1A_2 N3 1_555 1_555
Ce2_2 O1 1_555 1_555
Ce2B O2 1_555 1_555
N3A Ce1 1_555 1_555
O1_2 Ce2 1_555 1_555
O2B Ce2 1_555 1_555
O4B Ce2 1_555 1_555
O5A Ce1 1_555 1_555
O10A Ce1 1_555 1_555
O11A Ce1 1_555 1_555
N2 C5 1_555 1_555
N4 C11 1_555 1_555
C4 O3 1_555 1_555
C10 O7 1_555 1_555
C10 O8 1_555 1_555
C13 O9 1_555 1_555
C14 O12 1_555 1_555
O4 Ce2B 1_555 1_555
O5 Ce1A_2 1_555 1_555

#END
