
#######################################################################
#
#                 Cambridge Crystallographic Data Centre
#                                CCDC 
#
#######################################################################
#
# If this CIF has been generated from an entry in the Cambridge 
# Structural Database, then it will include bibliographic, chemical, 
# crystal, experimental, refinement or atomic coordinate data resulting 
# from the CCDC's data processing and validation procedures.
#
#######################################################################

data_FAVKAP
_symmetry_cell_setting           hexagonal
_symmetry_space_group_name_H-M   'P -6 2 c'
_symmetry_Int_Tables_number      190
_space_group_name_Hall           "P -6c -2'c"
loop_
_symmetry_equiv_pos_site_id
_symmetry_equiv_pos_as_xyz
1 x,y,z
2 -x+y,-x,1/2-z
3 y,x,1/2+z
4 -y,x-y,z
5 x-y,-y,-z
6 x,y,1/2-z
7 -x,-x+y,1/2+z
8 -x+y,-x,z
9 y,x,-z
10 -y,x-y,1/2-z
11 x-y,-y,1/2+z
12 -x,-x+y,-z
_cell_length_a                   11.184(2)
_cell_length_b                   11.184(2)
_cell_length_c                   14.591(3)
_cell_angle_alpha                90
_cell_angle_beta                 90
_cell_angle_gamma                120
_cell_volume                     1580.56
loop_
_atom_site_label
_atom_site_type_symbol
_atom_site_fract_x
_atom_site_fract_y
_atom_site_fract_z
O5 O 0.095(2) 0.248(2) 0.105(1)
O6 O 0.059(2) 0.059(2) 0.000
C4 C 0.192(2) 0.192(2) 0.000
C7 C 0.130(1) 0.134(8) 0.105(2)
O5H O 0.248(2) 0.095(2) -0.105(1)
O5G O 0.153(3) -0.095(2) 0.105(1)
O5D O -0.153(3) -0.248(2) -0.105(1)
O5C O -0.248(2) -0.153(3) 0.105(1)
O5K O -0.095(2) 0.153(3) -0.105(1)
O6C O -0.059(2) 0.000(3) 0.000
O6D O 0.000(3) -0.059(2) 0.000
C4D C 0.000(3) -0.192(2) 0.000
C4C C -0.192(2) 0.000(3) 0.000
C7H C 0.134(8) 0.130(1) -0.105(2)
C7G C 0.004(8) -0.130(1) 0.105(2)
C7D C -0.004(8) -0.134(8) -0.105(2)
C7C C -0.134(8) -0.004(8) 0.105(2)
C7K C -0.130(1) 0.004(8) -0.105(2)
O7 O 0.268(2) 0.538(2) 0.148(2)
C5 C 0.123(3) 0.564(2) 0.250
C6 C 0.247(5) 0.624(3) 0.189(3)
O7G O 0.270(3) 0.732(2) 0.148(2)
O7C O 0.462(2) 0.730(3) 0.148(2)
O7I O 0.462(2) 0.730(3) 0.352(2)
O7A O 0.270(3) 0.732(2) 0.352(2)
O7E O 0.268(2) 0.538(2) 0.352(2)
C5C C 0.436(2) 0.559(4) 0.250
C5A C 0.441(4) 0.877(3) 0.250
C6G C 0.377(6) 0.753(5) 0.189(3)
C6C C 0.376(3) 0.623(6) 0.189(3)
C6I C 0.376(3) 0.623(6) 0.311(3)
C6A C 0.377(6) 0.753(5) 0.311(3)
C6E C 0.247(5) 0.624(3) 0.311(3)
Fe1 Fe 0.769(3) 0.237(3) 0.250
O1 O 0.666 0.333 0.250
O2 O 0.893(3) 0.370(4) 0.151(2)
O3 O 0.909(3) 0.173(3) 0.250
O4 O 0.881(3) 0.559(4) 0.154(2)
C1 C 0.919(3) 0.482(4) 0.114(2)
C2 C 0.935(5) 0.482(2) 0.019(2)
C3 C 1.062(3) 0.271(5) 0.250
Fe1C Fe 0.763(3) 0.532(4) 0.250
Fe1A Fe 0.468(4) 0.231(3) 0.250
Fe1F Fe 1.231(3) 0.468(4) -0.250
Fe1B Fe 1.237(3) 0.769(3) -0.250
Fe1F_2 Fe 1.231(3) 0.468(4) 0.750
Fe1B_2 Fe 1.237(3) 0.769(3) 0.750
Fe1B_3 Fe 0.237(3) -0.231(3) -0.250
Fe1D Fe 0.532(4) -0.237(3) -0.250
O2K O 1.107(3) 0.477(5) -0.151(2)
O2E O 0.893(3) 0.370(4) 0.349(2)
O2F O 1.107(3) 0.477(5) 0.651(2)
O2G O 0.477(5) 0.107(3) 0.151(2)
O2H O 0.370(4) -0.107(3) -0.151(2)
O2C O 0.630(4) 0.523(5) 0.151(2)
O2I O 0.630(4) 0.523(5) 0.349(2)
O2A O 0.477(5) 0.107(3) 0.349(2)
O3C O 0.827(3) 0.736(4) 0.250
O3A O 0.264(4) 0.091(3) 0.250
O4K O 1.119(3) 0.678(5) -0.154(2)
O4E O 0.881(3) 0.559(4) 0.346(2)
O4F O 1.119(3) 0.678(5) 0.654(2)
O4G O 0.678(5) 0.119(3) 0.154(2)
O4H O 0.559(4) -0.119(3) -0.154(2)
O4A O 0.678(5) 0.119(3) 0.346(2)
O4C O 0.441(4) 0.322(5) 0.154(2)
O4I O 0.441(4) 0.322(5) 0.346(2)
C1K C 1.081(3) 0.563(5) -0.114(2)
C1E C 0.919(3) 0.482(4) 0.386(2)
C1F C 1.081(3) 0.563(5) 0.614(2)
C1G C 0.563(5) 0.081(3) 0.114(2)
C1H C 0.482(4) -0.081(3) -0.114(2)
C2K C 1.065(5) 0.547(5) -0.019(2)
C2E C 0.935(5) 0.482(2) 0.481(2)
C2F C 1.065(5) 0.547(5) 0.519(2)
C2G C 0.547(5) 0.065(5) 0.019(2)
C2H C 0.482(2) -0.065(5) -0.019(2)
C3C C 0.729(5) 0.791(6) 0.250
C3A C 0.209(6) -0.062(3) 0.250
loop_
_geom_bond_atom_site_label_1
_geom_bond_atom_site_label_2
_geom_bond_site_symmetry_1
_geom_bond_site_symmetry_2
Fe1 O1 1_555 1_555
O1 Fe1C 1_555 1_555
O2 Fe1 1_555 1_555
O3 Fe1 1_555 1_555
O4 C1 1_555 1_555
O5 C7 1_555 1_555
O6 C4 1_555 1_555
O7 C6 1_555 1_555
C1 O2 1_555 1_555
C2 C1 1_555 1_555
C3 O3 1_555 1_555
C4 C7 1_555 1_555
C5 C6 1_555 1_555
C6 O7G 1_555 1_555
C7 O6 1_555 1_555
Fe1C O4 1_555 1_555
Fe1A O1 1_555 1_555
Fe1F O2K 1_555 1_555
Fe1B O4K 1_555 1_555
Fe1F_2 O2F 1_555 1_555
Fe1B_2 O4F 1_555 1_555
Fe1B_3 O2H 1_555 1_555
Fe1D O4H 1_555 1_555
O2K C1K 1_555 1_555
O2E Fe1 1_555 1_555
O2F C1F 1_555 1_555
O2G Fe1A 1_555 1_555
O2H C1H 1_555 1_555
O2C Fe1C 1_555 1_555
O2I Fe1C 1_555 1_555
O2A Fe1A 1_555 1_555
O3C Fe1C 1_555 1_555
O3A Fe1A 1_555 1_555
O4K C1K 1_555 1_555
O4E Fe1C 1_555 1_555
O4F C1F 1_555 1_555
O4G Fe1 1_555 1_555
O4H C1H 1_555 1_555
O4A Fe1 1_555 1_555
O4C Fe1A 1_555 1_555
O4I Fe1A 1_555 1_555
O5H C7H 1_555 1_555
O5G C7G 1_555 1_555
O5D C7D 1_555 1_555
O5C C7C 1_555 1_555
O5K C7K 1_555 1_555
O6C O6 1_555 1_555
O6D O6 1_555 1_555
O7G C6G 1_555 1_555
O7C C6G 1_555 1_555
O7I C6I 1_555 1_555
O7A C6A 1_555 1_555
O7E C6I 1_555 1_555
C1K C2K 1_555 1_555
C1E O2E 1_555 1_555
C1F C2F 1_555 1_555
C1G O2G 1_555 1_555
C1H C2H 1_555 1_555
C2K C2 1_555 1_555
C2E C1E 1_555 1_555
C2F C2E 1_555 1_555
C2G C1G 1_555 1_555
C2H C2G 1_555 1_555
C3C O3C 1_555 1_555
C3A O3A 1_555 1_555
C4D O6D 1_555 1_555
C4C O6C 1_555 1_555
C5C C6C 1_555 1_555
C5A C6G 1_555 1_555
C6G C6 1_555 1_555
C6C O7 1_555 1_555
C6I C5C 1_555 1_555
C6A O7I 1_555 1_555
C6E C5 1_555 1_555
C7H O6 1_555 1_555
C7G O6D 1_555 1_555
C7D O6D 1_555 1_555
C7C O6C 1_555 1_555
C7K O6C 1_555 1_555
C4 C7H 1_555 1_555
C6 C6C 1_555 1_555
O4E C1E 1_555 1_555
O4G C1G 1_555 1_555
O6C O6D 1_555 1_555
O7C C6C 1_555 1_555
O7A C6E 1_555 1_555
O7E C6E 1_555 1_555
C4D C7G 1_555 1_555
C4D C7D 1_555 1_555
C4C C7C 1_555 1_555
C4C C7K 1_555 1_555
C5A C6A 1_555 1_555
C6G C6C 1_555 1_555
C6I C6A 1_555 1_555
C6I C6E 1_555 1_555
C6A C6E 1_555 1_555

#END
