
#######################################################################
#
#                 Cambridge Crystallographic Data Centre
#                                CCDC 
#
#######################################################################
#
# If this CIF has been generated from an entry in the Cambridge 
# Structural Database, then it will include bibliographic, chemical, 
# crystal, experimental, refinement or atomic coordinate data resulting 
# from the CCDC's data processing and validation procedures.
#
#######################################################################

data_FECPIM
_symmetry_cell_setting           cubic
_symmetry_space_group_name_H-M   'P 4 3 2'
_symmetry_Int_Tables_number      207
_space_group_name_Hall           'P 4 2 3'
loop_
_symmetry_equiv_pos_site_id
_symmetry_equiv_pos_as_xyz
1 x,y,z
2 z,x,y
3 y,z,x
4 -y,x,z
5 -x,z,y
6 -z,y,x
7 x,-y,-z
8 z,-x,-y
9 y,-z,-x
10 -y,-x,-z
11 -x,-z,-y
12 -z,-y,-x
13 -x,y,-z
14 -z,x,-y
15 -y,z,-x
16 y,x,-z
17 x,z,-y
18 z,y,-x
19 -x,-y,z
20 -z,-x,y
21 -y,-z,x
22 y,-x,z
23 x,-z,y
24 z,-y,x
_cell_length_a                   23.716(5)
_cell_length_b                   23.716(5)
_cell_length_c                   23.716(5)
_cell_angle_alpha                90
_cell_angle_beta                 90
_cell_angle_gamma                90
_cell_volume                     13339
loop_
_atom_site_label
_atom_site_type_symbol
_atom_site_fract_x
_atom_site_fract_y
_atom_site_fract_z
Na1 Na 0.4351(5) 0.1404(5) 0.3951(6)
O7 O 0.1798(15) -0.0012(4) 0.1115(18)
O8 O 0.1949(14) 0.0511(14) 0.1950(18)
Cu1 Cu 0.1403(3) 0.4512(3) 0.1954(3)
O1 O 0.1574(13) 0.4244(12) -0.0255(14)
O2 O 0.3227(14) 0.4556(12) -0.1264(14)
O3 O 0.2397(9) 0.3330(10) 0.0842(9)
O4 O 0.1935(9) 0.4616(8) 0.1341(8)
O5 O 0.1634(9) 0.3700(9) 0.1855(9)
O6 O 0.2896(16) 0.2402(15) 0.1268(21)
N1 N 0.2423(13) 0.4139(10) 0.0229(15)
N2 N 0.2427(9) 0.4378(7) -0.0717(10)
C1 C 0.2111(10) 0.4211(9) -0.0231(11)
C2 C 0.3015(11) 0.4363(9) -0.0791(12)
C3 C 0.3327(11) 0.4325(10) -0.0271(13)
C4 C 0.3017(10) 0.4170(10) 0.0186(12)
C5 C 0.2182(9) 0.3868(9) 0.0719(10)
C6 C 0.2372(13) 0.4202(10) 0.1217(11)
C7 C 0.2221(12) 0.3778(9) 0.1703(10)
C8 C 0.2314(12) 0.3207(9) 0.1426(13)
C9 C 0.2813(14) 0.2881(12) 0.1557(15)
O4W O 0.1341(8) 0.5384(8) 0.1935(9)
N2E N 0.0717(10) 0.4378(7) 0.2427(9)
Cu1W Cu 0.1954(3) 0.5488(3) 0.1403(3)
Cu1Q Cu 0.1954(3) 0.4512(3) -0.1403(3)
loop_
_geom_bond_atom_site_label_1
_geom_bond_atom_site_label_2
_geom_bond_site_symmetry_1
_geom_bond_site_symmetry_2
Cu1 O4 1_555 1_555
O1 C1 1_555 1_555
O2 C2 1_555 1_555
O3 C5 1_555 1_555
O4 C6 1_555 1_555
O5 Cu1 1_555 1_555
O6 C9 1_555 1_555
N1 C1 1_555 1_555
N2 C1 1_555 1_555
C2 N2 1_555 1_555
C3 C2 1_555 1_555
C4 N1 1_555 1_555
C5 N1 1_555 1_555
C6 C5 1_555 1_555
C7 O5 1_555 1_555
C8 O3 1_555 1_555
C9 C8 1_555 1_555
O4W Cu1 1_555 1_555
N2E Cu1 1_555 1_555
Cu1W O4 1_555 1_555
Cu1Q N2 1_555 1_555
C3 C4 1_555 1_555
C6 C7 1_555 1_555
C7 C8 1_555 1_555
O4W Cu1W 1_555 1_555

#END
