
#######################################################################
#
#                 Cambridge Crystallographic Data Centre
#                                CCDC 
#
#######################################################################
#
# If this CIF has been generated from an entry in the Cambridge 
# Structural Database, then it will include bibliographic, chemical, 
# crystal, experimental, refinement or atomic coordinate data resulting 
# from the CCDC's data processing and validation procedures.
#
#######################################################################

data_FECXAO
_symmetry_cell_setting           hexagonal
_symmetry_space_group_name_H-M   'P 65 2 2'
_symmetry_Int_Tables_number      179
_space_group_name_Hall           "P 65 2' (0,0,1)"
loop_
_symmetry_equiv_pos_site_id
_symmetry_equiv_pos_as_xyz
1 x,y,z
2 x-y,x,5/6+z
3 -y,x-y,2/3+z
4 -x,-y,1/2+z
5 -x+y,-x,1/3+z
6 y,-x+y,1/6+z
7 x-y,-y,-z
8 -x,-x+y,1/3-z
9 y,x,2/3-z
10 -y,-x,1/6-z
11 -x+y,y,1/2-z
12 x,x-y,5/6-z
_cell_length_a                   16.5428(4)
_cell_length_b                   16.5428(4)
_cell_length_c                   24.3988(15)
_cell_angle_alpha                90
_cell_angle_beta                 90
_cell_angle_gamma                120
_cell_volume                     5782.52
loop_
_atom_site_label
_atom_site_type_symbol
_atom_site_fract_x
_atom_site_fract_y
_atom_site_fract_z
La1 La 0.91902(3) 0.0000 0.0000
O1 O 1.0359(4) 0.1418(3) 0.06980(19)
C1 C 1.0260(5) 0.1994(5) 0.0391(3)
O2 O 0.9630(4) 0.1715(4) 0.0044(3)
C2 C 1.0927(5) 0.3020(5) 0.0448(3)
O3 O 0.9984(4) 0.9282(4) 0.0449(2)
C3 C 1.0702(6) 0.3625(6) 0.0197(4)
H1 H 1.0169 0.3390 -0.0019
O4 O 0.7677(4) 0.0000 0.0000
C4 C 1.1273(6) 0.4599(6) 0.0262(4)
H2 H 1.1127 0.5001 0.0077
C5 C 1.2055(5) 0.4966(5) 0.0604(3)
C6 C 1.2277(5) 0.4326(5) 0.0853(4)
H3 H 1.2803 0.4555 0.1075
C7 C 1.1727(6) 0.3361(5) 0.0773(3)
H4 H 1.1891 0.2954 0.0935
C8 C 1.2595(5) 0.5980(5) 0.0724(3)
C9 C 1.3538(4) 0.6462(4) 0.0833
H5 H 1.3862 0.6138 0.0833
C10 C 1.2129(6) 0.6508(5) 0.0710(4)
H6 H 1.1502 0.6213 0.0612
C11 C 1.2577(4) 0.7423(4) 0.0833
C12 C 1.2047(4) 0.7953(4) 0.0833
C13 C 1.1372(8) 0.7762(7) 0.0435(5)
H7 H 1.1252 0.7318 0.0166
C14 C 1.0878(8) 0.8238(7) 0.0440(4)
H8 H 1.0415 0.8098 0.0180
C15 C 1.1073(4) 0.8927(4) 0.0833
C16 C 1.0551(4) 0.9449(4) 0.0833
La1E La 1.0000 0.08098(3) 0.1667
La1_2 La 0.91902(3) 1.0000 0.0000
La1E_2 La 2.0000 1.08098(3) 0.1667
La1_3 La 1.91902(3) 1.0000 0.0000
La1E_3 La 1.0000 1.08098(3) 0.1667
O1I O 1.8582(3) 0.9641(4) 0.09687(19)
O1I_2 O 0.8582(3) -0.0359(4) 0.09687(19)
O1A O 0.8941(5) 0.0359(4) -0.09687(19)
O1F O 0.8941(5) -0.1418(3) -0.06980(19)
C1I C 1.8006(5) 0.9740(5) 0.1276(3)
O2I O 1.8285(4) 1.0370(4) 0.1623(3)
O2F O 0.7915(6) -0.1715(4) -0.0044(3)
C2I C 1.6980(5) 0.9073(5) 0.1219(3)
O3I O 1.0718(4) 1.0016(4) 0.1218(2)
O3_2 O 0.9984(4) -0.0718(4) 0.0449(2)
O3F O 1.0702(6) 0.0718(4) -0.0449(2)
C3I C 1.6375(6) 0.9298(6) 0.1470(4)
H1I H 1.6610 0.9831 0.1686
C4I C 1.5401(6) 0.8727(6) 0.1405(4)
H2I H 1.4999 0.8873 0.1590
C5I C 1.5034(5) 0.7945(5) 0.1063(3)
C6I C 1.5674(5) 0.7723(5) 0.0814(4)
H3I H 1.5445 0.7197 0.0592
C7I C 1.6639(5) 0.8273(6) 0.0894(3)
H4I H 1.7046 0.8109 0.0732
C8I C 1.4020(5) 0.7405(5) 0.0943(3)
C10I C 1.3492(5) 0.7871(6) 0.0957(4)
H6I H 1.3787 0.8498 0.1055
C13I C 1.2238(7) 0.8628(8) 0.1232(5)
H7I H 1.2682 0.8748 0.1501
C14I C 1.1762(7) 0.9122(8) 0.1227(4)
H8I H 1.1902 0.9585 0.1487
loop_
_geom_bond_atom_site_label_1
_geom_bond_atom_site_label_2
_geom_bond_site_symmetry_1
_geom_bond_site_symmetry_2
La1 O1 1_555 1_555
O1 C1 1_555 1_555
C1 O2 1_555 1_555
O2 La1 1_555 1_555
C2 C1 1_555 1_555
O3 C16 1_555 1_555
C3 C2 1_555 1_555
H1 C3 1_555 1_555
O4 La1 1_555 1_555
C4 C3 1_555 1_555
H2 C4 1_555 1_555
C5 C4 1_555 1_555
C6 C5 1_555 1_555
H3 C6 1_555 1_555
C7 C2 1_555 1_555
H4 C7 1_555 1_555
C8 C5 1_555 1_555
C9 C8 1_555 1_555
H5 C9 1_555 1_555
C10 C8 1_555 1_555
H6 C10 1_555 1_555
C11 C10 1_555 1_555
C12 C11 1_555 1_555
C13 C12 1_555 1_555
H7 C13 1_555 1_555
C14 C13 1_555 1_555
H8 C14 1_555 1_555
C15 C14 1_555 1_555
C16 C15 1_555 1_555
La1E O1 1_555 1_555
La1_2 O3 1_555 1_555
La1E_2 O1I 1_555 1_555
La1_3 O1I 1_555 1_555
La1E_3 O3I 1_555 1_555
O1I C1I 1_555 1_555
O1I_2 La1 1_555 1_555
O1A La1 1_555 1_555
O1F La1 1_555 1_555
C1I O2I 1_555 1_555
O2I La1E_2 1_555 1_555
O2F La1 1_555 1_555
C2I C1I 1_555 1_555
O3I C16 1_555 1_555
O3_2 La1 1_555 1_555
O3F La1 1_555 1_555
C3I C2I 1_555 1_555
H1I C3I 1_555 1_555
C4I C3I 1_555 1_555
H2I C4I 1_555 1_555
C5I C4I 1_555 1_555
C6I C5I 1_555 1_555
H3I C6I 1_555 1_555
C7I C2I 1_555 1_555
H4I C7I 1_555 1_555
C8I C9 1_555 1_555
C10I C11 1_555 1_555
H6I C10I 1_555 1_555
C13I C12 1_555 1_555
H7I C13I 1_555 1_555
C14I C15 1_555 1_555
H8I C14I 1_555 1_555
C6 C7 1_555 1_555
La1E O1I_2 1_555 1_555
C5I C8I 1_555 1_555
C6I C7I 1_555 1_555
C8I C10I 1_555 1_555
C13I C14I 1_555 1_555

#END
