
#######################################################################
#
#                 Cambridge Crystallographic Data Centre
#                                CCDC 
#
#######################################################################
#
# If this CIF has been generated from an entry in the Cambridge 
# Structural Database, then it will include bibliographic, chemical, 
# crystal, experimental, refinement or atomic coordinate data resulting 
# from the CCDC's data processing and validation procedures.
#
#######################################################################

data_FEDBEX
_symmetry_cell_setting           triclinic
_symmetry_space_group_name_H-M   'P -1'
_symmetry_Int_Tables_number      2
_space_group_name_Hall           '-P 1'
loop_
_symmetry_equiv_pos_site_id
_symmetry_equiv_pos_as_xyz
1 x,y,z
2 -x,-y,-z
_cell_length_a                   6.0200(5)
_cell_length_b                   12.7722(11)
_cell_length_c                   13.1612(11)
_cell_angle_alpha                118.8290(10)
_cell_angle_beta                 90.6090(10)
_cell_angle_gamma                91.6870(10)
_cell_volume                     885.788
loop_
_atom_site_label
_atom_site_type_symbol
_atom_site_fract_x
_atom_site_fract_y
_atom_site_fract_z
C1 C 0.3894(14) 0.4811(7) -0.0945(7)
H1 H 0.3072 0.4659 -0.1607
N1 N 0.5764(11) 0.5478(6) -0.0699(6)
O1 O 0.0497(9) 0.3209(5) 0.0147(5)
Tm1 Tm 0.22197(5) 0.33935(3) 0.17829(3)
C2 C 0.3116(14) 0.4337(7) -0.0276(7)
N2 N 0.0703(11) 0.1211(6) 0.0558(6)
O2 O -0.0202(11) 0.3444(6) -0.1388(5)
C3 C 0.0960(13) 0.3600(7) -0.0544(7)
N3 N 0.0858(11) 0.4269(6) 0.3914(5)
O3 O 0.3066(10) 0.2144(5) 0.2520(5)
C4 C 0.1173(14) 0.0493(7) 0.1000(7)
C5 C -0.0473(14) 0.0712(7) -0.0447(7)
H2 H -0.0832 0.1181 -0.0785
C6 C 0.2498(16) 0.1070(8) 0.2131(7)
O4 O 0.4945(9) 0.2213(5) 0.0510(5)
H3 H 0.6206 0.2482 0.0823
H4 H 0.4950 0.2095 -0.0175
O5 O 0.1295(10) 0.5409(5) 0.2590(5)
H5 H 0.1963 0.5956 0.3179
H6 H 0.0705 0.5705 0.2211
O9 O 0.3004(16) 0.0440(6) 0.2562(7)
O10 O -0.4631(9) 0.4311(5) 0.2960(5)
O11 O -0.1643(9) 0.3342(5) 0.2031(5)
C7 C -0.1239(12) 0.4604(7) 0.4034(7)
C8 C 0.2084(13) 0.4652(7) 0.4894(7)
H13 H 0.3538 0.4410 0.4849
C9 C -0.2618(13) 0.4059(7) 0.2939(7)
C1A C 0.6106(14) 0.5189(7) 0.0945(7)
H1A H 0.6928 0.5341 0.1607
N1A N 0.4236(11) 0.4522(6) 0.0699(6)
O1A O 0.9503(9) 0.6791(5) -0.0147(5)
Tm1A Tm 0.77803(5) 0.66065(3) -0.17829(3)
Tm1_2 Tm -0.77803(5) 0.33935(3) 0.17829(3)
Tm1A_2 Tm -0.22197(5) -0.33935(3) -0.17829(3)
Tm1A_3 Tm -0.22197(5) 0.66065(3) 0.82171(3)
Tm1A_4 Tm 0.77803(5) 0.66065(3) 0.82171(3)
C2A C 0.6884(14) 0.5663(7) 0.0276(7)
N2A N -0.0703(11) -0.1211(6) -0.0558(6)
N2A_2 N 0.9297(11) 0.8789(6) -0.0558(6)
O2A O 1.0202(11) 0.6556(6) 0.1388(5)
C3A C 0.9040(13) 0.6400(7) 0.0544(7)
N3A N -0.0858(11) 0.5731(6) 0.6086(5)
N3A_2 N 0.9142(11) 0.5731(6) -0.3914(5)
O3A O -0.3066(10) -0.2144(5) -0.2520(5)
O3A_2 O 0.6934(10) 0.7856(5) -0.2520(5)
C4A C -0.1173(14) -0.0493(7) -0.1000(7)
C5A C 0.0473(14) -0.0712(7) 0.0447(7)
H2A H 0.0832 -0.1181 0.0785
C6A C -0.2498(16) -0.1070(8) -0.2131(7)
O4A O 0.5055(9) 0.7787(5) -0.0510(5)
H3A H 0.3794 0.7518 -0.0823
H4A H 0.5050 0.7905 0.0175
O5A O 0.8705(10) 0.4591(5) -0.2590(5)
H5A H 0.8037 0.4044 -0.3179
H6A H 0.9295 0.4295 -0.2211
O9A O -0.3004(16) -0.0440(6) -0.2562(7)
O10A O 0.4631(9) 0.5689(5) 0.7040(5)
O10_2 O 0.5369(9) 0.4311(5) 0.2960(5)
O10A_2 O 0.4631(9) 0.5689(5) -0.2960(5)
O11A O 0.1643(9) 0.6658(5) 0.7969(5)
O11A_2 O 1.1643(9) 0.6658(5) -0.2031(5)
C7A C 0.1239(12) 0.5396(7) 0.5966(7)
C8A C -0.2084(13) 0.5348(7) 0.5106(7)
H13A H -0.3538 0.5590 0.5151
C9A C 0.2618(13) 0.5941(7) 0.7061(7)
O6 O 0.273(8) 0.149(4) 0.591(6)
H7 H 0.1390 0.1428 0.5986
H8 H 0.3092 0.2099 0.5875
O7 O 0.786(5) 0.2898(12) 0.5291(12)
H9 H 0.9030 0.2623 0.5354
H10 H 0.6778 0.2672 0.5514
O8 O 0.4197(13) 0.8029(7) 0.1672(6)
H11 H 0.3067 0.8302 0.1517
H12 H 0.5318 0.8464 0.1729
loop_
_geom_bond_atom_site_label_1
_geom_bond_atom_site_label_2
_geom_bond_site_symmetry_1
_geom_bond_site_symmetry_2
C1 H1 1_555 1_555
N1 C1 1_555 1_555
O1 Tm1 1_555 1_555
Tm1 N2 1_555 1_555
C2 C1 1_555 1_555
N2 C4 1_555 1_555
O2 C3 1_555 1_555
C3 O1 1_555 1_555
N3 Tm1 1_555 1_555
O3 Tm1 1_555 1_555
C4 C6 1_555 1_555
C5 N2 1_555 1_555
H2 C5 1_555 1_555
C6 O3 1_555 1_555
O4 Tm1 1_555 1_555
H3 O4 1_555 1_555
H4 O4 1_555 1_555
O5 Tm1 1_555 1_555
H5 O5 1_555 1_555
H6 O5 1_555 1_555
O6 H7 1_555 1_555
H8 O6 1_555 1_555
O7 H9 1_555 1_555
H10 O7 1_555 1_555
O8 H11 1_555 1_555
H12 O8 1_555 1_555
O9 C6 1_555 1_555
O10 C9 1_555 1_555
O11 Tm1 1_555 1_555
C7 N3 1_555 1_555
C8 N3 1_555 1_555
H13 C8 1_555 1_555
C9 O11 1_555 1_555
C1A H1A 1_555 1_555
N1A Tm1 1_555 1_555
O1A Tm1A 1_555 1_555
Tm1A N1 1_555 1_555
Tm1_2 O10 1_555 1_555
Tm1A_2 N2A 1_555 1_555
Tm1A_3 N3A 1_555 1_555
Tm1A_4 O10A 1_555 1_555
C2A N1 1_555 1_555
N2A C4A 1_555 1_555
N2A_2 Tm1A 1_555 1_555
O2A C3A 1_555 1_555
C3A O1A 1_555 1_555
N3A C7A 1_555 1_555
N3A_2 Tm1A 1_555 1_555
O3A Tm1A_2 1_555 1_555
O3A_2 Tm1A 1_555 1_555
C4A C5 1_555 1_555
C5A C4 1_555 1_555
H2A C5A 1_555 1_555
C6A O3A 1_555 1_555
O4A Tm1A 1_555 1_555
H3A O4A 1_555 1_555
H4A O4A 1_555 1_555
O5A Tm1A 1_555 1_555
H5A O5A 1_555 1_555
H6A O5A 1_555 1_555
O9A C6A 1_555 1_555
O10A C9A 1_555 1_555
O10_2 Tm1 1_555 1_555
O10A_2 Tm1A 1_555 1_555
O11A Tm1A_3 1_555 1_555
O11A_2 Tm1A 1_555 1_555
C7A C8 1_555 1_555
C8A C7 1_555 1_555
H13A C8A 1_555 1_555
C9A O11A 1_555 1_555
C2 C3 1_555 1_555
C2 N1A 1_555 1_555
C7 C9 1_555 1_555
C1A N1A 1_555 1_555
C1A C2A 1_555 1_555
C2A C3A 1_555 1_555
N2A C5A 1_555 1_555
N3A C8A 1_555 1_555
C4A C6A 1_555 1_555
C7A C9A 1_555 1_555

#END
