
#######################################################################
#
#                 Cambridge Crystallographic Data Centre
#                                CCDC 
#
#######################################################################
#
# If this CIF has been generated from an entry in the Cambridge 
# Structural Database, then it will include bibliographic, chemical, 
# crystal, experimental, refinement or atomic coordinate data resulting 
# from the CCDC's data processing and validation procedures.
#
#######################################################################

data_FENVOL
_symmetry_cell_setting           tetragonal
_symmetry_space_group_name_H-M   'I -4 2 d'
_symmetry_Int_Tables_number      122
_space_group_name_Hall           'I -4 2bw'
loop_
_symmetry_equiv_pos_site_id
_symmetry_equiv_pos_as_xyz
1 x,y,z
2 y,-x,-z
3 -x,-y,z
4 -y,x,-z
5 x,1/2-y,1/4-z
6 1/2-y,-x,3/4+z
7 -x,1/2+y,1/4-z
8 1/2+y,x,3/4+z
9 1/2+x,1/2+y,1/2+z
10 1/2+y,1/2-x,1/2-z
11 1/2-x,1/2-y,1/2+z
12 1/2-y,1/2+x,1/2-z
13 1/2+x,-y,3/4-z
14 -y,1/2-x,1/4+z
15 1/2-x,y,3/4-z
16 y,1/2+x,1/4+z
_cell_length_a                   18.453(7)
_cell_length_b                   18.453(7)
_cell_length_c                   23.283(12)
_cell_angle_alpha                90
_cell_angle_beta                 90
_cell_angle_gamma                90
_cell_volume                     7928.17
loop_
_atom_site_label
_atom_site_type_symbol
_atom_site_fract_x
_atom_site_fract_y
_atom_site_fract_z
Zn1 Zn -0.75000(7) -0.1253 0.3750
Zn2 Zn -0.77442(5) 0.26644(5) 0.22373(4)
C1 C -0.7640(5) 0.0454(4) 0.1455(3)
C2 C -0.7642(5) 0.0103(4) 0.1986(3)
H1 H -0.7622 0.0377 0.2320
C3 C -0.7675(5) -0.0646(4) 0.2026(3)
C4 C -0.7704(5) -0.1064(4) 0.1527(3)
H2 H -0.7731 -0.1566 0.1554
C5 C -0.7691(5) -0.0738(4) 0.0995(3)
C6 C -0.7656(5) 0.0020(5) 0.0959(3)
H3 H -0.7644 0.0240 0.0599
C7 C -0.3967(5) -0.2666(4) 0.2399(3)
C8 C -0.7705(6) -0.1164(5) 0.0455(3)
O1 O -0.6584(3) -0.1756(3) 0.3628(2)
O2 O -0.7931(4) 0.1728(3) 0.1901(3)
O3 O -0.6618(4) -0.2933(3) 0.4170(3)
O4 O -0.3309(5) -0.2733(3) 0.2411(2)
O5 O -0.4349(4) -0.2601(3) 0.1954(2)
O6 O -0.7672(5) -0.1854(3) 0.0510(2)
O7 O -0.4127(5) -0.2743(4) 0.5007(2)
P1 P -0.75547(13) 0.14108(11) 0.13851(8)
Zn1E Zn -0.3747 -0.25000(7) 0.1250
Zn1G Zn -0.6253 0.25000(7) 0.1250
Zn2E Zn -0.76644(5) -0.22558(5) -0.02627(4)
Zn2K Zn -0.76644(5) -0.27442(5) 0.27627(4)
Zn2L Zn -0.27442(5) -0.26644(5) 0.52627(4)
Zn2B Zn -0.22558(5) -0.26644(5) 0.22373(4)
Zn2O Zn -0.73356(5) -0.27442(5) 0.47373(4)
Zn2D Zn -0.77442(5) 0.23356(5) 0.02627(4)
C1K C -0.5454(4) -0.2640(5) 0.3545(3)
C2K C -0.5103(4) -0.2642(5) 0.3014(3)
H1K H -0.5377 -0.2622 0.2680
C3K C -0.4354(4) -0.2675(5) 0.2974(3)
C4K C -0.3936(4) -0.2704(5) 0.3473(3)
H2K H -0.3434 -0.2731 0.3446
C5K C -0.4262(4) -0.2691(5) 0.4005(3)
C6K C -0.5020(5) -0.2656(5) 0.4041(3)
H3K H -0.5240 -0.2644 0.4401
C7I C -0.7666(4) -0.1033(5) 0.2601(3)
C8K C -0.3836(5) -0.2705(6) 0.4545(3)
O1N O -0.8416(3) -0.1756(3) 0.3872(2)
O1I O -0.6756(3) 0.1584(3) 0.1372(2)
O2K O -0.6728(3) -0.2931(4) 0.3099(3)
O3N O -0.8382(4) -0.2933(3) 0.3330(3)
O3I O -0.7933(3) 0.1618(4) 0.0830(3)
O3G O -0.7933(3) 0.3382(4) 0.1670(3)
O4I O -0.7733(3) -0.1691(5) 0.2589(2)
O4B O -0.6691(5) 0.2733(3) 0.2411(2)
O5I O -0.7601(3) -0.0651(4) 0.3046(2)
O5M O -0.7399(3) -0.0651(4) 0.4454(2)
O6M O -0.8146(3) 0.2672(5) 0.3010(2)
O6D O -0.7672(5) -0.3146(3) 0.1990(2)
O6K O -0.3146(3) -0.2672(5) 0.4490(2)
O7I O -0.7743(4) -0.0873(5) -0.0007(2)
P1K P -0.64108(11) -0.25547(13) 0.36149(8)
C9 C 0.1829(10) 0.5296(8) 0.3827(9)
H4 H 0.1591 0.5486 0.4166
H5 H 0.1518 0.5408 0.3502
C10 C 0.1846(12) 0.4543(10) 0.3881(14)
H6 H 0.1464 0.4350 0.3639
H7 H 0.1715 0.4429 0.4274
C11 C 0.2500 0.4139(11) 0.3750
H8 H 0.2604 0.3827 0.4075
N1 N 0.2500 0.5707(7) 0.3750
H9 H 0.2530 0.5812 0.4136
C9N C 0.3171(10) 0.5296(8) 0.3673(9)
H4N H 0.3409 0.5486 0.3334
H5N H 0.3482 0.5408 0.3998
C10N C 0.3154(12) 0.4543(10) 0.3619(14)
H6N H 0.3536 0.4350 0.3861
H7N H 0.3285 0.4429 0.3226
H8N H 0.2396 0.3827 0.3425
H9N H 0.2470 0.5812 0.3364
O8 O 0.2500 0.1546(9) 0.3750
O9 O 0.1515(10) 0.0593(11) 0.4320(7)
O10 O 0.0818(7) 0.0810(8) 0.5335(7)
O11 O 0.0000 0.0000 0.629(2)
loop_
_geom_bond_atom_site_label_1
_geom_bond_atom_site_label_2
_geom_bond_site_symmetry_1
_geom_bond_site_symmetry_2
Zn1 O1 1_555 1_555
Zn2 O2 1_555 1_555
C1 C2 1_555 1_555
C2 H1 1_555 1_555
C3 C2 1_555 1_555
C4 C3 1_555 1_555
H2 C4 1_555 1_555
C5 C4 1_555 1_555
C6 C1 1_555 1_555
H3 C6 1_555 1_555
C7 O4 1_555 1_555
C8 C5 1_555 1_555
C9 H4 1_555 1_555
H5 C9 1_555 1_555
C10 C9 1_555 1_555
H6 C10 1_555 1_555
H7 C10 1_555 1_555
C11 C10 1_555 1_555
H8 C11 1_555 1_555
N1 C9 1_555 1_555
H9 N1 1_555 1_555
O1 P1K 1_555 1_555
O2 P1 1_555 1_555
O3 Zn2O 1_555 1_555
O4 Zn2B 1_555 1_555
O5 C7 1_555 1_555
O6 C8 1_555 1_555
O7 C8K 1_555 1_555
P1 C1 1_555 1_555
Zn1E O5 1_555 1_555
Zn1G O1I 1_555 1_555
Zn2E O6 1_555 1_555
Zn2K O2K 1_555 1_555
Zn2L O6K 1_555 1_555
Zn2D O3I 1_555 1_555
C1K C2K 1_555 1_555
C2K H1K 1_555 1_555
C3K C7 1_555 1_555
C4K C3K 1_555 1_555
H2K C4K 1_555 1_555
C5K C4K 1_555 1_555
C6K C1K 1_555 1_555
H3K C6K 1_555 1_555
C7I C3 1_555 1_555
C8K C5K 1_555 1_555
C9N N1 1_555 1_555
H4N C9N 1_555 1_555
H5N C9N 1_555 1_555
C10N C11 1_555 1_555
H6N C10N 1_555 1_555
H7N C10N 1_555 1_555
H8N C11 1_555 1_555
H9N N1 1_555 1_555
O1N Zn1 1_555 1_555
O1I P1 1_555 1_555
O2K P1K 1_555 1_555
O3N Zn2K 1_555 1_555
O3I P1 1_555 1_555
O3G Zn2 1_555 1_555
O4I Zn2K 1_555 1_555
O4B Zn2 1_555 1_555
O5I Zn1 1_555 1_555
O5M Zn1 1_555 1_555
O6M Zn2 1_555 1_555
O6D Zn2K 1_555 1_555
O6K C8K 1_555 1_555
O7I C8 1_555 1_555
P1K O3 1_555 1_555
C5 C6 1_555 1_555
C1K P1K 1_555 1_555
C2K C3K 1_555 1_555
C5K C6K 1_555 1_555
C7I O4I 1_555 1_555
C7I O5I 1_555 1_555
C9N C10N 1_555 1_555

#END
