
#######################################################################
#
#                 Cambridge Crystallographic Data Centre
#                                CCDC 
#
#######################################################################
#
# If this CIF has been generated from an entry in the Cambridge 
# Structural Database, then it will include bibliographic, chemical, 
# crystal, experimental, refinement or atomic coordinate data resulting 
# from the CCDC's data processing and validation procedures.
#
#######################################################################

data_FESBEM
_symmetry_cell_setting           triclinic
_symmetry_space_group_name_H-M   'P -1'
_symmetry_Int_Tables_number      2
_space_group_name_Hall           '-P 1'
loop_
_symmetry_equiv_pos_site_id
_symmetry_equiv_pos_as_xyz
1 x,y,z
2 -x,-y,-z
_cell_length_a                   11.360(3)
_cell_length_b                   11.799(4)
_cell_length_c                   16.350(5)
_cell_angle_alpha                74.017(6)
_cell_angle_beta                 82.914(6)
_cell_angle_gamma                63.634(6)
_cell_volume                     1887.62
loop_
_atom_site_label
_atom_site_type_symbol
_atom_site_fract_x
_atom_site_fract_y
_atom_site_fract_z
C1 C 0.0736(7) 0.7110(6) 0.3968(4)
C2 C -0.0544(6) 0.7002(6) 0.3987(4)
C3 C -0.0515(6) 0.5821(6) 0.4025(4)
H1 H 0.0288 0.5093 0.4049
C4 C -0.1690(7) 0.5697(6) 0.4030(4)
C5 C -0.2867(7) 0.6790(6) 0.4010(4)
H2 H -0.3651 0.6721 0.4008
C6 C -0.2905(6) 0.8008(6) 0.3993(4)
C7 C -0.1733(6) 0.8090(6) 0.3987(4)
H3 H -0.1737 0.8881 0.3983
C8 C -0.1718(7) 0.4424(6) 0.4077(4)
C9 C -0.4230(6) 0.9122(7) 0.4006(4)
C10 C -0.5258(6) 0.8824(6) 0.4411(4)
H4 H -0.5088 0.7959 0.4669
C11 C -0.6531(6) 0.9802(7) 0.4434(4)
C12 C -0.6774(6) 1.1087(7) 0.4050(4)
H5 H -0.7626 1.1743 0.4034
C13 C -0.5766(7) 1.1399(6) 0.3694(4)
C14 C -0.4500(6) 1.0415(6) 0.3660(4)
H6 H -0.3830 1.0637 0.3400
C15 C -0.5983(8) 1.2808(7) 0.3345(4)
C16 C -0.7576(6) 0.9396(7) 0.4841(4)
C17 C 0.1499(7) 0.8317(7) 0.7135(5)
C18 C 0.1614(7) 0.8822(7) 0.7862(5)
C19 C 0.2629(7) 0.8002(6) 0.8431(4)
H7 H 0.3215 0.7200 0.8331
C20 C 0.2804(7) 0.8313(7) 0.9122(5)
C21 C 0.1902(7) 0.9552(7) 0.9281(5)
H8 H 0.1969 0.9775 0.9771
C22 C 0.0935(7) 1.0398(7) 0.8687(5)
C23 C 0.0769(6) 1.0028(6) 0.7988(4)
H9 H 0.0087 1.0596 0.7608
C24 C -0.0021(7) 1.1705(7) 0.8819(6)
C25 C 0.3944(6) 0.7405(6) 0.9709(4)
C26 C 0.5119(7) 0.6645(6) 0.9359(4)
H10 H 0.5176 0.6756 0.8772
C27 C 0.6205(6) 0.5729(7) 0.9853(5)
C28 C 0.6101(7) 0.5547(6) 1.0739(4)
H11 H 0.6828 0.4970 1.1081
C29 C 0.4930(7) 0.6218(6) 1.1100(4)
C30 C 0.3822(7) 0.7180(6) 1.0586(5)
H12 H 0.3035 0.7646 1.0836
C31 C 0.7415(7) 0.4895(7) 0.9419(5)
C32 C 0.4761(8) 0.5879(6) 1.2048(5)
Zn1 Zn 0.07262(9) 0.83244(9) 0.54857(6)
Zn2 Zn 0.39331(10) 0.61703(10) 0.64010(7)
Zn3 Zn 0.20368(10) 0.55884(10) 0.24711(7)
O1 O 0.1683(4) 0.6321(4) 0.3630(3)
O2 O -0.0825(6) 1.2461(5) 0.8234(4)
O3 O 0.0348(7) 0.5111(7) 0.2416(5)
O4 O -0.0634(5) 0.3491(4) 0.3978(3)
O5 O -0.2776(4) 0.4359(4) 0.4229(3)
O6 O -0.4971(5) 1.3011(5) 0.3186(4)
O7 O -0.7143(5) 1.3640(5) 0.3248(3)
O8 O -0.8757(5) 1.0201(5) 0.4716(3)
O9 O -0.7268(5) 0.8244(5) 0.5283(3)
O10 O 0.0795(4) 0.7958(5) 0.4263(3)
O11 O 0.0083(5) 1.2017(5) 0.9473(4)
O12 O 0.0533(5) 0.9063(5) 0.6612(3)
O13 O 0.2295(5) 0.7212(5) 0.7086(3)
O14 O 0.5665(5) 0.5112(6) 0.5705(4)
O15 O 0.5796(5) 0.5397(4) 1.2495(3)
H13 H 0.6423 0.5723 1.2342
O16 O 0.3682(5) 0.6036(5) 1.2360(3)
O17 O 0.8344(5) 0.4020(6) 0.9893(4)
O18 O 0.7368(5) 0.5149(5) 0.8637(3)
H14 H 0.582(4) 0.434(2) 0.577(5)
H15 H 0.620(6) 0.533(5) 0.541(6)
H16 H -0.029(5) 0.563(4) 0.212(5)
H17 H 0.039(6) 0.437(3) 0.260(7)
Zn1_2 Zn -0.92738(9) 0.83244(9) 0.54857(6)
Zn1A Zn -1.07262(9) 1.16756(9) 0.45143(6)
Zn1A_2 Zn -0.07262(9) 0.16756(9) 0.45143(6)
Zn2_2 Zn -0.60669(10) 0.61703(10) 0.64010(7)
Zn2A Zn -0.39331(10) 0.38297(10) 0.35990(7)
Zn2A_2 Zn -0.39331(10) 1.38297(10) 0.35990(7)
Zn2A_3 Zn 0.60669(10) 0.38297(10) 1.35990(7)
Zn3_2 Zn -0.79632(10) 1.55884(10) 0.24711(7)
Zn3_3 Zn 0.20368(10) 0.55884(10) 1.24711(7)
Zn3A Zn -0.20368(10) 1.44116(10) 0.75289(7)
Zn3A_2 Zn 0.79632(10) 0.44116(10) 0.75289(7)
O2A O 0.0825(6) 0.7539(5) 0.1766(4)
O4A O 0.0634(5) 0.6509(4) 0.6022(3)
O5A O 0.2776(4) 0.5641(4) 0.5771(3)
O6A O 0.4971(5) 0.6989(5) 0.6814(4)
O7_2 O 0.2857(5) 0.3640(5) 0.3248(3)
O8_2 O 0.1243(5) 1.0201(5) 0.4716(3)
O8A O -0.1243(5) 0.9799(5) 0.5284(3)
O9_2 O 0.2732(5) 0.8244(5) 0.5283(3)
O15A O 0.4204(5) 0.4603(4) 0.7505(3)
O16_2 O 0.3682(5) 0.6036(5) 0.2360(3)
O18A O 0.2632(5) 0.4851(5) 0.1363(3)
C33 C 0.5492(12) 0.9448(11) 0.8332(6)
H18 H 0.5914 0.8510 0.8398
H19 H 0.4671 0.9799 0.8031
C34 C 0.5215(12) 0.9745(11) 0.9211(6)
C35 C 0.4124(11) 1.0772(12) 0.9338(6)
H20 H 0.3534 1.1302 0.8894
C36 C 0.6135(11) 0.8946(11) 0.9861(6)
H21 H 0.6900 0.8243 0.9765
C37 C 0.8366(11) 0.7922(8) 0.7895(7)
H22 H 0.7917 0.7515 0.7707
H23 H 0.8448 0.7641 0.8503
H24 H 0.9225 0.7678 0.7642
C38 C 0.7624(10) 0.9330(9) 0.7641(5)
C39 C 0.7027(8) 1.1437(8) 0.7094(6)
H25 H 0.7081 1.2210 0.6805
C40 C 0.5999(9) 1.1341(9) 0.7484(5)
H26 H 0.5182 1.2027 0.7518
N1 N 0.8031(7) 1.0196(7) 0.7183(4)
H27 H 0.8805 1.0015 0.6970
N2 N 0.6343(8) 1.0027(7) 0.7840(4)
C33A C 0.4508(12) 1.0552(11) 1.1668(6)
H18A H 0.4086 1.1490 1.1602
H19A H 0.5329 1.0201 1.1969
C34A C 0.4785(12) 1.0255(11) 1.0789(6)
C35A C 0.5876(11) 0.9228(12) 1.0662(6)
H20A H 0.6466 0.8698 1.1106
C36A C 0.3865(11) 1.1054(11) 1.0139(6)
H21A H 0.3100 1.1757 1.0235
C37A C 0.1634(11) 1.2078(8) 1.2105(7)
H22A H 0.2083 1.2485 1.2293
H23A H 0.1552 1.2359 1.1497
H24A H 0.0775 1.2322 1.2358
C38A C 0.2376(10) 1.0670(9) 1.2359(5)
C39A C 0.2973(8) 0.8563(8) 1.2906(6)
H25A H 0.2919 0.7790 1.3195
C40A C 0.4001(9) 0.8659(9) 1.2516(5)
H26A H 0.4818 0.7973 1.2482
N1A N 0.1969(7) 0.9804(7) 1.2817(4)
H27A H 0.1195 0.9985 1.3030
N2A N 0.3657(8) 0.9973(7) 1.2160(4)
O19 O 0.7810(15) 0.6310(15) 0.1876(7)
H28 H 0.829(7) 0.560(4) 0.217(5)
H29 H 0.736(13) 0.685(7) 0.214(5)
loop_
_geom_bond_atom_site_label_1
_geom_bond_atom_site_label_2
_geom_bond_site_symmetry_1
_geom_bond_site_symmetry_2
C1 C2 1_555 1_555
C2 C3 1_555 1_555
C3 H1 1_555 1_555
C4 C3 1_555 1_555
C5 C4 1_555 1_555
H2 C5 1_555 1_555
C6 C5 1_555 1_555
C7 C2 1_555 1_555
H3 C7 1_555 1_555
C8 C4 1_555 1_555
C9 C6 1_555 1_555
C10 C9 1_555 1_555
H4 C10 1_555 1_555
C11 C10 1_555 1_555
C12 C11 1_555 1_555
H5 C12 1_555 1_555
C13 C12 1_555 1_555
C14 C9 1_555 1_555
H6 C14 1_555 1_555
C15 C13 1_555 1_555
C16 C11 1_555 1_555
C17 C18 1_555 1_555
C18 C19 1_555 1_555
C19 H7 1_555 1_555
C20 C19 1_555 1_555
C21 C20 1_555 1_555
H8 C21 1_555 1_555
C22 C21 1_555 1_555
C23 C18 1_555 1_555
H9 C23 1_555 1_555
C24 C22 1_555 1_555
C25 C20 1_555 1_555
C26 C25 1_555 1_555
H10 C26 1_555 1_555
C27 C26 1_555 1_555
C28 C27 1_555 1_555
H11 C28 1_555 1_555
C29 C28 1_555 1_555
C30 C25 1_555 1_555
H12 C30 1_555 1_555
C31 C27 1_555 1_555
C32 C29 1_555 1_555
Zn1 O10 1_555 1_555
Zn2 O13 1_555 1_555
Zn3 O1 1_555 1_555
O1 C1 1_555 1_555
O2 C24 1_555 1_555
O3 Zn3 1_555 1_555
O4 C8 1_555 1_555
O5 C8 1_555 1_555
O6 C15 1_555 1_555
O7 C15 1_555 1_555
O8 C16 1_555 1_555
O9 C16 1_555 1_555
O10 C1 1_555 1_555
O11 C24 1_555 1_555
O12 C17 1_555 1_555
O13 C17 1_555 1_555
O14 Zn2 1_555 1_555
O15 C32 1_555 1_555
H13 O15 1_555 1_555
O16 C32 1_555 1_555
O17 C31 1_555 1_555
O18 C31 1_555 1_555
H14 O14 1_555 1_555
H15 O14 1_555 1_555
H16 O3 1_555 1_555
H17 O3 1_555 1_555
C33 H18 1_555 1_555
H19 C33 1_555 1_555
C34 C33 1_555 1_555
C35 C34 1_555 1_555
H20 C35 1_555 1_555
C36 C34 1_555 1_555
H21 C36 1_555 1_555
C37 H22 1_555 1_555
H23 C37 1_555 1_555
H24 C37 1_555 1_555
C38 C37 1_555 1_555
C39 H25 1_555 1_555
C40 C39 1_555 1_555
H26 C40 1_555 1_555
N1 C38 1_555 1_555
H27 N1 1_555 1_555
N2 C33 1_555 1_555
O19 H28 1_555 1_555
H29 O19 1_555 1_555
Zn1_2 O8 1_555 1_555
Zn1A O8 1_555 1_555
Zn1A_2 O4 1_555 1_555
Zn2_2 O9 1_555 1_555
Zn2A O5 1_555 1_555
Zn2A_2 O6 1_555 1_555
Zn2A_3 O15 1_555 1_555
Zn3_2 O7 1_555 1_555
Zn3_3 O16 1_555 1_555
Zn3A O2 1_555 1_555
Zn3A_2 O18 1_555 1_555
O2A Zn3 1_555 1_555
O4A Zn1 1_555 1_555
O5A Zn2 1_555 1_555
O6A Zn2 1_555 1_555
O7_2 Zn3 1_555 1_555
O8_2 Zn1 1_555 1_555
O8A Zn1 1_555 1_555
O9_2 Zn1 1_555 1_555
O15A Zn2 1_555 1_555
O16_2 Zn3 1_555 1_555
O18A Zn3 1_555 1_555
C33A H18A 1_555 1_555
H19A C33A 1_555 1_555
C34A C33A 1_555 1_555
C35A C36 1_555 1_555
H20A C35A 1_555 1_555
C36A C35 1_555 1_555
H21A C36A 1_555 1_555
C37A H22A 1_555 1_555
H23A C37A 1_555 1_555
H24A C37A 1_555 1_555
C38A C37A 1_555 1_555
C39A H25A 1_555 1_555
C40A C39A 1_555 1_555
H26A C40A 1_555 1_555
N1A C38A 1_555 1_555
H27A N1A 1_555 1_555
N2A C33A 1_555 1_555
C6 C7 1_555 1_555
C13 C14 1_555 1_555
C22 C23 1_555 1_555
C29 C30 1_555 1_555
Zn1 O12 1_555 1_555
Zn2 O9_2 1_555 1_555
O9 Zn1_2 1_555 1_555
C38 N2 1_555 1_555
C39 N1 1_555 1_555
C40 N2 1_555 1_555
C34A C35A 1_555 1_555
C34A C36A 1_555 1_555
C38A N2A 1_555 1_555
C39A N1A 1_555 1_555
C40A N2A 1_555 1_555

#END
