
#######################################################################
#
#                 Cambridge Crystallographic Data Centre
#                                CCDC 
#
#######################################################################
#
# If this CIF has been generated from an entry in the Cambridge 
# Structural Database, then it will include bibliographic, chemical, 
# crystal, experimental, refinement or atomic coordinate data resulting 
# from the CCDC's data processing and validation procedures.
#
#######################################################################

data_FEYQIK
_symmetry_cell_setting           triclinic
_symmetry_space_group_name_H-M   'P -1'
_symmetry_Int_Tables_number      2
_space_group_name_Hall           '-P 1'
loop_
_symmetry_equiv_pos_site_id
_symmetry_equiv_pos_as_xyz
1 x,y,z
2 -x,-y,-z
_cell_length_a                   8.6550(5)
_cell_length_b                   9.9366(6)
_cell_length_c                   11.7170(6)
_cell_angle_alpha                74.7100(10)
_cell_angle_beta                 69.7950(10)
_cell_angle_gamma                85.9590(10)
_cell_volume                     911.958
loop_
_atom_site_label
_atom_site_type_symbol
_atom_site_fract_x
_atom_site_fract_y
_atom_site_fract_z
Pr1 Pr 0.25445(2) 0.022390(19) -0.011920(15)
O1 O 0.4223(3) -0.0448(2) 0.12788(18)
O2 O 0.4249(3) 0.1073(3) -0.24680(19)
O3 O 0.1375(3) 0.2470(2) -0.0983(2)
O4 O 0.3584(3) 0.2814(3) -0.0591(2)
O5 O 1.0994(3) 0.1164(3) -0.8188(2)
O6 O 0.9319(3) 0.0353(2) -0.88908(19)
O7 O 0.3757(4) -0.1973(3) -0.0879(3)
O8 O 0.1284(3) -0.2019(3) 0.1526(3)
C1 C 0.9554(4) 0.0844(3) -0.8068(3)
C2 C 0.8101(4) 0.1030(4) -0.6972(3)
H1 H 0.7344 0.0246 -0.6721
H2 H 0.7542 0.1865 -0.7254
C3 C 0.8450(4) 0.1147(4) -0.5829(3)
H3 H 0.9049 0.2016 -0.6028
H4 H 0.9143 0.0386 -0.5604
C4 C 0.6891(4) 0.1106(4) -0.4720(3)
H5 H 0.6258 0.0271 -0.4571
H6 H 0.6238 0.1904 -0.4934
C5 C 0.7171(4) 0.1118(4) -0.3512(3)
H7 H 0.7955 0.0405 -0.3365
H8 H 0.7662 0.2013 -0.3624
C6 C 0.4356(4) -0.0873(3) 0.2367(3)
C7 C 0.2378(4) 0.3285(4) -0.0928(3)
C8 C 0.2106(5) 0.4834(4) -0.1274(4)
H9 H 0.2451 0.5167 -0.2183
H10 H 0.2791 0.5304 -0.0988
C9 C 0.0328(5) 0.5216(4) -0.0713(4)
H11 H -0.0349 0.4775 -0.1027
H12 H 0.0233 0.6218 -0.0994
H22 H 0.033(6) -0.226(5) 0.150(4)
H23 H 0.168(7) -0.264(6) 0.168(5)
H24 H 0.356(7) -0.263(6) -0.044(5)
H25 H 0.462(6) -0.208(6) -0.132(5)
Pr1A Pr 0.74555(2) -0.022390(19) 0.011920(15)
Pr1_2 Pr 1.25445(2) 0.022390(19) -1.011920(15)
Pr1A_2 Pr 0.74555(2) -0.022390(19) -0.988080(15)
Pr1A_3 Pr -0.25445(2) -0.022390(19) 1.011920(15)
Pr1A_4 Pr -0.25445(2) 0.977610(19) 0.011920(15)
Pr1_3 Pr 0.25445(2) 0.022390(19) 0.988080(15)
O1A O 0.5777(3) 0.0448(2) -0.12788(18)
O2A O 0.5751(3) -0.1073(3) 0.24680(19)
O3A O 0.8625(3) -0.2470(2) 0.0983(2)
O3A_2 O -0.1375(3) 0.7530(2) 0.0983(2)
O4A O 0.6416(3) -0.2814(3) 0.0591(2)
O4A_2 O -0.3584(3) 0.7186(3) 0.0591(2)
O5_2 O 0.0994(3) 0.1164(3) 0.1812(2)
O5A O 0.9006(3) -0.1164(3) -0.1812(2)
O5A_2 O -0.0994(3) -0.1164(3) 0.8188(2)
O6_2 O -0.0681(3) 0.0353(2) 0.11092(19)
O6A O 0.0681(3) -0.0353(2) -0.11092(19)
O6_3 O 0.9319(3) 0.0353(2) 0.11092(19)
O6A_2 O 1.0681(3) -0.0353(2) -0.11092(19)
O6A_3 O 0.0681(3) -0.0353(2) 0.88908(19)
O7A O 0.6243(4) 0.1973(3) 0.0879(3)
O8A O 0.8716(3) 0.2019(3) -0.1526(3)
C1A C 0.0446(4) -0.0844(3) 0.8068(3)
C2A C 0.1899(4) -0.1030(4) 0.6972(3)
H1A H 0.2656 -0.0246 0.6721
H2A H 0.2458 -0.1865 0.7254
C3A C 0.1550(4) -0.1147(4) 0.5829(3)
H3A H 0.0951 -0.2016 0.6028
H4A H 0.0857 -0.0386 0.5604
C4A C 0.3109(4) -0.1106(4) 0.4720(3)
H5A H 0.3742 -0.0271 0.4571
H6A H 0.3762 -0.1904 0.4934
C5A C 0.2829(4) -0.1118(4) 0.3512(3)
H7A H 0.2045 -0.0405 0.3365
H8A H 0.2338 -0.2013 0.3624
C6A C 0.5644(4) 0.0873(3) -0.2367(3)
C7A C -0.2378(4) 0.6715(4) 0.0928(3)
C8A C -0.2106(5) 0.5166(4) 0.1274(4)
H9A H -0.2451 0.4833 0.2183
H10A H -0.2791 0.4696 0.0988
C9A C -0.0328(5) 0.4784(4) 0.0713(4)
H11A H 0.0349 0.5225 0.1027
H12A H -0.0233 0.3782 0.0994
H22A H 0.967(6) 0.226(5) -0.150(4)
H23A H 0.832(7) 0.264(6) -0.168(5)
H24A H 0.644(7) 0.263(6) 0.044(5)
H25A H 0.538(6) 0.208(6) 0.132(5)
O9 O 0.3399(5) 0.3445(3) -0.3869(3)
O10 O 0.2615(6) 0.2497(4) -0.5083(3)
C10 C 0.2784(6) 0.3500(5) -0.4765(4)
C11 C 0.2367(6) 0.4956(5) -0.5330(4)
H13 H 0.3238 0.5319 -0.6124
H14 H 0.2352 0.5534 -0.4776
C12 C 0.0725(6) 0.5100(6) -0.5564(4)
H15 H 0.0693 0.6023 -0.6101
H16 H 0.0674 0.4426 -0.6017
H17 H 0.353(7) 0.271(5) -0.352(5)
O9A O -0.3399(5) 0.6555(3) -0.6131(3)
O10A O -0.2615(6) 0.7503(4) -0.4917(3)
C10A C -0.2784(6) 0.6500(5) -0.5235(4)
C11A C -0.2367(6) 0.5044(5) -0.4670(4)
H13A H -0.3238 0.4681 -0.3876
H14A H -0.2352 0.4466 -0.5224
C12A C -0.0725(6) 0.4900(6) -0.4436(4)
H15A H -0.0693 0.3977 -0.3899
H16A H -0.0674 0.5574 -0.3983
H17A H -0.353(7) 0.729(5) -0.648(5)
O11 O 0.6865(4) 0.7227(4) -0.2314(3)
H18 H 0.764(6) 0.751(6) -0.224(5)
H19 H 0.716(7) 0.732(6) -0.300(5)
O12 O 0.3509(4) 0.5790(3) -0.8722(4)
H20 H 0.447(6) 0.611(6) -0.883(5)
H21 H 0.342(7) 0.502(6) -0.849(5)
loop_
_geom_bond_atom_site_label_1
_geom_bond_atom_site_label_2
_geom_bond_site_symmetry_1
_geom_bond_site_symmetry_2
Pr1 O1 1_555 1_555
O1 C6 1_555 1_555
O2 Pr1 1_555 1_555
O3 Pr1 1_555 1_555
O4 Pr1 1_555 1_555
O5 C1 1_555 1_555
O6 C1 1_555 1_555
O7 Pr1 1_555 1_555
O8 Pr1 1_555 1_555
O9 C10 1_555 1_555
O10 C10 1_555 1_555
O11 H18 1_555 1_555
O12 H20 1_555 1_555
C1 C2 1_555 1_555
C2 H1 1_555 1_555
H2 C2 1_555 1_555
C3 C2 1_555 1_555
H3 C3 1_555 1_555
H4 C3 1_555 1_555
C4 C3 1_555 1_555
H5 C4 1_555 1_555
H6 C4 1_555 1_555
C5 C4 1_555 1_555
H7 C5 1_555 1_555
H8 C5 1_555 1_555
C6 O2A 1_555 1_555
C7 O3 1_555 1_555
C8 C7 1_555 1_555
H9 C8 1_555 1_555
H10 C8 1_555 1_555
C9 C8 1_555 1_555
H11 C9 1_555 1_555
H12 C9 1_555 1_555
C10 C11 1_555 1_555
C11 H13 1_555 1_555
H14 C11 1_555 1_555
C12 C11 1_555 1_555
H15 C12 1_555 1_555
H16 C12 1_555 1_555
H17 O9 1_555 1_555
H19 O11 1_555 1_555
H21 O12 1_555 1_555
H22 O8 1_555 1_555
H23 O8 1_555 1_555
H24 O7 1_555 1_555
H25 O7 1_555 1_555
Pr1A O1 1_555 1_555
Pr1_2 O5 1_555 1_555
Pr1A_2 O6 1_555 1_555
Pr1A_3 O5A_2 1_555 1_555
Pr1A_4 O3A_2 1_555 1_555
Pr1_3 O6A_3 1_555 1_555
O1A Pr1 1_555 1_555
O2A Pr1A 1_555 1_555
O3A Pr1A 1_555 1_555
O3A_2 C7A 1_555 1_555
O4A Pr1A 1_555 1_555
O4A_2 Pr1A_4 1_555 1_555
O5_2 Pr1 1_555 1_555
O5A Pr1A 1_555 1_555
O5A_2 C1A 1_555 1_555
O6_2 Pr1 1_555 1_555
O6A Pr1 1_555 1_555
O6_3 Pr1A 1_555 1_555
O6A_2 Pr1A 1_555 1_555
O6A_3 Pr1A_3 1_555 1_555
O7A Pr1A 1_555 1_555
O8A Pr1A 1_555 1_555
O9A C10A 1_555 1_555
O10A C10A 1_555 1_555
C1A O6A_3 1_555 1_555
C2A C1A 1_555 1_555
H1A C2A 1_555 1_555
H2A C2A 1_555 1_555
C3A C2A 1_555 1_555
H3A C3A 1_555 1_555
H4A C3A 1_555 1_555
C4A C3A 1_555 1_555
H5A C4A 1_555 1_555
H6A C4A 1_555 1_555
C5A C6 1_555 1_555
H7A C5A 1_555 1_555
H8A C5A 1_555 1_555
C6A O2 1_555 1_555
C7A O4A_2 1_555 1_555
C8A C7A 1_555 1_555
H9A C8A 1_555 1_555
H10A C8A 1_555 1_555
C9A C9 1_555 1_555
H11A C9A 1_555 1_555
H12A C9A 1_555 1_555
C10A C11A 1_555 1_555
C11A H13A 1_555 1_555
H14A C11A 1_555 1_555
C12A C12 1_555 1_555
H15A C12A 1_555 1_555
H16A C12A 1_555 1_555
H17A O9A 1_555 1_555
H22A O8A 1_555 1_555
H23A O8A 1_555 1_555
H24A O7A 1_555 1_555
H25A O7A 1_555 1_555
O4 C7 1_555 1_555
O6 Pr1_2 1_555 1_555
C5 C6A 1_555 1_555
Pr1A O1A 1_555 1_555
O1A C6A 1_555 1_555
C4A C5A 1_555 1_555
C8A C9A 1_555 1_555
C11A C12A 1_555 1_555

#END
