
#######################################################################
#
#                 Cambridge Crystallographic Data Centre
#                                CCDC 
#
#######################################################################
#
# If this CIF has been generated from an entry in the Cambridge 
# Structural Database, then it will include bibliographic, chemical, 
# crystal, experimental, refinement or atomic coordinate data resulting 
# from the CCDC's data processing and validation procedures.
#
#######################################################################

data_FEZCUK
_symmetry_cell_setting           triclinic
_symmetry_space_group_name_H-M   'P -1'
_symmetry_Int_Tables_number      2
_space_group_name_Hall           '-P 1'
loop_
_symmetry_equiv_pos_site_id
_symmetry_equiv_pos_as_xyz
1 x,y,z
2 -x,-y,-z
_cell_length_a                   10.034(3)
_cell_length_b                   10.250(3)
_cell_length_c                   10.487(3)
_cell_angle_alpha                67.006(17)
_cell_angle_beta                 75.61(2)
_cell_angle_gamma                77.56(2)
_cell_volume                     953.218
loop_
_atom_site_label
_atom_site_type_symbol
_atom_site_fract_x
_atom_site_fract_y
_atom_site_fract_z
Fe1 Fe 0.60916(7) 0.06749(8) 0.58865(7)
O1 O 1.3411(4) 0.0541(4) 0.5373(4)
N1 N 0.5926(5) 0.8726(5) -0.2248(5)
O2 O 1.4081(4) 0.1391(4) 0.6721(4)
O3 O 0.8278(4) 0.0497(5) 0.5875(5)
C1 C 0.5977(6) 0.6310(6) 0.0254(6)
O4 O 0.6830(4) 0.1652(5) 0.7143(4)
C2 C 0.6051(6) 0.5047(6) 0.1562(6)
N2 N 0.6130(5) 0.2624(5) 0.4044(5)
C3 C 0.5268(7) 0.8792(6) -0.0991(6)
H1 H 0.4770 0.9672 -0.0961
C4 C 1.1675(5) 0.1275(6) 0.7060(5)
C5 C 0.5256(6) 0.3820(6) 0.4023(6)
H2 H 0.4656 0.3828 0.4866
C6 C 1.3152(5) 0.1049(6) 0.6338(5)
C7 C 0.8049(6) 0.1156(6) 0.6713(6)
C8 C 0.6975(6) 0.3818(7) 0.1593(6)
H3 H 0.7592 0.3777 0.0768
C9 C 0.8971(6) 0.1736(7) 0.8409(6)
H4 H 0.8051 0.1903 0.8859
C10 C 1.0601(6) 0.1060(6) 0.6578(6)
H5 H 1.0787 0.0739 0.5818
O5 O 0.9664(5) 0.2279(7) 1.0085(6)
C11 C 0.9235(6) 0.1329(6) 0.7246(6)
C12 C 0.5185(7) 0.5033(6) 0.2847(6)
H6 H 0.4563 0.5847 0.2899
C13 C 0.6987(6) 0.2655(6) 0.2835(6)
H7 H 0.7631 0.1841 0.2830
C14 C 0.6625(7) 0.6228(6) -0.1054(6)
H8 H 0.7087 0.5350 -0.1122
C15 C 0.5278(7) 0.7646(6) 0.0260(6)
H9 H 0.4817 0.7761 0.1114
C16 C 0.6587(6) 0.7447(6) -0.2258(6)
H10 H 0.7051 0.7370 -0.3127
C17 C 1.0049(6) 0.1899(8) 0.8912(7)
C18 C 1.1412(6) 0.1695(7) 0.8230(6)
H11 H 1.2146 0.1838 0.8549
C19 C 1.0731(8) 0.2559(11) 1.0586(9)
Fe1_2 Fe 0.60916(7) 1.06749(8) -0.41135(7)
Fe1_3 Fe 1.60916(7) 0.06749(8) 0.58865(7)
Fe1A Fe 1.39084(7) -0.06749(8) 0.41135(7)
O1A O 0.6589(4) -0.0541(4) 0.4627(4)
N1_2 N 0.5926(5) -0.1274(5) 0.7752(5)
O2_2 O 0.4081(4) 0.1391(4) 0.6721(4)
loop_
_geom_bond_atom_site_label_1
_geom_bond_atom_site_label_2
_geom_bond_site_symmetry_1
_geom_bond_site_symmetry_2
Fe1 O3 1_555 1_555
O1 C6 1_555 1_555
N1 C3 1_555 1_555
O2 C6 1_555 1_555
O3 C7 1_555 1_555
C1 C2 1_555 1_555
O4 Fe1 1_555 1_555
C2 C8 1_555 1_555
N2 Fe1 1_555 1_555
C3 H1 1_555 1_555
C4 C6 1_555 1_555
C5 N2 1_555 1_555
H2 C5 1_555 1_555
C7 O4 1_555 1_555
C8 H3 1_555 1_555
C9 H4 1_555 1_555
C10 C4 1_555 1_555
H5 C10 1_555 1_555
O5 C17 1_555 1_555
C11 C7 1_555 1_555
C12 C2 1_555 1_555
H6 C12 1_555 1_555
C13 N2 1_555 1_555
H7 C13 1_555 1_555
C14 C1 1_555 1_555
H8 C14 1_555 1_555
C15 C1 1_555 1_555
H9 C15 1_555 1_555
C16 N1 1_555 1_555
H10 C16 1_555 1_555
C17 C9 1_555 1_555
C18 C4 1_555 1_555
H11 C18 1_555 1_555
C19 O5 1_555 1_555
Fe1_2 N1 1_555 1_555
Fe1_3 O2 1_555 1_555
Fe1A O1 1_555 1_555
O1A Fe1 1_555 1_555
N1_2 Fe1 1_555 1_555
O2_2 Fe1 1_555 1_555
C3 C15 1_555 1_555
C5 C12 1_555 1_555
C8 C13 1_555 1_555
C9 C11 1_555 1_555
C10 C11 1_555 1_555
C14 C16 1_555 1_555
C17 C18 1_555 1_555

#END
