
#######################################################################
#
#                 Cambridge Crystallographic Data Centre
#                                CCDC 
#
#######################################################################
#
# If this CIF has been generated from an entry in the Cambridge 
# Structural Database, then it will include bibliographic, chemical, 
# crystal, experimental, refinement or atomic coordinate data resulting 
# from the CCDC's data processing and validation procedures.
#
#######################################################################

data_FEZDEV
_symmetry_cell_setting           triclinic
_symmetry_space_group_name_H-M   'P -1'
_symmetry_Int_Tables_number      2
_space_group_name_Hall           '-P 1'
loop_
_symmetry_equiv_pos_site_id
_symmetry_equiv_pos_as_xyz
1 x,y,z
2 -x,-y,-z
_cell_length_a                   10.187(11)
_cell_length_b                   10.273(10)
_cell_length_c                   10.759(9)
_cell_angle_alpha                66.69(3)
_cell_angle_beta                 77.57(4)
_cell_angle_gamma                81.17(4)
_cell_volume                     1006.87
loop_
_atom_site_label
_atom_site_type_symbol
_atom_site_fract_x
_atom_site_fract_y
_atom_site_fract_z
Fe1 Fe 0.38392(7) 0.43143(8) 0.40771(7)
O1 O 0.4205(4) 0.6263(4) 0.6663(4)
N1 N 0.4037(5) 0.6271(5) 0.2190(5)
O2 O -0.1712(4) 0.5632(5) 0.5826(4)
O3 O -0.2983(4) 0.6641(5) 0.7195(4)
O4 O 0.3385(4) 0.5513(5) 0.5309(4)
C1 C 0.0704(5) 0.6052(6) 0.6535(6)
H1 H 0.0812 0.5762 0.5790
C2 C 0.3253(5) 0.5968(6) 0.6256(5)
C3 C 0.1841(5) 0.6213(6) 0.6979(6)
C4 C -0.1852(5) 0.6200(6) 0.6701(6)
C5 C -0.0601(5) 0.6322(6) 0.7193(6)
N2 N 0.3872(5) 1.2285(5) -0.4117(5)
C6 C 0.4033(6) 0.8641(6) -0.0337(6)
C7 C 0.3364(7) 0.8696(6) 0.0927(6)
H2 H 0.2887 0.9548 0.0950
C8 C 0.3388(7) 0.7534(6) 0.2133(6)
H3 H 0.2930 0.7624 0.2955
C9 C 0.1691(6) 0.6588(7) 0.8119(6)
H4 H 0.2446 0.6711 0.8422
C10 C 0.4740(7) 0.7335(7) -0.0266(6)
H5 H 0.5235 0.7228 -0.1069
C11 C 0.4815(7) 1.1200(6) -0.4040(6)
H6 H 0.5456 1.1262 -0.4829
C12 C -0.0751(6) 0.6660(7) 0.8364(7)
H7 H -0.1614 0.6805 0.8841
O5 O -0.0900(6) 0.7081(8) 1.0734(6)
C13 C 0.4894(7) 0.9980(7) -0.2844(6)
H8 H 0.5566 0.9243 -0.2847
C14 C 0.4710(7) 0.6206(7) 0.0982(6)
H9 H 0.5185 0.5343 0.0994
C15 C 0.0381(6) 0.6775(8) 0.8797(6)
N3 N 0.0232(6) 0.7112(9) 1.0033(7)
C16 C 0.3973(6) 0.9869(6) -0.1656(6)
O6 O 0.1215(7) 0.7227(14) 1.0424(10)
C17 C 0.2993(8) 1.2159(8) -0.2993(7)
H10 H 0.2324 1.2906 -0.3020
C18 C 0.2994(9) 1.0973(9) -0.1750(8)
H11 H 0.2327 1.0935 -0.0985
Fe1_2 Fe 0.38392(7) 1.43143(8) -0.59229(7)
Fe1A Fe -0.38392(7) 0.56857(8) 0.59229(7)
Fe1A_2 Fe 0.61608(7) 0.56857(8) 0.59229(7)
O1A O 0.5795(4) 0.3737(4) 0.3337(4)
O2A O 0.1712(4) 0.4368(5) 0.4174(4)
O3A O 0.2983(4) 0.3359(5) 0.2805(4)
N2_2 N 0.3872(5) 0.2285(5) 0.5883(5)
loop_
_geom_bond_atom_site_label_1
_geom_bond_atom_site_label_2
_geom_bond_site_symmetry_1
_geom_bond_site_symmetry_2
Fe1 N1 1_555 1_555
O1 C2 1_555 1_555
N1 C8 1_555 1_555
O2 C4 1_555 1_555
O3 C4 1_555 1_555
O4 Fe1 1_555 1_555
C1 H1 1_555 1_555
C2 O4 1_555 1_555
C3 C1 1_555 1_555
C4 C5 1_555 1_555
C5 C1 1_555 1_555
N2 C11 1_555 1_555
C6 C7 1_555 1_555
C7 H2 1_555 1_555
C8 C7 1_555 1_555
H3 C8 1_555 1_555
C9 C3 1_555 1_555
H4 C9 1_555 1_555
C10 C6 1_555 1_555
H5 C10 1_555 1_555
C11 H6 1_555 1_555
C12 C5 1_555 1_555
H7 C12 1_555 1_555
O5 N3 1_555 1_555
C13 C11 1_555 1_555
H8 C13 1_555 1_555
C14 N1 1_555 1_555
H9 C14 1_555 1_555
C15 C9 1_555 1_555
N3 C15 1_555 1_555
C16 C6 1_555 1_555
O6 N3 1_555 1_555
C17 N2 1_555 1_555
H10 C17 1_555 1_555
C18 C16 1_555 1_555
H11 C18 1_555 1_555
Fe1_2 N2 1_555 1_555
Fe1A O2 1_555 1_555
Fe1A_2 O1 1_555 1_555
O1A Fe1 1_555 1_555
O2A Fe1 1_555 1_555
O3A Fe1 1_555 1_555
N2_2 Fe1 1_555 1_555
O3 Fe1A 1_555 1_555
C2 C3 1_555 1_555
C10 C14 1_555 1_555
C12 C15 1_555 1_555
C13 C16 1_555 1_555
C17 C18 1_555 1_555

#END
