
#######################################################################
#
#                 Cambridge Crystallographic Data Centre
#                                CCDC 
#
#######################################################################
#
# If this CIF has been generated from an entry in the Cambridge 
# Structural Database, then it will include bibliographic, chemical, 
# crystal, experimental, refinement or atomic coordinate data resulting 
# from the CCDC's data processing and validation procedures.
#
#######################################################################

data_FEZFAT
_symmetry_cell_setting           triclinic
_symmetry_space_group_name_H-M   'P -1'
_symmetry_Int_Tables_number      2
_space_group_name_Hall           '-P 1'
loop_
_symmetry_equiv_pos_site_id
_symmetry_equiv_pos_as_xyz
1 x,y,z
2 -x,-y,-z
_cell_length_a                   9.0217(19)
_cell_length_b                   10.100(2)
_cell_length_c                   10.108(2)
_cell_angle_alpha                78.436(9)
_cell_angle_beta                 73.667(7)
_cell_angle_gamma                79.609(9)
_cell_volume                     858.358
loop_
_atom_site_label
_atom_site_type_symbol
_atom_site_fract_x
_atom_site_fract_y
_atom_site_fract_z
Fe1 Fe -0.06638(4) 0.37352(4) -0.10412(4)
O1 O -0.0545(3) 1.1591(2) -0.0997(2)
O2 O -0.0842(3) 0.6610(2) -0.0216(2)
O3 O -0.1892(3) 1.2940(2) -0.2355(2)
O4 O -0.1395(3) 0.5710(2) -0.1822(2)
C1 C -0.1211(3) 0.6719(3) -0.1336(3)
N1 N -0.2613(3) 0.3678(2) 0.0832(3)
C2 C -0.4914(3) 0.3700(3) 0.3386(3)
C3 C -0.8589(4) 0.4732(3) 0.6032(3)
H1 H -0.9431 0.5436 0.6069
N2 N -0.8606(3) 0.3775(2) 0.7162(2)
C4 C -0.1300(3) 0.9251(3) -0.1657(3)
H2 H -0.1009 0.9145 -0.0815
C5 C -0.6147(3) 0.3733(3) 0.4714(3)
C6 C -0.3708(4) 0.4745(3) 0.1074(3)
H3 H -0.3704 0.5502 0.0360
C7 C -0.1553(4) 1.0550(3) -0.2416(3)
C8 C -0.1326(4) 1.1775(3) -0.1891(3)
C9 C -0.7411(4) 0.4748(3) 0.4818(3)
H4 H -0.7466 0.5450 0.4060
C10 C -0.1479(4) 0.8111(3) -0.2150(3)
C11 C -0.4850(4) 0.4801(3) 0.2313(3)
H5 H -0.5582 0.5586 0.2427
C12 C -0.1864(5) 0.8279(3) -0.3418(4)
H6 H -0.1963 0.7511 -0.3764
C13 C -0.1969(5) 1.0715(3) -0.3668(4)
H7 H -0.2159 1.1591 -0.4169
C14 C -0.7372(4) 0.2809(4) 0.7074(3)
H8 H -0.7338 0.2132 0.7856
C15 C -0.6137(4) 0.2750(4) 0.5892(3)
H9 H -0.5296 0.2048 0.5889
C16 C -0.3799(4) 0.2582(4) 0.3129(4)
H10 H -0.3793 0.1804 0.3819
C17 C -0.2695(4) 0.2604(4) 0.1861(4)
H11 H -0.1962 0.1824 0.1713
C18 C -0.2103(6) 0.9568(4) -0.4175(4)
H12 H -0.2356 0.9669 -0.5034
Fe1_2 Fe -1.06638(4) 0.37352(4) 0.89588(4)
Fe1_3 Fe -0.06638(4) 1.37352(4) -0.10412(4)
Fe1A Fe 0.06638(4) 0.62648(4) 0.10412(4)
O1_2 O -0.0545(3) 0.1591(2) -0.0997(2)
O2A O 0.0842(3) 0.3390(2) 0.0216(2)
O3_2 O -0.1892(3) 0.2940(2) -0.2355(2)
N2_2 N 0.1394(3) 0.3775(2) -0.2838(2)
loop_
_geom_bond_atom_site_label_1
_geom_bond_atom_site_label_2
_geom_bond_site_symmetry_1
_geom_bond_site_symmetry_2
Fe1 O4 1_555 1_555
O1 C8 1_555 1_555
O2 C1 1_555 1_555
O3 C8 1_555 1_555
O4 C1 1_555 1_555
C1 C10 1_555 1_555
N1 Fe1 1_555 1_555
C2 C5 1_555 1_555
C3 H1 1_555 1_555
N2 C3 1_555 1_555
C4 H2 1_555 1_555
C5 C9 1_555 1_555
C6 N1 1_555 1_555
H3 C6 1_555 1_555
C7 C4 1_555 1_555
C8 C7 1_555 1_555
C9 C3 1_555 1_555
H4 C9 1_555 1_555
C10 C4 1_555 1_555
C11 C2 1_555 1_555
H5 C11 1_555 1_555
C12 C10 1_555 1_555
H6 C12 1_555 1_555
C13 C7 1_555 1_555
H7 C13 1_555 1_555
C14 N2 1_555 1_555
H8 C14 1_555 1_555
C15 C5 1_555 1_555
H9 C15 1_555 1_555
C16 C2 1_555 1_555
H10 C16 1_555 1_555
C17 N1 1_555 1_555
H11 C17 1_555 1_555
C18 C12 1_555 1_555
H12 C18 1_555 1_555
Fe1_2 N2 1_555 1_555
Fe1_3 O1 1_555 1_555
Fe1A O2 1_555 1_555
O1_2 Fe1 1_555 1_555
O2A Fe1 1_555 1_555
O3_2 Fe1 1_555 1_555
N2_2 Fe1 1_555 1_555
O3 Fe1_3 1_555 1_555
C6 C11 1_555 1_555
C13 C18 1_555 1_555
C14 C15 1_555 1_555
C16 C17 1_555 1_555

#END
