
#######################################################################
#
#                 Cambridge Crystallographic Data Centre
#                                CCDC 
#
#######################################################################
#
# If this CIF has been generated from an entry in the Cambridge 
# Structural Database, then it will include bibliographic, chemical, 
# crystal, experimental, refinement or atomic coordinate data resulting 
# from the CCDC's data processing and validation procedures.
#
#######################################################################

data_FIBHIJ
_symmetry_cell_setting           triclinic
_symmetry_space_group_name_H-M   'P -1'
_symmetry_Int_Tables_number      2
_space_group_name_Hall           '-P 1'
loop_
_symmetry_equiv_pos_site_id
_symmetry_equiv_pos_as_xyz
1 x,y,z
2 -x,-y,-z
_cell_length_a                   11.4287(18)
_cell_length_b                   11.7031(18)
_cell_length_c                   12.918(2)
_cell_angle_alpha                64.005(3)
_cell_angle_beta                 89.783(3)
_cell_angle_gamma                71.129(3)
_cell_volume                     1450.06
loop_
_atom_site_label
_atom_site_type_symbol
_atom_site_fract_x
_atom_site_fract_y
_atom_site_fract_z
C1 C -0.1077(8) 0.4972(11) -0.1271(7)
H1 H -0.0905 0.5208 -0.0678
H2 H -0.0327 0.4325 -0.1308
H3 H -0.1716 0.4580 -0.1086
Cu1 Cu 0.37501(7) 1.16842(8) 0.08005(7)
N1 N -0.2843(4) 0.7807(5) -0.4059(4)
C2 C -0.1508(6) 0.6205(7) -0.2407(6)
Cu2 Cu 0.54559(7) 0.86861(9) 0.49800(7)
N2 N -0.2642(5) 0.6651(6) -0.3013(4)
H4 H -0.3185 0.6264 -0.2780
C3 C -0.0922(6) 0.7089(8) -0.3103(6)
Cu3 Cu 0.31549(7) 0.63807(8) 0.79610(7)
N3 N 0.1598(4) 0.7650(5) -0.1754(4)
C4 C -0.1773(6) 0.8033(7) -0.4094(6)
N4 N 0.3792(4) 0.8948(5) 0.1418(5)
H5 H 0.4024 0.8752 0.2127
C5 C -0.1656(7) 0.9248(8) -0.5131(8)
H6 H -0.2111 0.9390 -0.5827
H7 H -0.0789 0.9083 -0.5208
H8 H -0.1995 1.0042 -0.5018
N5 N 0.3515(4) 1.0213(5) 0.0503(5)
C6 C 0.0372(6) 0.7043(9) -0.2781(7)
H9 H 0.0921 0.6096 -0.2362
H10 H 0.0690 0.7461 -0.3496
N6 N 0.4372(6) 1.0595(6) 0.2455(5)
C7 C 0.0447(5) 0.7720(6) -0.2063(6)
N7 N 0.4641(5) 0.7551(6) 0.6139(5)
C8 C -0.0590(6) 0.8388(9) -0.1708(8)
H11 H -0.1389 0.8447 -0.1929
N8 N 0.3281(5) 0.4603(6) 0.9074(6)
C9 C -0.0403(7) 0.8959(10) -0.1026(9)
H12 H -0.1076 0.9385 -0.0755
C10 C 0.0778(6) 0.8901(10) -0.0742(9)
H13 H 0.0904 0.9309 -0.0297
C11 C 0.1762(5) 0.8246(7) -0.1115(6)
C12 C 0.3091(6) 0.8130(9) -0.0866(8)
H14 H 0.3364 0.8571 -0.1602
H15 H 0.3618 0.7174 -0.0496
C13 C 0.3907(8) 0.6587(8) 0.1959(8)
H16 H 0.4513 0.6318 0.2612
H17 H 0.4223 0.6015 0.1592
H18 H 0.3141 0.6496 0.2224
C14 C 0.3664(6) 0.8036(6) 0.1099(7)
C15 C 0.3302(6) 0.8744(7) -0.0090(7)
C16 C 0.3224(5) 1.0081(7) -0.0422(6)
C17 C 0.2840(7) 1.1282(8) -0.1595(6)
H19 H 0.2597 1.2099 -0.1512
H20 H 0.2145 1.1282 -0.2010
H21 H 0.3530 1.1241 -0.2020
C18 C 0.4793(6) 0.9898(7) 0.3415(6)
C19 C 0.4100(6) 0.7059(6) 0.6840(6)
C20 C 0.3429(6) 0.3477(7) 0.9764(6)
Cu1_2 Cu 0.37501(7) 0.16842(8) 1.08005(7)
N1_2 N 0.7157(4) 0.7807(5) 0.5941(4)
Cu2_2 Cu -0.45441(7) 0.86861(9) -0.50200(7)
Cu3_2 Cu 0.31549(7) 0.63807(8) -0.20390(7)
N3_2 N 0.1598(4) 0.7650(5) 0.8246(4)
C20_2 C 0.3429(6) 1.3477(7) -0.0236(6)
C21 C 0.7086(18) 0.415(2) 0.4941(15)
H22 H 0.6329 0.4380 0.4502
C22 C 0.773(2) 0.282(2) 0.5607(18)
H23 H 0.7463 0.2160 0.5585
C23 C 0.880(2) 0.248(2) 0.632(2)
H24 H 0.9270 0.1565 0.6810
C24 C 0.9189(16) 0.347(3) 0.6316(17)
H25 H 0.9891 0.3245 0.6830
C25 C 0.852(2) 0.483(2) 0.554(2)
H26 H 0.8838 0.5486 0.5491
C26 C 0.742(2) 0.5230(15) 0.4835(18)
H27 H 0.6948 0.6136 0.4337
loop_
_geom_bond_atom_site_label_1
_geom_bond_atom_site_label_2
_geom_bond_site_symmetry_1
_geom_bond_site_symmetry_2
C1 H1 1_555 1_555
H2 C1 1_555 1_555
H3 C1 1_555 1_555
Cu1 N5 1_555 1_555
N1 N2 1_555 1_555
C2 C1 1_555 1_555
Cu2 N7 1_555 1_555
N2 C2 1_555 1_555
H4 N2 1_555 1_555
C3 C2 1_555 1_555
Cu3 N8 1_555 1_555
N3 C7 1_555 1_555
C4 N1 1_555 1_555
N4 H5 1_555 1_555
C5 C4 1_555 1_555
H6 C5 1_555 1_555
H7 C5 1_555 1_555
H8 C5 1_555 1_555
N5 N4 1_555 1_555
C6 C3 1_555 1_555
H9 C6 1_555 1_555
H10 C6 1_555 1_555
N6 Cu1 1_555 1_555
C7 C6 1_555 1_555
N7 C19 1_555 1_555
C8 C7 1_555 1_555
H11 C8 1_555 1_555
N8 C20 1_555 1_555
C9 C8 1_555 1_555
H12 C9 1_555 1_555
C10 C9 1_555 1_555
H13 C10 1_555 1_555
C11 N3 1_555 1_555
C12 C11 1_555 1_555
H14 C12 1_555 1_555
H15 C12 1_555 1_555
C13 H16 1_555 1_555
H17 C13 1_555 1_555
H18 C13 1_555 1_555
C14 N4 1_555 1_555
C15 C12 1_555 1_555
C16 N5 1_555 1_555
C17 C16 1_555 1_555
H19 C17 1_555 1_555
H20 C17 1_555 1_555
H21 C17 1_555 1_555
C18 Cu2 1_555 1_555
C19 Cu3 1_555 1_555
C20 Cu1_2 1_555 1_555
C21 H22 1_555 1_555
C22 C21 1_555 1_555
H23 C22 1_555 1_555
C23 C22 1_555 1_555
H24 C23 1_555 1_555
C24 C23 1_555 1_555
H25 C24 1_555 1_555
C25 C24 1_555 1_555
H26 C25 1_555 1_555
C26 C21 1_555 1_555
H27 C26 1_555 1_555
N1_2 Cu2 1_555 1_555
Cu2_2 N1 1_555 1_555
Cu3_2 N3 1_555 1_555
N3_2 Cu3 1_555 1_555
C20_2 Cu1 1_555 1_555
C3 C4 1_555 1_555
N6 C18 1_555 1_555
C10 C11 1_555 1_555
C13 C14 1_555 1_555
C14 C15 1_555 1_555
C15 C16 1_555 1_555
C25 C26 1_555 1_555

#END
