
#######################################################################
#
#                 Cambridge Crystallographic Data Centre
#                                CCDC 
#
#######################################################################
#
# If this CIF has been generated from an entry in the Cambridge 
# Structural Database, then it will include bibliographic, chemical, 
# crystal, experimental, refinement or atomic coordinate data resulting 
# from the CCDC's data processing and validation procedures.
#
#######################################################################

data_FIBHEF
_symmetry_cell_setting           triclinic
_symmetry_space_group_name_H-M   'P -1'
_symmetry_Int_Tables_number      2
_space_group_name_Hall           '-P 1'
loop_
_symmetry_equiv_pos_site_id
_symmetry_equiv_pos_as_xyz
1 x,y,z
2 -x,-y,-z
_cell_length_a                   11.4262(5)
_cell_length_b                   11.4509(5)
_cell_length_c                   12.5243(7)
_cell_angle_alpha                66.620(5)
_cell_angle_beta                 89.182(4)
_cell_angle_gamma                69.908(4)
_cell_volume                     1398.37
loop_
_atom_site_label
_atom_site_type_symbol
_atom_site_fract_x
_atom_site_fract_y
_atom_site_fract_z
Cu1 Cu 0.12706(7) 0.81901(7) -0.08289(6)
N1 N 0.7803(4) 1.2307(5) 0.4171(4)
C1 C 0.6025(9) 1.5043(11) 0.1402(8)
H1 H 0.5471 1.5822 0.1512
H2 H 0.5587 1.4864 0.0872
H3 H 0.6743 1.5227 0.1080
N2 N 0.7584(4) 1.3410(5) 0.3150(4)
H4 H 0.8118 1.3801 0.2910
C2 C 0.6446(6) 1.3842(7) 0.2540(6)
Cu2 Cu -0.04699(7) 1.13210(9) -0.49394(7)
N3 N 0.3415(4) 1.2249(4) 0.1934(4)
C3 C 0.5887(5) 1.2972(7) 0.3199(6)
Cu3 Cu 0.18414(7) 1.36329(7) -0.78168(7)
C4 C 0.6755(5) 1.2027(6) 0.4218(6)
N4 N 0.1281(4) 1.0932(5) -0.1372(5)
H5 H 0.1070 1.1135 -0.2099
N5 N 0.1518(4) 0.9673(4) -0.0480(4)
C5 C 0.6652(8) 1.0828(9) 0.5264(8)
H6 H 0.7012 1.0009 0.5139
H7 H 0.5782 1.0993 0.5354
H8 H 0.7097 1.0722 0.5961
C6 C 0.4596(6) 1.3003(9) 0.2914(8)
H9 H 0.4053 1.3943 0.2439
H10 H 0.4251 1.2689 0.3641
N6 N 0.0652(5) 0.9245(5) -0.2483(4)
C7 C 0.4573(5) 1.2135(6) 0.2266(6)
N7 N 0.0325(5) 1.2584(6) -0.5978(5)
C8 C 0.5643(6) 1.1272(10) 0.2049(9)
H11 H 0.6437 1.1216 0.2280
N8 N 0.1698(5) 1.5374(5) -0.9032(5)
C9 C 0.5510(6) 1.0497(11) 0.1485(11)
H12 H 0.6217 0.9896 0.1347
C10 C 0.4324(6) 1.0621(10) 0.1129(10)
H13 H 0.4217 1.0125 0.0728
C11 C 0.3276(5) 1.1510(7) 0.1381(7)
C12 C 0.1926(5) 1.1697(9) 0.1075(8)
H14 H 0.1613 1.1267 0.1793
H15 H 0.1419 1.2668 0.0739
C13 C 0.1229(9) 1.3253(8) -0.1807(10)
H16 H 0.1949 1.3257 -0.2209
H17 H 0.1122 1.3807 -0.1378
H18 H 0.0492 1.3615 -0.2369
C14 C 0.1420(5) 1.1817(6) -0.0971(7)
C15 C 0.1746(5) 1.1115(7) 0.0224(7)
C16 C 0.1800(4) 0.9785(6) 0.0492(5)
C17 C 0.2145(7) 0.8592(8) 0.1648(6)
H19 H 0.2270 0.7778 0.1535
H20 H 0.1481 0.8726 0.2116
H21 H 0.2908 0.8497 0.2043
C18 C 0.0229(5) 0.9979(6) -0.3431(5)
C19 C 0.0901(5) 1.3019(5) -0.6644(5)
C20 C 0.1572(6) 1.6412(6) -0.9727(5)
Cu1_2 Cu 0.12706(7) 1.81901(7) -1.08289(6)
N1_2 N -0.2197(4) 1.2307(5) -0.5829(4)
Cu2_2 Cu 0.95301(7) 1.13210(9) 0.50606(7)
N3_2 N 0.3415(4) 1.2249(4) -0.8066(4)
Cu3_2 Cu 0.18414(7) 1.36329(7) 0.21832(7)
C20_2 C 0.1572(6) 0.6412(6) 0.0273(5)
loop_
_geom_bond_atom_site_label_1
_geom_bond_atom_site_label_2
_geom_bond_site_symmetry_1
_geom_bond_site_symmetry_2
Cu1 N5 1_555 1_555
N1 N2 1_555 1_555
C1 H1 1_555 1_555
H2 C1 1_555 1_555
H3 C1 1_555 1_555
N2 H4 1_555 1_555
C2 C1 1_555 1_555
Cu2 N7 1_555 1_555
N3 C7 1_555 1_555
C3 C2 1_555 1_555
Cu3 N8 1_555 1_555
C4 N1 1_555 1_555
N4 H5 1_555 1_555
N5 N4 1_555 1_555
C5 C4 1_555 1_555
H6 C5 1_555 1_555
H7 C5 1_555 1_555
H8 C5 1_555 1_555
C6 C3 1_555 1_555
H9 C6 1_555 1_555
H10 C6 1_555 1_555
N6 Cu1 1_555 1_555
C7 C6 1_555 1_555
N7 C19 1_555 1_555
C8 C7 1_555 1_555
H11 C8 1_555 1_555
N8 C20 1_555 1_555
C9 C8 1_555 1_555
H12 C9 1_555 1_555
C10 C9 1_555 1_555
H13 C10 1_555 1_555
C11 N3 1_555 1_555
C12 C11 1_555 1_555
H14 C12 1_555 1_555
H15 C12 1_555 1_555
C13 H16 1_555 1_555
H17 C13 1_555 1_555
H18 C13 1_555 1_555
C14 N4 1_555 1_555
C15 C12 1_555 1_555
C16 N5 1_555 1_555
C17 C16 1_555 1_555
H19 C17 1_555 1_555
H20 C17 1_555 1_555
H21 C17 1_555 1_555
C18 Cu2 1_555 1_555
C19 Cu3 1_555 1_555
C20 Cu1_2 1_555 1_555
N1_2 Cu2 1_555 1_555
Cu2_2 N1 1_555 1_555
N3_2 Cu3 1_555 1_555
Cu3_2 N3 1_555 1_555
C20_2 Cu1 1_555 1_555
N2 C2 1_555 1_555
C3 C4 1_555 1_555
N6 C18 1_555 1_555
C10 C11 1_555 1_555
C13 C14 1_555 1_555
C14 C15 1_555 1_555
C15 C16 1_555 1_555

#END
