
#######################################################################
#
#                 Cambridge Crystallographic Data Centre
#                                CCDC 
#
#######################################################################
#
# If this CIF has been generated from an entry in the Cambridge 
# Structural Database, then it will include bibliographic, chemical, 
# crystal, experimental, refinement or atomic coordinate data resulting 
# from the CCDC's data processing and validation procedures.
#
#######################################################################

data_FIGXAW
_symmetry_cell_setting           monoclinic
_symmetry_space_group_name_H-M   'P 21/n'
_symmetry_Int_Tables_number      14
_space_group_name_Hall           '-P 2yn'
loop_
_symmetry_equiv_pos_site_id
_symmetry_equiv_pos_as_xyz
1 x,y,z
2 1/2-x,1/2+y,1/2-z
3 -x,-y,-z
4 1/2+x,1/2-y,1/2+z
_cell_length_a                   14.2941(4)
_cell_length_b                   16.7256(5)
_cell_length_c                   15.4016(4)
_cell_angle_alpha                90
_cell_angle_beta                 115.904(2)
_cell_angle_gamma                90
_cell_volume                     3312.22
loop_
_atom_site_label
_atom_site_type_symbol
_atom_site_fract_x
_atom_site_fract_y
_atom_site_fract_z
Cd1 Cd 0.16716(3) 0.63025(2) 0.79338(3)
O1 O 0.2039(3) 0.4285(3) 0.4210(3)
O2 O 0.5650(3) 0.4260(2) 0.6984(3)
O3 O 0.7722(3) 0.4425(2) 1.0653(3)
N1 N 0.2320(4) 0.5412(3) 0.7144(3)
O4 O 0.4597(3) 0.4193(3) 0.7784(3)
O5 O 0.0681(3) 0.4951(3) 0.4227(3)
O6 O 0.1135(3) 0.7179(2) -0.1216(3)
O7 O 0.0923(3) 0.6900(2) 0.6461(3)
O8 O -0.0062(4) 0.6994(3) 0.2812(3)
O9 O 0.0981(4) 0.6246(3) 0.2408(3)
O10 O -0.0636(3) 0.7191(2) 0.6425(3)
O11 O 0.9115(3) 0.5144(3) 1.0829(3)
O12 O -0.0371(3) 0.6821(2) -0.1193(3)
N2 N 0.2390(4) 0.7734(3) 0.1685(3)
N3 N 0.7960(4) 0.5472(3) 0.7887(3)
N4 N -0.1757(4) 0.7990(3) 0.3618(3)
C1 C 0.7082(4) 0.5099(3) 0.7306(4)
H1 H 0.6823 0.5162 0.6627
C2 C 0.6534(4) 0.4621(3) 0.7668(4)
C3 C 0.5125(4) 0.3753(3) 0.7350(4)
H2 H 0.5632 0.3388 0.7833
H3 H 0.4619 0.3423 0.6818
C4 C 0.6899(4) 0.4539(3) 0.8655(4)
H4 H 0.6521 0.4234 0.8915
C5 C 0.7818(4) 0.4905(3) 0.9255(4)
C6 C 0.8255(4) 0.4823(3) 1.0335(4)
C7 C 0.3234(4) 0.5047(4) 0.7618(4)
H5 H 0.3603 0.5130 0.8295
C8 C 0.3673(4) 0.4553(4) 0.7177(4)
C9 C 0.3163(4) 0.4446(4) 0.6189(4)
H6 H 0.3468 0.4141 0.5858
C10 C 0.2193(4) 0.4796(4) 0.5695(4)
C11 C 0.1592(4) 0.4670(3) 0.4618(4)
C12 C 0.1792(5) 0.5271(4) 0.6186(4)
H7 H 0.1126 0.5506 0.5840
C13 C -0.0014(4) 0.7128(3) 0.6057(4)
C14 C -0.0438(4) 0.7354(4) 0.4997(4)
C15 C 0.0043(5) 0.7073(4) 0.4440(4)
H8 H 0.0663 0.6765 0.4720
C16 C -0.0411(6) 0.7257(5) 0.3461(5)
C17 C 0.0899(5) 0.6569(4) 0.3202(4)
H9 H 0.1487 0.6935 0.3560
H10 H 0.0894 0.6142 0.3645
C18 C 0.1265(5) 0.6758(3) 0.1854(4)
C19 C 0.0737(4) 0.6672(3) 0.0859(4)
H11 H 0.0159 0.6321 0.0576
C20 C 0.1081(4) 0.7115(3) 0.0290(4)
C21 C 0.1902(4) 0.7632(3) 0.0724(4)
H12 H 0.2135 0.7929 0.0329
C22 C 0.2081(5) 0.7298(4) 0.2244(4)
H13 H 0.2431 0.7360 0.2925
C23 C 0.0571(4) 0.7026(3) -0.0798(4)
C24 C -0.1283(5) 0.7737(4) 0.3089(4)
H14 H -0.1557 0.7894 0.2431
C25 C -0.1353(4) 0.7790(3) 0.4554(4)
H15 H -0.1703 0.7951 0.4926
C26 C 0.8330(4) 0.5373(3) 0.8841(4)
H16 H 0.8962 0.5629 0.9253
Cd2 Cd -0.12354(3) 0.63581(2) 0.72648(3)
O13 O 0.0181(3) 0.5546(2) 0.7527(3)
H17 H 0.0016 0.5338 0.6965
H18 H 0.0377 0.5241 0.8111
Cd1_2 Cd 0.16716(3) 0.63025(2) -0.20662(3)
Cd1B Cd 0.83284(3) 0.36975(2) 1.20662(3)
Cd1C Cd -0.33284(3) 0.86975(2) 0.29338(3)
O1B O -0.2039(3) 0.5715(3) 0.5790(3)
O3B O 0.2278(3) 0.5575(2) 0.9347(3)
O6_2 O 0.1135(3) 0.7179(2) 0.8784(3)
O12_2 O -0.0371(3) 0.6821(2) 0.8807(3)
N2C N -0.2610(4) 0.7266(3) 0.6685(3)
N3_2 N -0.2040(4) 0.5472(3) 0.7887(3)
N4C N 0.3243(4) 0.7010(3) 0.8618(3)
Cd2_2 Cd -0.12354(3) 0.63581(2) -0.27352(3)
Cd2_3 Cd 0.87646(3) 0.63581(2) 0.72648(3)
Cd2B Cd 0.12354(3) 0.36419(2) 0.27352(3)
Cd2C Cd 0.37646(3) 0.86419(2) 0.22648(3)
C27 C 0.0708(7) 0.9165(6) 0.4465(8)
H19 H 0.0206 0.9300 0.3806
H20 H 0.1048 0.9655 0.4808
H21 H 0.0345 0.8908 0.4803
C28 C 0.1546(8) 0.8580(6) 0.4432(7)
N5 N 0.2269(7) 0.8367(5) 0.5265(6)
C29 C 0.3120(7) 0.7815(6) 0.5325(8)
H22 H 0.3050 0.7708 0.4674
H23 H 0.3070 0.7312 0.5628
H24 H 0.3796 0.8065 0.5712
O14 O 0.1553(5) 0.8357(3) 0.3663(4)
C30 C 0.2283(9) 0.8585(6) 0.6211(7)
H25 H 0.1635 0.8861 0.6099
H26 H 0.2875 0.8938 0.6568
H27 H 0.2348 0.8098 0.6588
O15 O -0.0139(8) 0.8673(6) 0.1828(7)
H28 H -0.0084 0.8820 0.1339
H29 H 0.0366 0.8573 0.2378
O16 O 0.0052(15) 0.9167(12) 0.0196(14)
loop_
_geom_bond_atom_site_label_1
_geom_bond_atom_site_label_2
_geom_bond_site_symmetry_1
_geom_bond_site_symmetry_2
Cd1 N1 1_555 1_555
O1 C11 1_555 1_555
O2 C2 1_555 1_555
O3 C6 1_555 1_555
N1 C7 1_555 1_555
O4 C3 1_555 1_555
O5 C11 1_555 1_555
O6 C23 1_555 1_555
O7 Cd1 1_555 1_555
O8 C16 1_555 1_555
O9 C17 1_555 1_555
O10 C13 1_555 1_555
O11 C6 1_555 1_555
O12 C23 1_555 1_555
N2 C21 1_555 1_555
N3 C1 1_555 1_555
N4 C24 1_555 1_555
C1 H1 1_555 1_555
C2 C1 1_555 1_555
C3 O2 1_555 1_555
H2 C3 1_555 1_555
H3 C3 1_555 1_555
C4 C2 1_555 1_555
H4 C4 1_555 1_555
C5 C4 1_555 1_555
C6 C5 1_555 1_555
C7 H5 1_555 1_555
C8 O4 1_555 1_555
C9 C8 1_555 1_555
H6 C9 1_555 1_555
C10 C9 1_555 1_555
C11 C10 1_555 1_555
C12 N1 1_555 1_555
H7 C12 1_555 1_555
C13 O7 1_555 1_555
C14 C13 1_555 1_555
C15 C14 1_555 1_555
H8 C15 1_555 1_555
C16 C15 1_555 1_555
C17 O8 1_555 1_555
H9 C17 1_555 1_555
H10 C17 1_555 1_555
C18 O9 1_555 1_555
C19 C18 1_555 1_555
H11 C19 1_555 1_555
C20 C19 1_555 1_555
C21 C20 1_555 1_555
H12 C21 1_555 1_555
C22 N2 1_555 1_555
H13 C22 1_555 1_555
C23 C20 1_555 1_555
C24 C16 1_555 1_555
H14 C24 1_555 1_555
C25 N4 1_555 1_555
H15 C25 1_555 1_555
C26 N3 1_555 1_555
H16 C26 1_555 1_555
Cd2 O10 1_555 1_555
O13 Cd1 1_555 1_555
H17 O13 1_555 1_555
H18 O13 1_555 1_555
C27 H19 1_555 1_555
H20 C27 1_555 1_555
H21 C27 1_555 1_555
C28 C27 1_555 1_555
N5 C28 1_555 1_555
C29 N5 1_555 1_555
H22 C29 1_555 1_555
H23 C29 1_555 1_555
H24 C29 1_555 1_555
O14 C28 1_555 1_555
C30 N5 1_555 1_555
H25 C30 1_555 1_555
H26 C30 1_555 1_555
H27 C30 1_555 1_555
O15 H28 1_555 1_555
H29 O15 1_555 1_555
Cd1_2 O6 1_555 1_555
Cd1B O3 1_555 1_555
Cd1C N4 1_555 1_555
O1B Cd2 1_555 1_555
O3B Cd1 1_555 1_555
O6_2 Cd1 1_555 1_555
O12_2 Cd2 1_555 1_555
N2C Cd2 1_555 1_555
N3_2 Cd2 1_555 1_555
N4C Cd1 1_555 1_555
Cd2_2 O12 1_555 1_555
Cd2_3 N3 1_555 1_555
Cd2B O1 1_555 1_555
Cd2C N2 1_555 1_555
C5 C26 1_555 1_555
C7 C8 1_555 1_555
C10 C12 1_555 1_555
C14 C25 1_555 1_555
C18 C22 1_555 1_555
Cd2 O13 1_555 1_555

#END
