
#######################################################################
#
#                 Cambridge Crystallographic Data Centre
#                                CCDC 
#
#######################################################################
#
# If this CIF has been generated from an entry in the Cambridge 
# Structural Database, then it will include bibliographic, chemical, 
# crystal, experimental, refinement or atomic coordinate data resulting 
# from the CCDC's data processing and validation procedures.
#
#######################################################################

data_FINQOK
_symmetry_cell_setting           triclinic
_symmetry_space_group_name_H-M   'P -1'
_symmetry_Int_Tables_number      2
_space_group_name_Hall           '-P 1'
loop_
_symmetry_equiv_pos_site_id
_symmetry_equiv_pos_as_xyz
1 x,y,z
2 -x,-y,-z
_cell_length_a                   12.042(3)
_cell_length_b                   13.967(3)
_cell_length_c                   22.754(5)
_cell_angle_alpha                95.802(4)
_cell_angle_beta                 105.211(4)
_cell_angle_gamma                104.118(4)
_cell_volume                     3525.22
loop_
_atom_site_label
_atom_site_type_symbol
_atom_site_fract_x
_atom_site_fract_y
_atom_site_fract_z
As1 As 0.76236(11) 0.19415(9) -0.20594(6)
Ag1 Ag 1.31415(12) 1.07520(8) -0.05973(5)
Ag2 Ag 1.47315(11) 0.65190(12) -0.19687(6)
Ag3 Ag 0.81322(17) 0.32947(12) -0.56619(8)
Ag4 Ag 0.89782(10) 0.61789(10) -0.32532(6)
Ag5 Ag 0.34783(12) 0.83760(10) -0.49887(7)
Ag6 Ag 1.35572(11) 0.48613(12) -0.35417(6)
Ag7 Ag 1.01496(10) 0.44071(8) -0.41801(6)
Mo1 Mo 0.71169(12) 0.09147(9) -0.07585(6)
Mo2 Mo 0.61017(12) 0.05405(9) -0.35546(6)
Mo3 Mo 0.83257(12) 0.30408(10) -0.33042(6)
Mo4 Mo 0.54413(11) -0.04134(9) -0.23348(6)
Mo5 Mo 1.03421(11) 0.20530(10) -0.24180(6)
Mo6 Mo 0.69695(11) 0.42066(9) -0.15958(6)
Mo7 Mo 0.48871(11) 0.19817(9) -0.17244(6)
Mo8 Mo 0.99115(11) 0.42541(9) -0.18543(6)
Mo9 Mo 0.80829(11) -0.04027(9) -0.26133(6)
Mo10 Mo 0.98002(11) 0.10916(9) -0.10334(6)
Mo11 Mo 0.91219(12) 0.32070(9) -0.05107(6)
Mo12 Mo 0.53737(11) 0.28196(10) -0.30146(6)
O1 O 0.8678(7) 0.2603(6) -0.2319(4)
O2 O 0.8230(8) 0.1834(6) -0.1335(4)
O3 O 0.7008(7) 0.0797(6) -0.2501(4)
O4 O 0.6572(8) 0.2537(6) -0.2086(4)
O5 O 0.6948(10) 0.5331(8) -0.1253(5)
O6 O 0.5370(9) 0.0096(8) -0.4302(4)
O7 O 0.4422(9) -0.1459(7) -0.2303(5)
O8 O 0.8232(9) 0.3339(8) -0.4010(5)
O9 O 0.8668(10) -0.1336(7) -0.2765(5)
O10 O 1.0900(10) 0.0605(8) -0.0677(5)
O11 O 0.9282(8) 0.0811(7) -0.2689(5)
O12 O 1.0242(9) 0.2368(7) -0.0490(5)
O13 O 0.4302(8) 0.2272(8) -0.2541(5)
O14 O 0.5086(8) -0.0408(7) -0.3197(4)
O15 O 0.7164(9) -0.0310(7) -0.3418(4)
O16 O 0.6721(9) -0.1074(6) -0.2440(5)
O17 O 0.7324(8) 0.1626(7) -0.3560(4)
O18 O 0.8654(9) 0.0612(7) -0.0601(4)
O19 O 0.5286(8) 0.1500(7) -0.3347(4)
O20 O 0.6463(9) -0.0028(6) -0.1467(4)
O21 O 0.8138(9) 0.2232(7) -0.0221(4)
O22 O 0.9234(9) 0.4232(7) -0.2767(5)
O23 O 1.0926(8) 0.3549(7) -0.2055(5)
O24 O 0.5994(9) 0.1612(6) -0.1082(4)
O25 O 0.9897(8) 0.3814(7) -0.1124(5)
O26 O 0.9687(9) 0.2519(7) -0.3183(5)
O27 O 0.4820(8) 0.0629(7) -0.2170(4)
O28 O 0.3608(9) 0.1688(8) -0.1526(5)
O29 O 1.0524(9) 0.1832(7) -0.1587(4)
O30 O 0.6841(8) 0.3217(7) -0.3195(4)
O31 O 0.9884(10) 0.4017(8) 0.0142(5)
O32 O 0.4404(10) 0.3142(8) -0.3581(5)
O33 O 0.8329(8) 0.4489(7) -0.1840(4)
O34 O 0.8925(9) 0.0120(7) -0.1733(4)
O35 O 0.5512(9) 0.3333(7) -0.1409(4)
O36 O 0.5906(9) 0.4058(7) -0.2396(5)
O37 O 0.6535(10) 0.0369(7) -0.0245(5)
O38 O 1.1607(10) 0.1923(9) -0.2530(6)
O39 O 1.0807(9) 0.5437(7) -0.1656(5)
O40 O 0.7878(9) 0.3721(7) -0.0892(4)
N1 N 1.2560(12) 0.9351(9) -0.1250(6)
N2 N 1.5504(10) 0.5818(10) -0.3111(5)
N3 N 1.5985(9) 0.6366(8) -0.2531(5)
N4 N 1.7414(10) 0.6210(9) -0.2924(6)
N5 N 1.2780(9) 0.6309(8) -0.2567(5)
N6 N 1.2350(10) 0.5595(9) -0.3067(5)
N7 N 0.8113(10) 0.5769(9) -0.4406(5)
N8 N 0.8034(11) 0.4761(9) -0.5213(5)
N9 N 1.4012(12) 1.2226(9) 0.0665(6)
N10 N 1.6352(11) 0.5720(10) -0.3351(5)
N11 N 1.1220(10) 0.5590(9) -0.3349(5)
N12 N 0.7143(11) 0.5193(9) -0.5395(5)
N13 N 0.0285(13) 1.3036(11) -0.4690(8)
N14 N -0.0117(14) 1.1859(10) -0.5489(9)
N15 N 1.9735(11) 0.8117(9) -0.0745(6)
N16 N 0.2381(13) 0.9379(11) -0.5012(8)
N17 N 1.7645(13) 1.6307(12) 0.0612(10)
N18 N 1.4743(11) 1.3130(9) 0.0929(6)
N19 N 0.4673(12) 0.7446(10) -0.4901(6)
N20 N 1.0909(10) 0.6267(9) -0.3042(5)
N21 N 0.8622(10) 0.5096(8) -0.4632(6)
N22 N 0.1027(14) 1.2467(11) -0.4512(9)
N23 N 1.4731(12) 1.2872(9) -0.0048(6)
N24 N 1.4016(11) 1.2090(9) 0.0083(6)
N25 N -0.0365(15) 1.2662(10) -0.5258(8)
C1 C 0.2177(19) 1.0861(16) -0.4480(12)
H1 H 0.2397 1.1332 -0.4120
C2 C 0.2673(17) 1.0082(16) -0.4505(12)
H2 H 0.3243 1.0034 -0.4151
C3 C 0.1329(15) 1.0925(13) -0.5014(11)
C4 C 0.1044(17) 1.0224(13) -0.5514(9)
H3 H 0.0467 1.0250 -0.5871
C5 C 0.1588(17) 0.9458(12) -0.5514(10)
H4 H 0.1391 0.8993 -0.5874
C6 C 1.9199(11) 0.6961(11) -0.1676(6)
H5 H 1.9399 0.6511 -0.1932
C7 C 1.7163(12) 0.6575(9) -0.2427(6)
C8 C 1.1785(17) 0.9199(11) -0.1817(8)
H6 H 1.1424 0.9701 -0.1920
C9 C 0.5213(13) 0.6065(9) -0.5305(6)
H7 H 0.5004 0.5479 -0.5593
C10 C 1.3045(14) 0.8624(11) -0.1103(7)
H8 H 1.3579 0.8710 -0.0710
C11 C 0.4422(12) 0.6597(11) -0.5306(6)
H9 H 0.3670 0.6368 -0.5598
C12 C 1.7502(17) 1.5514(15) 0.0202(10)
H10 H 1.7973 1.5585 -0.0065
C13 C 0.6344(12) 0.6390(9) -0.4874(6)
C14 C 1.8084(12) 0.7132(10) -0.1846(6)
C15 C 1.5157(12) 1.3517(10) 0.0483(7)
C16 C 0.7187(12) 0.5781(9) -0.4882(6)
C17 C 1.1870(11) 0.6737(9) -0.2562(6)
C18 C 1.6737(16) 1.4627(14) 0.0142(8)
H11 H 1.6679 1.4091 -0.0154
C19 C 1.1485(14) 0.8353(11) -0.2258(8)
H12 H 1.0949 0.8285 -0.2648
C20 C 0.0763(15) 1.1760(12) -0.4990(11)
C21 C 1.6007(12) 1.4515(10) 0.0544(7)
C22 C 1.8638(14) 0.8268(11) -0.0908(7)
H13 H 1.8448 0.8700 -0.0636
C23 C 1.2792(13) 0.7745(11) -0.1505(7)
H14 H 1.3141 0.7244 -0.1381
C24 C 0.6580(15) 0.7218(12) -0.4440(7)
H15 H 0.7297 0.7419 -0.4120
C25 C 1.7812(12) 0.7813(10) -0.1450(6)
H16 H 1.7073 0.7949 -0.1561
C26 C 1.2021(11) 0.7604(10) -0.2093(6)
C27 C 1.6952(18) 1.6220(12) 0.0999(11)
H17 H 1.7030 1.6778 0.1283
C28 C 1.6138(15) 1.5325(13) 0.0983(9)
H18 H 1.5688 1.5269 0.1260
C29 C 1.9997(12) 0.7464(12) -0.1125(8)
H19 H 2.0749 0.7353 -0.1008
C30 C 0.5769(16) 0.7746(12) -0.4474(9)
H20 H 0.5971 0.8339 -0.4193
Ag1_2 Ag 0.31415(12) 0.07520(8) -0.05973(5)
Ag1_3 Ag 1.31415(12) 0.07520(8) -0.05973(5)
Ag1A Ag 0.68585(12) -0.07520(8) 0.05973(5)
Ag2A Ag 1.52685(11) 1.34810(12) 0.19687(6)
Ag3_2 Ag -0.18678(17) 1.32947(12) -0.56619(8)
Ag4_2 Ag 1.89782(10) 0.61789(10) -0.32532(6)
Ag6A Ag 0.64428(11) 0.51387(12) -0.64583(6)
Ag7_2 Ag 0.01496(10) 1.44071(8) -0.41801(6)
O10_2 O 1.0900(10) 1.0605(8) -0.0677(5)
O28_2 O 1.3608(9) 1.1688(8) -0.1526(5)
O37A O 1.3465(10) 0.9631(7) 0.0245(5)
N4_2 N 0.7414(10) 0.6210(9) -0.2924(6)
N12A N 1.2857(11) 0.4807(9) -0.4605(5)
N13_2 N 1.0285(13) 0.3036(11) -0.4690(8)
N18A N 1.5257(11) 0.6870(9) -0.0929(6)
N25_2 N 0.9635(15) 0.2662(10) -0.5258(8)
O41 O 1.2042(9) 0.3000(7) -0.3454(4)
loop_
_geom_bond_atom_site_label_1
_geom_bond_atom_site_label_2
_geom_bond_site_symmetry_1
_geom_bond_site_symmetry_2
As1 O1 1_555 1_555
Ag1 N1 1_555 1_555
Ag2 N3 1_555 1_555
Ag3 N8 1_555 1_555
Ag4 N7 1_555 1_555
Ag5 N16 1_555 1_555
Ag6 N2 1_555 1_555
Ag7 O8 1_555 1_555
Mo1 O2 1_555 1_555
Mo2 O3 1_555 1_555
Mo3 O1 1_555 1_555
Mo4 O3 1_555 1_555
Mo5 O1 1_555 1_555
Mo6 O4 1_555 1_555
Mo7 O4 1_555 1_555
Mo8 O1 1_555 1_555
Mo9 O3 1_555 1_555
Mo10 O2 1_555 1_555
Mo11 O2 1_555 1_555
Mo12 O4 1_555 1_555
O2 As1 1_555 1_555
O3 As1 1_555 1_555
O4 As1 1_555 1_555
O5 Mo6 1_555 1_555
O6 Mo2 1_555 1_555
O7 Mo4 1_555 1_555
O8 Mo3 1_555 1_555
O9 Mo9 1_555 1_555
O10 Mo10 1_555 1_555
O11 Mo5 1_555 1_555
O12 Mo10 1_555 1_555
O13 Mo7 1_555 1_555
O14 Mo2 1_555 1_555
O15 Mo2 1_555 1_555
O16 Mo4 1_555 1_555
O17 Mo2 1_555 1_555
O18 Mo1 1_555 1_555
O19 Mo2 1_555 1_555
O20 Mo1 1_555 1_555
O21 Mo1 1_555 1_555
O22 Mo3 1_555 1_555
O23 Mo5 1_555 1_555
O24 Mo1 1_555 1_555
O25 Mo8 1_555 1_555
O26 Mo3 1_555 1_555
O27 Mo4 1_555 1_555
O28 Mo7 1_555 1_555
O29 Mo5 1_555 1_555
O30 Mo3 1_555 1_555
O31 Mo11 1_555 1_555
O32 Mo12 1_555 1_555
O33 Mo6 1_555 1_555
O34 Mo9 1_555 1_555
O35 Mo6 1_555 1_555
O36 Mo6 1_555 1_555
O37 Mo1 1_555 1_555
O38 Mo5 1_555 1_555
O39 Mo8 1_555 1_555
O40 Mo6 1_555 1_555
N1 C8 1_555 1_555
N2 N3 1_555 1_555
N3 C7 1_555 1_555
N4 N10 1_555 1_555
N5 Ag2 1_555 1_555
N6 Ag6 1_555 1_555
N7 N21 1_555 1_555
N8 N12 1_555 1_555
N9 N18 1_555 1_555
N10 N2 1_555 1_555
N11 Ag7 1_555 1_555
N12 C16 1_555 1_555
N13 N22 1_555 1_555
N14 N25 1_555 1_555
N15 C22 1_555 1_555
N16 C2 1_555 1_555
N17 C12 1_555 1_555
N18 C15 1_555 1_555
N19 Ag5 1_555 1_555
N20 Ag4 1_555 1_555
N21 Ag7 1_555 1_555
N22 C20 1_555 1_555
N23 N24 1_555 1_555
N24 Ag1 1_555 1_555
N25 N13 1_555 1_555
C1 H1 1_555 1_555
C2 C1 1_555 1_555
H2 C2 1_555 1_555
C3 C1 1_555 1_555
C4 C3 1_555 1_555
H3 C4 1_555 1_555
C5 N16 1_555 1_555
H4 C5 1_555 1_555
C6 H5 1_555 1_555
C7 N4 1_555 1_555
C8 H6 1_555 1_555
C9 H7 1_555 1_555
C10 N1 1_555 1_555
H8 C10 1_555 1_555
C11 N19 1_555 1_555
H9 C11 1_555 1_555
C12 H10 1_555 1_555
C13 C9 1_555 1_555
C14 C6 1_555 1_555
C15 N23 1_555 1_555
C16 N7 1_555 1_555
C17 N5 1_555 1_555
C18 C12 1_555 1_555
H11 C18 1_555 1_555
C19 C8 1_555 1_555
H12 C19 1_555 1_555
C20 N14 1_555 1_555
C21 C15 1_555 1_555
C22 H13 1_555 1_555
C23 C10 1_555 1_555
H14 C23 1_555 1_555
C24 C13 1_555 1_555
H15 C24 1_555 1_555
C25 C14 1_555 1_555
H16 C25 1_555 1_555
C26 C17 1_555 1_555
C27 N17 1_555 1_555
H17 C27 1_555 1_555
C28 C21 1_555 1_555
H18 C28 1_555 1_555
C29 N15 1_555 1_555
H19 C29 1_555 1_555
C30 N19 1_555 1_555
H20 C30 1_555 1_555
Ag1_2 O28 1_555 1_555
Ag1_3 O10 1_555 1_555
Ag1A O37 1_555 1_555
Ag2A N18 1_555 1_555
Ag3_2 N25 1_555 1_555
Ag4_2 N4 1_555 1_555
Ag6A N12 1_555 1_555
Ag7_2 N13 1_555 1_555
O10_2 Ag1 1_555 1_555
O28_2 Ag1 1_555 1_555
O37A Ag1 1_555 1_555
N4_2 Ag4 1_555 1_555
N12A Ag6 1_555 1_555
N13_2 Ag7 1_555 1_555
N18A Ag2 1_555 1_555
N25_2 Ag3 1_555 1_555
Mo3 O17 1_555 1_555
Mo4 O14 1_555 1_555
Mo4 O20 1_555 1_555
Mo5 O26 1_555 1_555
Mo7 O24 1_555 1_555
Mo7 O27 1_555 1_555
Mo7 O35 1_555 1_555
Mo8 O22 1_555 1_555
Mo8 O23 1_555 1_555
Mo8 O33 1_555 1_555
Mo9 O11 1_555 1_555
Mo9 O15 1_555 1_555
Mo9 O16 1_555 1_555
Mo10 O18 1_555 1_555
Mo10 O29 1_555 1_555
Mo10 O34 1_555 1_555
Mo11 O12 1_555 1_555
Mo11 O21 1_555 1_555
Mo11 O25 1_555 1_555
Mo11 O40 1_555 1_555
Mo12 O13 1_555 1_555
Mo12 O19 1_555 1_555
Mo12 O30 1_555 1_555
Mo12 O36 1_555 1_555
N5 N6 1_555 1_555
N6 N11 1_555 1_555
N8 N21 1_555 1_555
N9 N24 1_555 1_555
N11 N20 1_555 1_555
N20 C17 1_555 1_555
C3 C20 1_555 1_555
C4 C5 1_555 1_555
C6 C29 1_555 1_555
C7 C14 1_555 1_555
C9 C11 1_555 1_555
C13 C16 1_555 1_555
C18 C21 1_555 1_555
C19 C26 1_555 1_555
C22 C25 1_555 1_555
C23 C26 1_555 1_555
C24 C30 1_555 1_555
C27 C28 1_555 1_555
N13_2 N25_2 1_555 1_555

#END
