
#######################################################################
#
#                 Cambridge Crystallographic Data Centre
#                                CCDC 
#
#######################################################################
#
# If this CIF has been generated from an entry in the Cambridge 
# Structural Database, then it will include bibliographic, chemical, 
# crystal, experimental, refinement or atomic coordinate data resulting 
# from the CCDC's data processing and validation procedures.
#
#######################################################################

data_FIPKUM
_symmetry_cell_setting           triclinic
_symmetry_space_group_name_H-M   'P -1'
_symmetry_Int_Tables_number      2
_space_group_name_Hall           '-P 1'
loop_
_symmetry_equiv_pos_site_id
_symmetry_equiv_pos_as_xyz
1 x,y,z
2 -x,-y,-z
_cell_length_a                   10.004(2)
_cell_length_b                   10.293(2)
_cell_length_c                   17.914(4)
_cell_angle_alpha                103.66(3)
_cell_angle_beta                 99.58(3)
_cell_angle_gamma                93.45(3)
_cell_volume                     1757.9
loop_
_atom_site_label
_atom_site_type_symbol
_atom_site_fract_x
_atom_site_fract_y
_atom_site_fract_z
C1 C 0.6829(4) 0.4955(4) -0.2836(2)
C2 C 0.5796(3) 0.5241(3) -0.23073(19)
C3 C 0.4419(3) 0.4977(3) -0.2638(2)
H1 H 0.4152 0.4657 -0.3177
C4 C 0.3440(3) 0.5189(3) -0.21709(19)
C5 C 0.1954(4) 0.4903(3) -0.2529(2)
C6 C 0.3837(3) 0.5688(3) -0.1369(2)
H2 H 0.3181 0.5820 -0.1054
C7 C 0.5209(3) 0.5991(3) -0.10323(19)
C8 C 0.6186(3) 0.5764(3) -0.1509(2)
H3 H 0.7107 0.5966 -0.1288
C9 C 0.4958(4) 0.7344(4) 0.0251(2)
C10 C 0.5477(4) 0.7658(4) 0.1112(2)
C11 C 0.6859(4) 0.7823(4) 0.1441(2)
H4 H 0.7507 0.7686 0.1121
C12 C 0.7264(4) 0.8193(4) 0.2247(2)
H5 H 0.8187 0.8311 0.2466
C13 C 0.6312(4) 0.8386(4) 0.2727(2)
C14 C 0.4940(4) 0.8185(4) 0.2401(2)
H6 H 0.4294 0.8298 0.2723
C15 C 0.4523(4) 0.7816(4) 0.1599(2)
H7 H 0.3598 0.7673 0.1384
C16 C 0.6716(4) 0.8910(4) 0.3596(2)
C17 C 0.8205(4) 0.8676(3) 0.4782(2)
C18 C 0.8539(4) 0.7667(3) 0.5155(2)
H8 H 0.8424 0.6773 0.4873
C19 C 0.9046(4) 0.8006(3) 0.5955(2)
C20 C 0.9376(4) 0.6937(4) 0.6392(2)
C21 C 0.9216(4) 0.9343(3) 0.6374(2)
H9 H 0.9555 0.9566 0.6909
C22 C 0.8881(3) 1.0355(3) 0.59987(19)
C23 C 0.9071(3) 1.1800(3) 0.6459(2)
C24 C 0.8403(4) 1.0009(3) 0.5200(2)
H10 H 0.8212 1.0680 0.4941
N1 N 0.7686(3) 0.8305(3) 0.39606(16)
H11 H 0.8017 0.7650 0.3679
N2 N 0.5636(3) 0.6495(3) -0.02151(16)
H12 H 0.6377 0.6245 0.0001
O1 O 0.8064(2) 0.4956(3) -0.25109(15)
O2 O 0.6430(3) 0.4759(4) -0.35463(16)
O3 O 0.1612(3) 0.4341(3) -0.32489(16)
O4 O 0.1077(2) 0.5222(3) -0.21137(17)
O5 O 0.3947(3) 0.7837(3) -0.00041(16)
O6 O 0.6159(4) 0.9841(4) 0.39305(17)
O7 O 0.9125(3) 0.5712(2) 0.60148(15)
O8 O 0.9865(4) 0.7296(3) 0.70941(17)
O9 O 0.9426(3) 1.2081(3) 0.71797(15)
O10 O 0.8871(2) 1.2703(2) 0.60817(14)
Zn1 Zn 0.94399(4) 0.45780(4) -0.32053(2)
O3_2 O 1.1612(3) 0.4341(3) -0.32489(16)
O4_2 O 1.1077(2) 0.5222(3) -0.21137(17)
O7_2 O 0.9125(3) 0.5712(2) -0.39852(15)
O10_2 O 0.8871(2) 0.2703(2) -0.39183(14)
Zn1_2 Zn -0.05601(4) 0.45780(4) -0.32053(2)
Zn1_3 Zn 0.94399(4) 0.45780(4) 0.67947(2)
Zn1_4 Zn 0.94399(4) 1.45780(4) 0.67947(2)
C25 C 0.6886(6) 0.9214(6) 0.8774(4)
H13 H 0.6504 0.9388 0.9222
C26 C 0.6578(7) 0.8595(7) 0.7387(4)
H14 H 0.7546 0.8560 0.7498
H15 H 0.6381 0.9287 0.7120
H16 H 0.6148 0.7744 0.7062
C27 C 0.4609(5) 0.8729(6) 0.8052(4)
H17 H 0.4264 0.7809 0.7806
H18 H 0.4198 0.9300 0.7745
H19 H 0.4392 0.8973 0.8566
N3 N 0.6067(4) 0.8885(4) 0.8109(3)
O11 O 0.8156(4) 0.9316(4) 0.8863(3)
C28 C 0.7447(8) 0.3507(7) 0.4382(3)
H20 H 0.7352 0.2664 0.3997
H21 H 0.8397 0.3804 0.4574
H22 H 0.7021 0.4163 0.4148
C29 C 0.5381(8) 0.2778(10) 0.4836(5)
H23 H 0.5104 0.2466 0.4279
H24 H 0.4823 0.3458 0.5033
H25 H 0.5279 0.2040 0.5071
N4 N 0.6801(5) 0.3340(5) 0.5024(2)
H26 H 0.6861 0.4150 0.5363
H27 H 0.7286 0.2810 0.5274
O12 O 0.8111(3) 0.5347(3) 0.01839(13)
H28 H 0.8272 0.4924 -0.0255
H29 H 0.8854 0.5557 0.0514
O13 O 0.9111(4) 0.4031(3) 0.88877(12)
H30 H 0.8829 0.4164 0.8440
H31 H 0.9302 0.3225 0.8835
O14 O 0.9612(4) 0.1446(3) 0.85597(13)
H32 H 0.9088 0.0867 0.8671
H33 H 0.9664 0.1201 0.8079
C30 C 0.1510(5) 0.8808(6) 0.8754(3)
H34 H 0.1353 0.9653 0.9074
H35 H 0.1513 0.8890 0.8231
H36 H 0.2375 0.8557 0.8964
C31 C 0.0376(5) 0.7566(6) 0.9500(3)
H37 H 0.1241 0.7328 0.9720
H38 H -0.0321 0.6853 0.9453
H39 H 0.0171 0.8376 0.9835
N5 N 0.0431(4) 0.7779(4) 0.8741(2)
H40 H -0.0376 0.8021 0.8543
H41 H 0.0563 0.7000 0.8421
loop_
_geom_bond_atom_site_label_1
_geom_bond_atom_site_label_2
_geom_bond_site_symmetry_1
_geom_bond_site_symmetry_2
C1 C2 1_555 1_555
C2 C3 1_555 1_555
C3 H1 1_555 1_555
C4 C3 1_555 1_555
C5 C4 1_555 1_555
C6 C4 1_555 1_555
H2 C6 1_555 1_555
C7 C6 1_555 1_555
C8 C2 1_555 1_555
H3 C8 1_555 1_555
C9 C10 1_555 1_555
C10 C11 1_555 1_555
C11 H4 1_555 1_555
C12 C11 1_555 1_555
H5 C12 1_555 1_555
C13 C12 1_555 1_555
C14 C13 1_555 1_555
H6 C14 1_555 1_555
C15 C10 1_555 1_555
H7 C15 1_555 1_555
C16 C13 1_555 1_555
C17 C18 1_555 1_555
C18 H8 1_555 1_555
C19 C18 1_555 1_555
C20 C19 1_555 1_555
C21 C19 1_555 1_555
H9 C21 1_555 1_555
C22 C21 1_555 1_555
C23 C22 1_555 1_555
C24 C17 1_555 1_555
H10 C24 1_555 1_555
N1 C16 1_555 1_555
H11 N1 1_555 1_555
N2 C7 1_555 1_555
H12 N2 1_555 1_555
O1 C1 1_555 1_555
O2 C1 1_555 1_555
O3 C5 1_555 1_555
O4 C5 1_555 1_555
O5 C9 1_555 1_555
O6 C16 1_555 1_555
O7 C20 1_555 1_555
O8 C20 1_555 1_555
O9 C23 1_555 1_555
O10 C23 1_555 1_555
Zn1 O1 1_555 1_555
C25 H13 1_555 1_555
C26 H14 1_555 1_555
H15 C26 1_555 1_555
H16 C26 1_555 1_555
C27 H17 1_555 1_555
H18 C27 1_555 1_555
H19 C27 1_555 1_555
N3 C25 1_555 1_555
O11 C25 1_555 1_555
C28 H20 1_555 1_555
H21 C28 1_555 1_555
H22 C28 1_555 1_555
C29 H23 1_555 1_555
H24 C29 1_555 1_555
H25 C29 1_555 1_555
N4 C28 1_555 1_555
H26 N4 1_555 1_555
H27 N4 1_555 1_555
O12 H28 1_555 1_555
H29 O12 1_555 1_555
O13 H30 1_555 1_555
H31 O13 1_555 1_555
O14 H32 1_555 1_555
H33 O14 1_555 1_555
C30 H34 1_555 1_555
H35 C30 1_555 1_555
H36 C30 1_555 1_555
C31 H37 1_555 1_555
H38 C31 1_555 1_555
H39 C31 1_555 1_555
N5 C30 1_555 1_555
H40 N5 1_555 1_555
H41 N5 1_555 1_555
O3_2 Zn1 1_555 1_555
O4_2 Zn1 1_555 1_555
O7_2 Zn1 1_555 1_555
O10_2 Zn1 1_555 1_555
Zn1_2 O3 1_555 1_555
Zn1_3 O7 1_555 1_555
Zn1_4 O10 1_555 1_555
C7 C8 1_555 1_555
C9 N2 1_555 1_555
C14 C15 1_555 1_555
C17 N1 1_555 1_555
C22 C24 1_555 1_555
O4 Zn1_2 1_555 1_555
C26 N3 1_555 1_555
C27 N3 1_555 1_555
C29 N4 1_555 1_555
C31 N5 1_555 1_555

#END
