
#######################################################################
#
#                 Cambridge Crystallographic Data Centre
#                                CCDC 
#
#######################################################################
#
# If this CIF has been generated from an entry in the Cambridge 
# Structural Database, then it will include bibliographic, chemical, 
# crystal, experimental, refinement or atomic coordinate data resulting 
# from the CCDC's data processing and validation procedures.
#
#######################################################################

data_FIPKOG
_symmetry_cell_setting           triclinic
_symmetry_space_group_name_H-M   'P -1'
_symmetry_Int_Tables_number      2
_space_group_name_Hall           '-P 1'
loop_
_symmetry_equiv_pos_site_id
_symmetry_equiv_pos_as_xyz
1 x,y,z
2 -x,-y,-z
_cell_length_a                   10.217(2)
_cell_length_b                   10.362(2)
_cell_length_c                   18.118(4)
_cell_angle_alpha                102.53(3)
_cell_angle_beta                 99.35(3)
_cell_angle_gamma                93.79(3)
_cell_volume                     1837.31
loop_
_atom_site_label
_atom_site_type_symbol
_atom_site_fract_x
_atom_site_fract_y
_atom_site_fract_z
C1 C 0.2159(5) -0.0124(5) -0.2488(3)
C2 C 0.3602(5) 0.0184(4) -0.2108(3)
C3 C 0.4616(5) -0.0046(5) -0.2538(3)
H1 H 0.4401 -0.0390 -0.3067
C4 C 0.5945(5) 0.0239(5) -0.2179(3)
C5 C 0.7043(5) -0.0064(5) -0.2642(3)
C6 C 0.6250(5) 0.0776(5) -0.1395(3)
H2 H 0.7139 0.0977 -0.1154
C7 C 0.5252(5) 0.1019(5) -0.0962(3)
C8 C 0.3934(5) 0.0700(5) -0.1317(3)
H3 H 0.3263 0.0830 -0.1026
C9 C 0.4921(5) 0.2331(5) 0.0281(3)
C10 C 0.5428(5) 0.2679(5) 0.1133(3)
C11 C 0.6781(5) 0.2849(5) 0.1452(3)
H4 H 0.7416 0.2715 0.1137
C12 C 0.7170(6) 0.3221(5) 0.2245(3)
H5 H 0.8074 0.3339 0.2458
C13 C 0.6244(6) 0.3420(5) 0.2723(3)
C14 C 0.6657(6) 0.3920(6) 0.3573(3)
C15 C 0.4894(6) 0.3230(5) 0.2399(3)
H6 H 0.4263 0.3349 0.2718
C16 C 0.4479(5) 0.2867(5) 0.1614(3)
H7 H 0.3574 0.2748 0.1403
C17 C 0.8132(5) 0.3638(5) 0.4726(3)
C18 C 0.8358(5) 0.4956(5) 0.5135(3)
H8 H 0.8162 0.5635 0.4886
C19 C 0.8883(5) 0.5255(5) 0.5922(3)
C20 C 0.9115(5) 0.6708(5) 0.6352(3)
C21 C 0.9201(5) 0.4238(5) 0.6279(3)
H9 H 0.9561 0.4439 0.6801
C22 C 0.8994(5) 0.2918(5) 0.5871(3)
C23 C 0.9306(5) 0.1802(5) 0.6269(3)
C24 C 0.8454(5) 0.2629(5) 0.5087(3)
H10 H 0.8311 0.1751 0.4807
Cd1 Cd -0.04815(3) -0.04702(3) -0.315817(19)
N1 N 0.5619(4) 0.1527(4) -0.0151(2)
H11 H 0.6343 0.1299 0.0078
N2 N 0.7591(5) 0.3309(4) 0.3924(2)
H12 H 0.7895 0.2660 0.3642
O1 O 0.1281(3) 0.0182(4) -0.2086(2)
O2 O 0.1869(3) -0.0648(3) -0.31945(19)
O3 O 0.6744(4) -0.0388(5) -0.3353(2)
O4 O 0.8215(4) 0.0032(4) -0.2277(2)
O5 O 0.3908(4) 0.2776(5) 0.0014(2)
O6 O 0.6106(5) 0.4840(5) 0.3916(2)
O7 O 0.9043(4) 0.0632(3) 0.5871(2)
O8 O 0.9780(5) 0.2071(4) 0.6957(2)
O9 O 0.8919(4) 0.7572(3) 0.5963(2)
O10 O 0.9524(4) 0.7011(4) 0.7058(2)
Cd1_2 Cd 0.95185(3) -0.04702(3) -0.315817(19)
Cd1_3 Cd 0.95185(3) -0.04702(3) 0.684183(19)
Cd1_4 Cd 0.95185(3) 0.95298(3) 0.684183(19)
O3_2 O -0.3256(4) -0.0388(5) -0.3353(2)
O4_2 O -0.1785(4) 0.0032(4) -0.2277(2)
O7_2 O -0.0957(4) 0.0632(3) -0.4129(2)
O8_2 O -0.0220(5) 0.2071(4) -0.3043(2)
O9_2 O -0.1081(4) -0.2428(3) -0.4037(2)
O10_2 O -0.0476(4) -0.2989(4) -0.2942(2)
C25 C 0.1517(7) 0.3647(8) 0.8619(5)
H13 H 0.1402 0.4484 0.8941
H14 H 0.1437 0.3729 0.8097
H15 H 0.2384 0.3397 0.8787
C26 C 0.0423(8) 0.2540(8) 0.9462(4)
H16 H 0.1281 0.2387 0.9714
H17 H -0.0223 0.1818 0.9452
H18 H 0.0166 0.3356 0.9737
N3 N 0.0493(5) 0.2631(5) 0.8670(3)
H19 H 0.0657 0.1836 0.8404
H20 H -0.0306 0.2809 0.8446
C27 C 0.7015(12) 0.4108(10) 0.8658(8)
H21 H 0.6725 0.4323 0.9126
C28 C 0.6547(13) 0.3453(12) 0.7308(8)
H22 H 0.6370 0.4145 0.7040
H23 H 0.6064 0.2630 0.7010
H24 H 0.7485 0.3362 0.7385
N4 N 0.6130(7) 0.3789(6) 0.8042(5)
O11 O 0.8253(6) 0.4148(7) 0.8668(5)
C29 C 0.4749(10) 0.3688(10) 0.8030(6)
H25 H 0.4584 0.3806 0.8546
H26 H 0.4352 0.2827 0.7734
H27 H 0.4365 0.4362 0.7802
O12 O 0.9661(6) 0.6428(4) 0.84800(16)
H28 H 0.9060 0.5847 0.8513
H29 H 0.9534 0.6561 0.8028
O13 O 0.9098(5) 0.8972(4) 0.89818(17)
H30 H 0.8826 0.9285 0.8595
H31 H 0.9183 0.8150 0.8832
O14 O 0.8113(4) 0.0411(5) 0.02356(17)
H32 H 0.8850 0.0659 0.0545
H33 H 0.8247 -0.0102 -0.0174
N5 N 0.6911(6) 0.8494(6) 0.5055(4)
H34 H 0.6788 0.9348 0.5237
H35 H 0.7547 0.8281 0.5400
C30 C 0.7437(10) 0.8417(10) 0.4346(6)
H36 H 0.7457 0.7502 0.4099
H37 H 0.8324 0.8866 0.4465
H38 H 0.6875 0.8834 0.4009
C31 C 0.5587(14) 0.7626(15) 0.5032(9)
H39 H 0.5030 0.7501 0.4536
H40 H 0.5129 0.8067 0.5421
H41 H 0.5790 0.6778 0.5125
loop_
_geom_bond_atom_site_label_1
_geom_bond_atom_site_label_2
_geom_bond_site_symmetry_1
_geom_bond_site_symmetry_2
C1 C2 1_555 1_555
C2 C3 1_555 1_555
C3 H1 1_555 1_555
C4 C3 1_555 1_555
C5 C4 1_555 1_555
C6 C4 1_555 1_555
H2 C6 1_555 1_555
C7 C6 1_555 1_555
C8 C2 1_555 1_555
H3 C8 1_555 1_555
C9 C10 1_555 1_555
C10 C11 1_555 1_555
C11 H4 1_555 1_555
C12 C11 1_555 1_555
H5 C12 1_555 1_555
C13 C12 1_555 1_555
C14 C13 1_555 1_555
C15 C13 1_555 1_555
H6 C15 1_555 1_555
C16 C10 1_555 1_555
H7 C16 1_555 1_555
C17 C18 1_555 1_555
C18 H8 1_555 1_555
C19 C18 1_555 1_555
C20 C19 1_555 1_555
C21 C19 1_555 1_555
H9 C21 1_555 1_555
C22 C21 1_555 1_555
C23 C22 1_555 1_555
C24 C17 1_555 1_555
H10 C24 1_555 1_555
Cd1 O1 1_555 1_555
N1 C7 1_555 1_555
H11 N1 1_555 1_555
N2 C14 1_555 1_555
H12 N2 1_555 1_555
O1 C1 1_555 1_555
O2 C1 1_555 1_555
O3 C5 1_555 1_555
O4 C5 1_555 1_555
O5 C9 1_555 1_555
O6 C14 1_555 1_555
O7 C23 1_555 1_555
O8 C23 1_555 1_555
O9 C20 1_555 1_555
O10 C20 1_555 1_555
C25 H13 1_555 1_555
H14 C25 1_555 1_555
H15 C25 1_555 1_555
C26 H16 1_555 1_555
H17 C26 1_555 1_555
H18 C26 1_555 1_555
N3 C25 1_555 1_555
H19 N3 1_555 1_555
H20 N3 1_555 1_555
C27 H21 1_555 1_555
C28 H22 1_555 1_555
H23 C28 1_555 1_555
H24 C28 1_555 1_555
N4 C27 1_555 1_555
O11 C27 1_555 1_555
C29 N4 1_555 1_555
H25 C29 1_555 1_555
H26 C29 1_555 1_555
H27 C29 1_555 1_555
O12 H28 1_555 1_555
H29 O12 1_555 1_555
O13 H30 1_555 1_555
H31 O13 1_555 1_555
O14 H32 1_555 1_555
H33 O14 1_555 1_555
N5 H34 1_555 1_555
H35 N5 1_555 1_555
C30 N5 1_555 1_555
H36 C30 1_555 1_555
H37 C30 1_555 1_555
H38 C30 1_555 1_555
C31 N5 1_555 1_555
H39 C31 1_555 1_555
H40 C31 1_555 1_555
H41 C31 1_555 1_555
Cd1_2 O3 1_555 1_555
Cd1_3 O7 1_555 1_555
Cd1_4 O9 1_555 1_555
O3_2 Cd1 1_555 1_555
O4_2 Cd1 1_555 1_555
O7_2 Cd1 1_555 1_555
O8_2 Cd1 1_555 1_555
O9_2 Cd1 1_555 1_555
O10_2 Cd1 1_555 1_555
C7 C8 1_555 1_555
C9 N1 1_555 1_555
C15 C16 1_555 1_555
C17 N2 1_555 1_555
C22 C24 1_555 1_555
Cd1 O2 1_555 1_555
O4 Cd1_2 1_555 1_555
O8 Cd1_3 1_555 1_555
O10 Cd1_4 1_555 1_555
C26 N3 1_555 1_555
C28 N4 1_555 1_555

#END
