
#######################################################################
#
#                 Cambridge Crystallographic Data Centre
#                                CCDC 
#
#######################################################################
#
# If this CIF has been generated from an entry in the Cambridge 
# Structural Database, then it will include bibliographic, chemical, 
# crystal, experimental, refinement or atomic coordinate data resulting 
# from the CCDC's data processing and validation procedures.
#
#######################################################################

data_FIPKOG01
_symmetry_cell_setting           triclinic
_symmetry_space_group_name_H-M   'P -1'
_symmetry_Int_Tables_number      2
_space_group_name_Hall           '-P 1'
loop_
_symmetry_equiv_pos_site_id
_symmetry_equiv_pos_as_xyz
1 x,y,z
2 -x,-y,-z
_cell_length_a                   10.184(2)
_cell_length_b                   10.348(2)
_cell_length_c                   18.091(4)
_cell_angle_alpha                102.34(3)
_cell_angle_beta                 99.19(3)
_cell_angle_gamma                93.95(3)
_cell_volume                     1828.03
loop_
_atom_site_label
_atom_site_type_symbol
_atom_site_fract_x
_atom_site_fract_y
_atom_site_fract_z
Cd1 Cd 1.547258(16) 0.546827(18) 0.815568(10)
O1 O 1.31209(18) 0.5652(2) 0.81962(10)
O2 O 1.37106(17) 0.4816(2) 0.70866(11)
O3 O 0.8237(2) 0.5388(3) 0.83483(14)
O4 O 0.6769(2) 0.4956(2) 0.72659(13)
O5 O 1.1100(2) 0.2240(3) 0.49828(13)
O6 O 0.8884(3) 0.0139(3) 0.10837(14)
O7 O 0.6070(2) -0.25757(19) -0.09692(12)
O8 O 0.5477(2) -0.2003(2) -0.20645(12)
O9 O 0.5215(3) 0.2927(3) -0.19613(13)
O10 O 0.5945(2) 0.4367(2) -0.08746(13)
N1 N 0.9380(2) 0.3480(3) 0.51504(12)
H1 H 0.8574(17) 0.367(3) 0.4951(17)
N2 N 0.7397(3) 0.1681(2) 0.10732(12)
H2 H 0.728(3) 0.2519(14) 0.1281(17)
C1 C 1.2832(2) 0.5121(2) 0.74889(14)
C2 C 1.1387(2) 0.4818(3) 0.71052(14)
C3 C 1.1069(2) 0.4299(3) 0.63174(14)
H3 H 1.1748 0.4157 0.6031
C4 C 0.9741(2) 0.3989(3) 0.59552(14)
C5 C 0.8735(2) 0.4226(3) 0.63895(15)
H4 H 0.7844 0.4022 0.6150
C6 C 0.9044(2) 0.4764(3) 0.71756(15)
C7 C 1.0378(2) 0.5042(3) 0.75386(15)
H5 H 1.0594 0.5376 0.8068
C8 C 0.7953(3) 0.5061(3) 0.76369(18)
C9 C 1.0080(3) 0.2670(3) 0.47180(15)
C10 C 0.9573(3) 0.2327(3) 0.38652(15)
C11 C 0.8213(3) 0.2156(3) 0.35480(16)
H6 H 0.7576 0.2289 0.3865
C12 C 0.7817(3) 0.1783(3) 0.27470(16)
H7 H 0.6913 0.1677 0.2532
C13 C 0.8753(3) 0.1572(3) 0.22764(15)
C14 C 1.0116(3) 0.1762(3) 0.25981(17)
H8 H 1.0752 0.1642 0.2280
C15 C 1.0515(3) 0.2125(3) 0.33808(17)
H9 H 1.1422 0.2238 0.3591
C16 C 0.8352(3) 0.1072(3) 0.14253(16)
C17 C 0.6870(3) 0.1352(3) 0.02761(14)
C18 C 0.6538(3) 0.2372(3) -0.00875(15)
H10 H 0.6671 0.3250 0.0192
C19 C 0.6006(3) 0.2075(3) -0.08714(15)
C20 C 0.5797(3) 0.0755(3) -0.12901(15)
H11 H 0.5446 0.0558 -0.1813
C21 C 0.6116(3) -0.0268(3) -0.09240(15)
C22 C 0.6642(3) 0.0040(3) -0.01383(15)
H12 H 0.6841 -0.0641 0.0110
C23 C 0.5878(3) -0.1704(3) -0.13535(16)
C24 C 0.5691(3) 0.3192(3) -0.12689(17)
Cd1_2 Cd 0.547258(16) -0.453173(18) -0.184432(10)
Cd1_3 Cd 0.547258(16) 0.546827(18) -0.184432(10)
Cd1_4 Cd 0.547258(16) 0.546827(18) 0.815568(10)
O3_2 O 1.8237(2) 0.5388(3) 0.83483(14)
O4_2 O 1.6769(2) 0.4956(2) 0.72659(13)
O7_2 O 1.6070(2) 0.74243(19) 0.90308(12)
O8_2 O 1.5477(2) 0.7997(2) 0.79355(12)
O9_2 O 1.5215(3) 0.2927(3) 0.80387(13)
O10_2 O 1.5945(2) 0.4367(2) 0.91254(13)
O11 O 0.3250(4) 0.9137(5) 0.3657(3)
N3 N 0.1125(4) 0.8784(4) 0.3042(3)
C25 C 0.2009(6) 0.9104(6) 0.3658(5)
H13 H 0.1722 0.9323 0.4128
C26 C -0.0271(5) 0.8671(6) 0.3026(5)
H14 H -0.0671 0.7835 0.2698
H15 H -0.0648 0.9385 0.2833
H16 H -0.0443 0.8716 0.3537
C27 C 0.1545(9) 0.8445(7) 0.2317(5)
H17 H 0.1458 0.9172 0.2067
H18 H 0.0997 0.7669 0.2002
H19 H 0.2463 0.8264 0.2393
N4 N 0.8093(4) 0.6537(4) -0.0061(2)
H20 H 0.7459 0.6798 -0.0388
H21 H 0.8185 0.5684 -0.0267
C28 C 0.7585(7) 0.6572(7) 0.0658(3)
H22 H 0.8139 0.6109 0.0972
H23 H 0.6684 0.6151 0.0543
H24 H 0.7602 0.7480 0.0930
C29 C 0.9412(7) 0.7365(9) -0.0029(5)
H25 H 0.9234 0.8236 -0.0096
H26 H 0.9853 0.6939 -0.0432
H27 H 0.9975 0.7441 0.0460
N5 N 0.4501(3) 0.2365(3) 0.63318(17)
H28 H 0.4345 0.3163 0.6598
H29 H 0.5298 0.2179 0.6555
C30 C 0.4578(5) 0.2458(5) 0.5550(2)
H30 H 0.4932 0.1684 0.5293
H31 H 0.5153 0.3239 0.5560
H32 H 0.3700 0.2512 0.5279
C31 C 0.3469(4) 0.1364(5) 0.6387(3)
H33 H 0.2605 0.1600 0.6197
H34 H 0.3520 0.1314 0.6915
H35 H 0.3602 0.0515 0.6086
O12 O 0.5328(4) 0.8574(4) 0.6513(2)
H36 H 0.580(5) 0.929(3) 0.650(3)
H37 H 0.550(5) 0.833(5) 0.6942(17)
O13 O 0.5890(3) 0.6032(4) 0.60154(16)
H38 H 0.631(4) 0.569(4) 0.6376(17)
H39 H 0.560(5) 0.678(3) 0.620(2)
O14 O 0.6879(3) 0.4573(4) 0.47656(16)
H40 H 0.611(2) 0.427(4) 0.4496(19)
H41 H 0.690(4) 0.520(3) 0.5160(17)
loop_
_geom_bond_atom_site_label_1
_geom_bond_atom_site_label_2
_geom_bond_site_symmetry_1
_geom_bond_site_symmetry_2
Cd1 O1 1_555 1_555
O1 C1 1_555 1_555
O2 Cd1 1_555 1_555
O3 C8 1_555 1_555
O4 C8 1_555 1_555
O5 C9 1_555 1_555
O6 C16 1_555 1_555
O7 C23 1_555 1_555
O8 C23 1_555 1_555
O9 C24 1_555 1_555
O10 C24 1_555 1_555
N1 H1 1_555 1_555
N2 H2 1_555 1_555
C1 O2 1_555 1_555
C2 C1 1_555 1_555
C3 C2 1_555 1_555
H3 C3 1_555 1_555
C4 N1 1_555 1_555
C5 C4 1_555 1_555
H4 C5 1_555 1_555
C6 C5 1_555 1_555
C7 C2 1_555 1_555
H5 C7 1_555 1_555
C8 C6 1_555 1_555
C9 N1 1_555 1_555
C10 C9 1_555 1_555
C11 C10 1_555 1_555
H6 C11 1_555 1_555
C12 C11 1_555 1_555
H7 C12 1_555 1_555
C13 C12 1_555 1_555
C14 C13 1_555 1_555
H8 C14 1_555 1_555
C15 C10 1_555 1_555
H9 C15 1_555 1_555
C16 N2 1_555 1_555
C17 N2 1_555 1_555
C18 C17 1_555 1_555
H10 C18 1_555 1_555
C19 C18 1_555 1_555
C20 C19 1_555 1_555
H11 C20 1_555 1_555
C21 C20 1_555 1_555
C22 C17 1_555 1_555
H12 C22 1_555 1_555
C23 C21 1_555 1_555
C24 C19 1_555 1_555
O11 C25 1_555 1_555
N3 C25 1_555 1_555
C25 H13 1_555 1_555
C26 N3 1_555 1_555
H14 C26 1_555 1_555
H15 C26 1_555 1_555
H16 C26 1_555 1_555
C27 N3 1_555 1_555
H17 C27 1_555 1_555
H18 C27 1_555 1_555
H19 C27 1_555 1_555
N4 H20 1_555 1_555
H21 N4 1_555 1_555
C28 N4 1_555 1_555
H22 C28 1_555 1_555
H23 C28 1_555 1_555
H24 C28 1_555 1_555
C29 N4 1_555 1_555
H25 C29 1_555 1_555
H26 C29 1_555 1_555
H27 C29 1_555 1_555
N5 H28 1_555 1_555
H29 N5 1_555 1_555
C30 N5 1_555 1_555
H30 C30 1_555 1_555
H31 C30 1_555 1_555
H32 C30 1_555 1_555
C31 N5 1_555 1_555
H33 C31 1_555 1_555
H34 C31 1_555 1_555
H35 C31 1_555 1_555
O12 H36 1_555 1_555
H37 O12 1_555 1_555
O13 H38 1_555 1_555
H39 O13 1_555 1_555
O14 H40 1_555 1_555
H41 O14 1_555 1_555
Cd1_2 O7 1_555 1_555
Cd1_3 O9 1_555 1_555
Cd1_4 O3 1_555 1_555
O3_2 Cd1 1_555 1_555
O4_2 Cd1 1_555 1_555
O7_2 Cd1 1_555 1_555
O8_2 Cd1 1_555 1_555
O9_2 Cd1 1_555 1_555
O10_2 Cd1 1_555 1_555
O4 Cd1_4 1_555 1_555
O8 Cd1_2 1_555 1_555
O10 Cd1_3 1_555 1_555
C3 C4 1_555 1_555
C6 C7 1_555 1_555
C13 C16 1_555 1_555
C14 C15 1_555 1_555
C21 C22 1_555 1_555

#END
