
#######################################################################
#
#                 Cambridge Crystallographic Data Centre
#                                CCDC 
#
#######################################################################
#
# If this CIF has been generated from an entry in the Cambridge 
# Structural Database, then it will include bibliographic, chemical, 
# crystal, experimental, refinement or atomic coordinate data resulting 
# from the CCDC's data processing and validation procedures.
#
#######################################################################

data_FIPWOS
_symmetry_cell_setting           monoclinic
_symmetry_space_group_name_H-M   'P 21'
_symmetry_Int_Tables_number      4
_space_group_name_Hall           'P 2yb'
loop_
_symmetry_equiv_pos_site_id
_symmetry_equiv_pos_as_xyz
1 x,y,z
2 -x,1/2+y,-z
_cell_length_a                   9.3427(5)
_cell_length_b                   9.1269(5)
_cell_length_c                   9.6040(5)
_cell_angle_alpha                90
_cell_angle_beta                 114.455(2)
_cell_angle_gamma                90
_cell_volume                     745.463
loop_
_atom_site_label
_atom_site_type_symbol
_atom_site_fract_x
_atom_site_fract_y
_atom_site_fract_z
Zn1 Zn 0.59641(3) 0.43534(4) -0.28456(3)
O1 O 0.4756(2) 0.48644(19) -0.1671(2)
N1 N -0.1735(3) 0.4472(3) -0.1372(2)
C1 C 0.4785(4) 0.6768(4) 0.4871(4)
H1 H 0.4336 0.7231 0.5456
C2 C 0.5679(3) 0.6422(3) 0.1578(3)
H2 H 0.6427 0.5688 0.1572
H3 H 0.6123 0.7376 0.1547
N2 N 0.3297(3) 0.4941(2) 0.0247(2)
H4 H 0.3794 0.4256 0.0876
N3 N 0.5590(3) 0.5525(2) 0.5291(2)
O2 O 0.4906(3) 0.7309(2) -0.1744(2)
C3 C 0.6035(3) 0.5217(3) 0.4123(3)
H5 H 0.6617 0.4406 0.4079
C4 C 0.5488(3) 0.6294(3) 0.3036(3)
C5 C -0.0719(4) 0.3249(3) -0.1487(3)
H6 H -0.0789 0.3212 -0.2522
H7 H -0.1118 0.2328 -0.1287
C6 C 0.4616(3) 0.6154(3) -0.1229(3)
C7 C 0.4151(3) 0.6237(3) 0.0124(3)
H8 H 0.3488 0.7103 0.0000
C8 C 0.1000(3) 0.3408(3) -0.0377(3)
H9 H 0.1076 0.3388 0.0661
H10 H 0.1585 0.2577 -0.0500
C9 C 0.1745(3) 0.4802(3) -0.0607(3)
N4 N 0.4677(3) 0.7295(2) 0.3533(2)
O3 O 0.0971(2) 0.5773(2) -0.1506(2)
H11 H -0.161(3) 0.450(5) -0.046(3)
H12 H -0.133(4) 0.524(5) -0.159(4)
Zn1_2 Zn -0.40359(3) 0.43534(4) -0.28456(3)
Zn1_3 Zn 0.59641(3) 0.43534(4) 0.71544(3)
Zn1A Zn 0.40359(3) 0.93534(4) 0.28456(3)
N1_2 N 0.8265(3) 0.4472(3) -0.1372(2)
N3_2 N 0.5590(3) 0.5525(2) -0.4709(2)
N4A N 0.5323(3) 0.2295(2) -0.3533(2)
N5 N -0.0237(3) 0.8370(3) -0.3982(3)
C10 C -0.0063(5) 0.7129(4) -0.4840(4)
H13 H -0.0585 0.6293 -0.4659
H14 H 0.1034 0.6913 -0.4518
H15 H -0.0521 0.7359 -0.5912
C11 C -0.1817(4) 0.8918(4) -0.4385(4)
H16 H -0.2290 0.9163 -0.5453
H17 H -0.1771 0.9776 -0.3790
H18 H -0.2433 0.8179 -0.4179
O4 O 0.0871(2) 0.9820(2) -0.1880(2)
C12 C 0.0953(3) 0.8851(3) -0.2730(3)
H19 H 0.1930 0.8417 -0.2477
loop_
_geom_bond_atom_site_label_1
_geom_bond_atom_site_label_2
_geom_bond_site_symmetry_1
_geom_bond_site_symmetry_2
Zn1 O1 1_555 1_555
O1 C6 1_555 1_555
N1 C5 1_555 1_555
C1 H1 1_555 1_555
C2 H2 1_555 1_555
H3 C2 1_555 1_555
N2 H4 1_555 1_555
N3 C1 1_555 1_555
O2 C6 1_555 1_555
C3 N3 1_555 1_555
H5 C3 1_555 1_555
C4 C2 1_555 1_555
C5 H6 1_555 1_555
H7 C5 1_555 1_555
C6 C7 1_555 1_555
C7 C2 1_555 1_555
H8 C7 1_555 1_555
C8 C5 1_555 1_555
H9 C8 1_555 1_555
H10 C8 1_555 1_555
C9 N2 1_555 1_555
N4 C1 1_555 1_555
O3 C9 1_555 1_555
H11 N1 1_555 1_555
H12 N1 1_555 1_555
N5 C10 1_555 1_555
C10 H13 1_555 1_555
H14 C10 1_555 1_555
H15 C10 1_555 1_555
C11 N5 1_555 1_555
H16 C11 1_555 1_555
H17 C11 1_555 1_555
H18 C11 1_555 1_555
O4 C12 1_555 1_555
C12 N5 1_555 1_555
H19 C12 1_555 1_555
Zn1_2 N1 1_555 1_555
Zn1_3 N3 1_555 1_555
Zn1A N4 1_555 1_555
N1_2 Zn1 1_555 1_555
N3_2 Zn1 1_555 1_555
N4A Zn1 1_555 1_555
N2 C7 1_555 1_555
C3 C4 1_555 1_555
C4 N4 1_555 1_555
C8 C9 1_555 1_555

#END
