
#######################################################################
#
#                 Cambridge Crystallographic Data Centre
#                                CCDC 
#
#######################################################################
#
# If this CIF has been generated from an entry in the Cambridge 
# Structural Database, then it will include bibliographic, chemical, 
# crystal, experimental, refinement or atomic coordinate data resulting 
# from the CCDC's data processing and validation procedures.
#
#######################################################################

data_FIPXEJ
_symmetry_cell_setting           monoclinic
_symmetry_space_group_name_H-M   'P 21'
_symmetry_Int_Tables_number      4
_space_group_name_Hall           'P 2yb'
loop_
_symmetry_equiv_pos_site_id
_symmetry_equiv_pos_as_xyz
1 x,y,z
2 -x,1/2+y,-z
_cell_length_a                   10.906(2)
_cell_length_b                   8.9687(17)
_cell_length_c                   14.585(3)
_cell_angle_alpha                90
_cell_angle_beta                 96.567(5)
_cell_angle_gamma                90
_cell_volume                     1417.24
loop_
_atom_site_label
_atom_site_type_symbol
_atom_site_fract_x
_atom_site_fract_y
_atom_site_fract_z
Zn1 Zn 0.93480(7) 0.74672(13) 0.71903(5)
Zn2 Zn 0.63087(7) 0.25245(12) 0.81218(5)
N1 N 0.5258(7) 0.7930(6) 0.2725(5)
H1 H 0.5734 0.8565 0.2419
H2 H 0.5039 0.8440 0.3229
C1 C 0.7868(9) 0.5000(11) 0.7760(7)
H3 H 0.8000 0.4496 0.7207
O1 O 0.3972(5) 0.6877(5) 1.0650(3)
C2 C 0.7949(7) 0.6645(8) 0.8829(5)
H4 H 0.8151 0.7518 0.9183
O2 O 0.4558(5) 0.4569(6) 1.1098(4)
N2 N 1.2694(6) 0.6270(7) 0.2618(4)
N3 N 0.8408(6) 0.6301(7) 0.8010(4)
C3 C 0.7167(7) 0.5559(9) 0.9056(5)
N4 N 0.7123(6) 0.4464(7) 0.8358(4)
C4 C 0.4479(8) 0.5609(10) 1.0524(5)
C5 C 0.5075(8) 0.5395(9) 0.9620(5)
H5 H 0.4853 0.4384 0.9363
C6 C 0.6473(7) 0.5476(9) 0.9869(5)
H6 H 0.6672 0.6364 1.0260
H7 H 0.6748 0.4585 1.0236
C7 C 0.3390(6) 0.7467(13) 0.7594(4)
H8 H 0.3970 0.7426 0.7120
H9 H 0.3503 0.8439 0.7913
N5 N 0.1117(6) 0.7777(7) 0.7734(4)
H10 H 0.1217 0.8766 0.7894
H11 H 0.1253 0.7228 0.8268
C8 C 0.2088(7) 0.7368(13) 0.7126(4)
H12 H 0.2007 0.8036 0.6582
H13 H 0.1934 0.6337 0.6900
O3 O 0.9391(5) 0.6485(6) 0.6000(3)
N6 N 1.1572(6) 0.4367(7) 0.3075(4)
C9 C 1.1716(7) 0.5424(9) 0.3772(5)
C10 C 1.2416(7) 0.6562(9) 0.3500(5)
H14 H 1.2672 0.7415 0.3859
C11 C 0.9735(7) 0.5186(9) 0.5771(5)
N7 N 0.4615(6) 0.6521(7) 0.8944(4)
H15 H 0.4954 0.7413 0.8978
C12 C 0.9921(8) 0.4979(9) 0.4757(5)
H16 H 0.9702 0.3936 0.4559
N8 N 0.9164(6) 0.6035(7) 0.4181(4)
H17 H 0.9502 0.6713 0.3854
C13 C 0.3700(8) 0.6246(9) 0.8278(6)
O4 O 0.3192(5) 0.4999(6) 0.8196(4)
C14 C 0.6065(8) 0.6653(9) 0.3081(6)
H18 H 0.6370 0.6129 0.2554
H19 H 0.5572 0.5936 0.3402
C15 C 1.2181(10) 0.4971(11) 0.2395(6)
H20 H 1.2229 0.4499 0.1817
C16 C 0.7160(7) 0.7174(9) 0.3742(5)
H21 H 0.7683 0.7832 0.3404
H22 H 0.6851 0.7772 0.4238
O5 O 0.9998(5) 0.4108(6) 0.6306(4)
C17 C 1.1293(7) 0.5262(10) 0.4697(5)
H23 H 1.1528 0.6181 0.5050
H24 H 1.1762 0.4431 0.5016
O6 O 0.7449(5) 0.4847(6) 0.4527(4)
C18 C 0.7927(8) 0.5939(9) 0.4166(5)
Zn1_2 Zn -0.06520(7) 0.74672(13) 0.71903(5)
Zn1A Zn 1.06520(7) 0.24672(13) 0.28097(5)
Zn2A Zn 0.36913(7) 0.75245(12) 0.18782(5)
Zn2A_2 Zn 0.36913(7) 0.75245(12) 1.18782(5)
Zn2A_3 Zn 1.36913(7) 0.75245(12) 0.18782(5)
N1A N 0.4742(7) 0.2930(6) 0.7275(5)
O1A O 0.6028(5) 0.1877(5) 0.9350(3)
N2A N 0.7306(6) 0.1270(7) 0.7382(4)
N5_2 N 1.1117(6) 0.7777(7) 0.7734(4)
N6A N 0.8428(6) 0.9367(7) 0.6925(4)
O7 O 1.1430(5) 0.6968(6) 0.9757(4)
H25 H 1.2202 0.7076 0.9890
H26 H 1.1254 0.6047 0.9743
O8 O 0.9103(6) -0.1272(8) 1.1876(4)
H27 H 0.9371 -0.1253 1.2446
H28 H 0.8377 -0.0917 1.1799
O9 O 1.1064(6) 1.0692(7) 0.8601(4)
H29 H 1.0550 1.0439 0.8967
H30 H 1.1042 1.1629 0.8527
O10 O 0.9789(6) 0.9269(6) 1.0116(4)
H31 H 1.0296 0.8554 1.0117
H32 H 0.9491 0.9294 1.0629
O11 O 0.5454(7) 0.4738(7) 0.5530(5)
H33 H 0.5167 0.5286 0.5927
H34 H 0.5947 0.5241 0.5242
O12 O 1.5713(9) 0.7897(8) 0.5925(5)
H35 H 1.5317 0.8642 0.5689
H36 H 1.5975 0.7380 0.5501
loop_
_geom_bond_atom_site_label_1
_geom_bond_atom_site_label_2
_geom_bond_site_symmetry_1
_geom_bond_site_symmetry_2
Zn1 N3 1_555 1_555
Zn2 N4 1_555 1_555
N1 H1 1_555 1_555
H2 N1 1_555 1_555
C1 H3 1_555 1_555
O1 C4 1_555 1_555
C2 H4 1_555 1_555
O2 C4 1_555 1_555
N2 C10 1_555 1_555
N3 C1 1_555 1_555
C3 C2 1_555 1_555
N4 C1 1_555 1_555
C4 C5 1_555 1_555
C5 H5 1_555 1_555
C6 C3 1_555 1_555
H6 C6 1_555 1_555
H7 C6 1_555 1_555
C7 H8 1_555 1_555
H9 C7 1_555 1_555
N5 H10 1_555 1_555
H11 N5 1_555 1_555
C8 C7 1_555 1_555
H12 C8 1_555 1_555
H13 C8 1_555 1_555
O3 Zn1 1_555 1_555
N6 C9 1_555 1_555
C9 C10 1_555 1_555
C10 H14 1_555 1_555
C11 O3 1_555 1_555
N7 C5 1_555 1_555
H15 N7 1_555 1_555
C12 C11 1_555 1_555
H16 C12 1_555 1_555
N8 C12 1_555 1_555
H17 N8 1_555 1_555
C13 C7 1_555 1_555
O4 C13 1_555 1_555
C14 N1 1_555 1_555
H18 C14 1_555 1_555
H19 C14 1_555 1_555
C15 N2 1_555 1_555
H20 C15 1_555 1_555
C16 C14 1_555 1_555
H21 C16 1_555 1_555
H22 C16 1_555 1_555
O5 C11 1_555 1_555
C17 C9 1_555 1_555
H23 C17 1_555 1_555
H24 C17 1_555 1_555
O6 C18 1_555 1_555
C18 N8 1_555 1_555
O7 H25 1_555 1_555
H26 O7 1_555 1_555
O8 H27 1_555 1_555
H28 O8 1_555 1_555
O9 H29 1_555 1_555
H30 O9 1_555 1_555
O10 H31 1_555 1_555
H32 O10 1_555 1_555
O11 H33 1_555 1_555
H34 O11 1_555 1_555
O12 H35 1_555 1_555
H36 O12 1_555 1_555
Zn1_2 N5 1_555 1_555
Zn1A N6 1_555 1_555
Zn2A N1 1_555 1_555
Zn2A_2 O1 1_555 1_555
Zn2A_3 N2 1_555 1_555
N1A Zn2 1_555 1_555
O1A Zn2 1_555 1_555
N2A Zn2 1_555 1_555
N5_2 Zn1 1_555 1_555
N6A Zn1 1_555 1_555
C2 N3 1_555 1_555
C3 N4 1_555 1_555
C5 C6 1_555 1_555
N5 C8 1_555 1_555
N6 C15 1_555 1_555
N7 C13 1_555 1_555
C12 C17 1_555 1_555
C16 C18 1_555 1_555

#END
