
#######################################################################
#
#                 Cambridge Crystallographic Data Centre
#                                CCDC 
#
#######################################################################
#
# If this CIF has been generated from an entry in the Cambridge 
# Structural Database, then it will include bibliographic, chemical, 
# crystal, experimental, refinement or atomic coordinate data resulting 
# from the CCDC's data processing and validation procedures.
#
#######################################################################

data_FIQYOU
_symmetry_cell_setting           monoclinic
_symmetry_space_group_name_H-M   'P 21/n'
_symmetry_Int_Tables_number      14
_space_group_name_Hall           '-P 2yn'
loop_
_symmetry_equiv_pos_site_id
_symmetry_equiv_pos_as_xyz
1 x,y,z
2 1/2-x,1/2+y,1/2-z
3 -x,-y,-z
4 1/2+x,1/2-y,1/2+z
_cell_length_a                   11.4446(10)
_cell_length_b                   9.9304(9)
_cell_length_c                   14.6192(15)
_cell_angle_alpha                90
_cell_angle_beta                 91.423(11)
_cell_angle_gamma                90
_cell_volume                     1660.95
loop_
_atom_site_label
_atom_site_type_symbol
_atom_site_fract_x
_atom_site_fract_y
_atom_site_fract_z
Fe1 Fe 0.24447(7) 0.08120(7) 0.36760(5)
Fe2 Fe 0.23995(7) 0.39269(7) 0.31230(6)
Fe3 Fe 0.5000 0.0000 0.5000
Fe4 Fe 0.0000 0.0000 0.5000
O1 O 0.3128(3) -0.0271(4) 0.4783(3)
C1 C 0.2560(6) -0.1037(6) 0.5318(5)
H1 H 0.287(7) -0.149(8) 0.574(6)
O2 O 0.1497(4) -0.1123(4) 0.5370(4)
O3 O 0.1024(3) 0.1584(4) 0.4402(3)
C2 C 0.0716(6) 0.2817(6) 0.4504(5)
H2 H 0.014(7) 0.305(8) 0.498(6)
O4 O 0.1116(4) 0.3788(4) 0.4090(3)
O5 O 0.1931(4) 0.2022(3) 0.2529(3)
C3 C 0.1709(5) 0.1757(5) 0.1691(4)
H3 H 0.146(6) 0.258(7) 0.132(5)
O6 O 0.1861(4) 0.0652(4) 0.1313(3)
O7 O 0.3476(4) 0.2594(4) 0.3933(3)
C4 C 0.4260(6) 0.2895(5) 0.4518(5)
H4 H 0.454(7) 0.387(8) 0.463(6)
O8 O 0.4834(4) 0.2088(4) 0.5002(4)
O9 O 0.1489(4) -0.0820(4) 0.3032(3)
C5 C 0.0449(6) -0.1235(6) 0.3111(5)
H5 H 0.027(7) -0.176(8) 0.274(6)
O10 O -0.0216(4) -0.1004(5) 0.3731(3)
O11 O 0.3719(3) -0.0034(3) 0.2815(3)
C6 C 0.4804(6) -0.0149(6) 0.2886(5)
H6 H 0.521(7) -0.049(8) 0.235(6)
O12 O 0.5414(4) -0.0036(5) 0.3595(3)
Fe1B Fe 0.75553(7) -0.08120(7) 0.63240(5)
Fe1A Fe 0.25553(7) 0.58120(7) 0.13240(5)
Fe1B_2 Fe -0.24447(7) -0.08120(7) 0.63240(5)
Fe2B Fe 0.76005(7) -0.39269(7) 0.68770(6)
Fe2A Fe 0.26005(7) -0.10731(7) 0.18770(6)
Fe2C Fe 0.73995(7) 0.10731(7) 0.81230(6)
Fe2A_2 Fe 0.26005(7) 0.89269(7) 0.18770(6)
Fe2B_2 Fe -0.23995(7) -0.39269(7) 0.68770(6)
Fe4_2 Fe 1.0000 0.0000 0.5000
Fe4C Fe 0.5000 0.5000 0.0000
O1B O 0.6872(3) 0.0271(4) 0.5217(3)
C1B C 0.7440(6) 0.1037(6) 0.4682(5)
H1B H 0.713(7) 0.149(8) 0.426(6)
O2B O 0.8503(4) 0.1123(4) 0.4630(4)
O2B_2 O -0.1497(4) 0.1123(4) 0.4630(4)
O3B O -0.1024(3) -0.1584(4) 0.5598(3)
O3B_2 O 0.8976(3) -0.1584(4) 0.5598(3)
C2B C -0.0716(6) -0.2817(6) 0.5496(5)
H2B H -0.014(7) -0.305(8) 0.502(6)
O4B O -0.1116(4) -0.3788(4) 0.5910(3)
O4B_2 O 0.8884(4) -0.3788(4) 0.5910(3)
O5A O 0.3069(4) 0.7022(3) 0.2471(3)
O5B O 0.8069(4) -0.2022(3) 0.7471(3)
C3A C 0.3291(5) 0.6757(5) 0.3309(4)
H3A H 0.354(6) 0.758(7) 0.368(5)
O6A O 0.3139(4) 0.5652(4) 0.3687(3)
O6C O 0.6861(4) -0.5652(4) 0.6313(3)
O7B O 0.6524(4) -0.2594(4) 0.6067(3)
C4B C 0.5740(6) -0.2895(5) 0.5482(5)
H4B H 0.546(7) -0.387(8) 0.537(6)
O8B O 0.5166(4) -0.2088(4) 0.4998(4)
O9A O 0.3511(4) 0.4180(4) 0.1968(3)
O9B O 0.8511(4) 0.0820(4) 0.6968(3)
O9C O 0.6489(4) -0.4180(4) 0.8032(3)
C5A C 0.4551(6) 0.3765(6) 0.1889(5)
H5A H 0.473(7) 0.324(8) 0.226(6)
O10A O 0.5216(4) 0.3996(5) 0.1269(3)
O10B O 0.0216(4) 0.1004(5) 0.6269(3)
O11B O 0.6281(3) 0.0034(3) 0.7185(3)
O11A O 0.1281(3) 0.4966(3) 0.2185(3)
O11C O 0.8719(3) -0.4966(3) 0.7815(3)
C6B C 0.5196(6) 0.0149(6) 0.7114(5)
H6B H 0.479(7) 0.049(8) 0.765(6)
O12B O 0.4586(4) 0.0036(5) 0.6405(3)
O13 O -0.155(5) -0.026(5) 0.116(3)
C7 C -0.247(7) 0.040(13) 0.121(6)
O14 O -0.263(7) 0.110(8) 0.191(6)
O15 O -0.250(4) 0.304(4) 0.152(3)
C8 C -0.244(7) 0.277(5) 0.239(4)
O16 O -0.272(5) 0.378(5) 0.288(3)
loop_
_geom_bond_atom_site_label_1
_geom_bond_atom_site_label_2
_geom_bond_site_symmetry_1
_geom_bond_site_symmetry_2
Fe1 O1 1_555 1_555
Fe2 O4 1_555 1_555
Fe3 O1 1_555 1_555
Fe4 O2 1_555 1_555
O1 C1 1_555 1_555
C1 H1 1_555 1_555
O2 C1 1_555 1_555
O3 Fe1 1_555 1_555
C2 O3 1_555 1_555
H2 C2 1_555 1_555
O4 C2 1_555 1_555
O5 Fe1 1_555 1_555
C3 O5 1_555 1_555
H3 C3 1_555 1_555
O6 C3 1_555 1_555
O7 Fe1 1_555 1_555
C4 O7 1_555 1_555
H4 C4 1_555 1_555
O8 Fe3 1_555 1_555
O9 Fe1 1_555 1_555
C5 O9 1_555 1_555
H5 C5 1_555 1_555
O10 Fe4 1_555 1_555
O11 Fe1 1_555 1_555
C6 O11 1_555 1_555
H6 C6 1_555 1_555
O12 Fe3 1_555 1_555
O13 C7 1_555 1_555
C7 O14 1_555 1_555
O15 C8 1_555 1_555
C8 O16 1_555 1_555
Fe1B O1B 1_555 1_555
Fe1A O5A 1_555 1_555
Fe1B_2 O3B 1_555 1_555
Fe2B O4B_2 1_555 1_555
Fe2A O6 1_555 1_555
Fe2C O9B 1_555 1_555
Fe2A_2 O5A 1_555 1_555
Fe2B_2 O4B 1_555 1_555
Fe4_2 O2B 1_555 1_555
Fe4C O10A 1_555 1_555
O1B Fe3 1_555 1_555
C1B O1B 1_555 1_555
H1B C1B 1_555 1_555
O2B C1B 1_555 1_555
O2B_2 Fe4 1_555 1_555
O3B Fe4 1_555 1_555
O3B_2 Fe1B 1_555 1_555
C2B O3B 1_555 1_555
H2B C2B 1_555 1_555
O4B C2B 1_555 1_555
O5A C3A 1_555 1_555
O5B Fe1B 1_555 1_555
C3A H3A 1_555 1_555
O6A Fe2 1_555 1_555
O6C Fe2B 1_555 1_555
O7B Fe1B 1_555 1_555
C4B O7B 1_555 1_555
H4B C4B 1_555 1_555
O8B Fe3 1_555 1_555
O9A Fe2 1_555 1_555
O9B Fe1B 1_555 1_555
O9C Fe2B 1_555 1_555
C5A O9A 1_555 1_555
H5A C5A 1_555 1_555
O10A C5A 1_555 1_555
O10B Fe4 1_555 1_555
O11B Fe1B 1_555 1_555
O11A Fe2 1_555 1_555
O11C Fe2B 1_555 1_555
C6B O11B 1_555 1_555
H6B C6B 1_555 1_555
O12B Fe3 1_555 1_555
Fe2 O5 1_555 1_555
Fe2 O7 1_555 1_555
Fe4 O3 1_555 1_555
C4 O8 1_555 1_555
O9 Fe2A 1_555 1_555
C5 O10 1_555 1_555
O11 Fe2A 1_555 1_555
C6 O12 1_555 1_555
Fe1A O9A 1_555 1_555
Fe1A O11A 1_555 1_555
Fe2B O5B 1_555 1_555
Fe2B O7B 1_555 1_555
Fe2C O11B 1_555 1_555
Fe4_2 O3B_2 1_555 1_555
C3A O6A 1_555 1_555
C4B O8B 1_555 1_555
C6B O12B 1_555 1_555

#END
