
#######################################################################
#
#                 Cambridge Crystallographic Data Centre
#                                CCDC 
#
#######################################################################
#
# If this CIF has been generated from an entry in the Cambridge 
# Structural Database, then it will include bibliographic, chemical, 
# crystal, experimental, refinement or atomic coordinate data resulting 
# from the CCDC's data processing and validation procedures.
#
#######################################################################

data_FIQZAH
_symmetry_cell_setting           monoclinic
_symmetry_space_group_name_H-M   'P 21/n'
_symmetry_Int_Tables_number      14
_space_group_name_Hall           '-P 2yn'
loop_
_symmetry_equiv_pos_site_id
_symmetry_equiv_pos_as_xyz
1 x,y,z
2 1/2-x,1/2+y,1/2-z
3 -x,-y,-z
4 1/2+x,1/2-y,1/2+z
_cell_length_a                   11.3407(9)
_cell_length_b                   9.7856(8)
_cell_length_c                   14.4334(13)
_cell_angle_alpha                90
_cell_angle_beta                 91.449(10)
_cell_angle_gamma                90
_cell_volume                     1601.24
loop_
_atom_site_label
_atom_site_type_symbol
_atom_site_fract_x
_atom_site_fract_y
_atom_site_fract_z
Zn1 Zn 0.24321(3) 0.08135(4) 0.36880(3)
Zn2 Zn 0.24008(3) 0.39482(4) 0.31394(3)
Zn3 Zn 0.5000 0.0000 0.5000
Zn4 Zn 0.0000 0.0000 0.5000
O1 O 0.3154(2) -0.0265(3) 0.47709(17)
C1 C 0.2568(3) -0.1055(4) 0.5296(3)
H1 H 0.299(4) -0.154(5) 0.570(3)
O2 O 0.1497(2) -0.1127(3) 0.53343(19)
O3 O 0.1017(2) 0.1573(2) 0.44056(16)
C2 C 0.0694(3) 0.2807(4) 0.4489(2)
H2 H 0.000(4) 0.289(5) 0.487(3)
O4 O 0.1112(2) 0.3806(2) 0.40887(18)
O5 O 0.1899(2) 0.2027(2) 0.25450(15)
C3 C 0.1690(3) 0.1755(4) 0.1697(2)
H3 H 0.136(4) 0.250(5) 0.129(3)
O6 O 0.1852(2) 0.0648(3) 0.13054(17)
O7 O 0.3461(2) 0.2593(2) 0.39118(15)
C4 C 0.4241(3) 0.2896(4) 0.4521(2)
H4 H 0.431(5) 0.385(3) 0.455(4)
O8 O 0.4816(2) 0.2100(3) 0.50073(18)
O9 O 0.1491(2) -0.0811(2) 0.30478(17)
C5 C 0.0451(3) -0.1259(4) 0.3113(2)
H5 H 0.024(5) -0.191(6) 0.267(4)
O10 O -0.0237(2) -0.1009(3) 0.37430(18)
O11 O 0.3700(2) -0.0027(2) 0.28065(17)
C6 C 0.4803(3) -0.0127(4) 0.2878(3)
H6 H 0.517(4) -0.034(5) 0.231(4)
O12 O 0.5406(2) -0.0003(3) 0.35956(18)
Zn1B Zn 0.75679(3) -0.08135(4) 0.63120(3)
Zn1A Zn 0.25679(3) 0.58135(4) 0.13120(3)
Zn1B_2 Zn -0.24321(3) -0.08135(4) 0.63120(3)
Zn2B Zn 0.75992(3) -0.39482(4) 0.68606(3)
Zn2A Zn 0.25992(3) -0.10518(4) 0.18606(3)
Zn2C Zn 0.74008(3) 0.10518(4) 0.81394(3)
Zn2A_2 Zn 0.25992(3) 0.89482(4) 0.18606(3)
Zn2B_2 Zn -0.24008(3) -0.39482(4) 0.68606(3)
Zn4_2 Zn 1.0000 0.0000 0.5000
Zn4C Zn 0.5000 0.5000 0.0000
O1B O 0.6846(2) 0.0265(3) 0.52291(17)
C1B C 0.7432(3) 0.1055(4) 0.4704(3)
H1B H 0.701(4) 0.154(5) 0.430(3)
O2B O 0.8503(2) 0.1127(3) 0.46657(19)
O2B_2 O -0.1497(2) 0.1127(3) 0.46657(19)
O3B O -0.1017(2) -0.1573(2) 0.55944(16)
O3B_2 O 0.8983(2) -0.1573(2) 0.55944(16)
C2B C -0.0694(3) -0.2807(4) 0.5511(2)
H2B H 0.000(4) -0.289(5) 0.513(3)
O4B O -0.1112(2) -0.3806(2) 0.59113(18)
O4B_2 O 0.8888(2) -0.3806(2) 0.59113(18)
O5A O 0.3101(2) 0.7027(2) 0.24550(15)
O5B O 0.8101(2) -0.2027(2) 0.74550(15)
C3A C 0.3310(3) 0.6755(4) 0.3303(2)
H3A H 0.364(4) 0.750(5) 0.371(3)
O6A O 0.3148(2) 0.5648(3) 0.36946(17)
O6C O 0.6852(2) -0.5648(3) 0.63054(17)
O7B O 0.6539(2) -0.2593(2) 0.60882(15)
C4B C 0.5759(3) -0.2896(4) 0.5479(2)
H4B H 0.569(5) -0.385(3) 0.545(4)
O8B O 0.5184(2) -0.2100(3) 0.49927(18)
O9A O 0.3509(2) 0.4189(2) 0.19522(17)
O9B O 0.8509(2) 0.0811(2) 0.69522(17)
O9C O 0.6491(2) -0.4189(2) 0.80478(17)
C5A C 0.4549(3) 0.3741(4) 0.1887(2)
H5A H 0.476(5) 0.309(6) 0.233(4)
O10A O 0.5237(2) 0.3991(3) 0.12570(18)
O10B O 0.0237(2) 0.1009(3) 0.62570(18)
O11B O 0.6300(2) 0.0027(2) 0.71935(17)
O11A O 0.1300(2) 0.4973(2) 0.21935(17)
O11C O 0.8700(2) -0.4973(2) 0.78065(17)
C6B C 0.5197(3) 0.0127(4) 0.7122(3)
H6B H 0.483(4) 0.034(5) 0.769(4)
O12B O 0.4594(2) 0.0003(3) 0.64044(18)
C7 C 0.220(2) 1.031(3) 0.8916(16)
O15 O 0.299(2) 1.100(2) 0.8501(17)
O16 O 0.129(4) 0.978(4) 0.860(3)
O13? O 0.1196(18) 1.042(2) 0.8728(15)
O14? O 0.224(5) 0.861(7) 0.834(4)
C8? C 0.270(4) 0.766(4) 0.744(3)
C9? C 0.223(3) 0.742(3) 0.778(2)
O17? O 0.2610(16) 0.665(2) 0.7128(13)
O18? O 0.2748(15) 0.7461(18) 0.8614(11)
O19? O 0.2457(16) 0.677(2) 0.8299(13)
loop_
_geom_bond_atom_site_label_1
_geom_bond_atom_site_label_2
_geom_bond_site_symmetry_1
_geom_bond_site_symmetry_2
Zn1 O1 1_555 1_555
Zn2 O4 1_555 1_555
Zn3 O1 1_555 1_555
Zn4 O2 1_555 1_555
O1 C1 1_555 1_555
C1 H1 1_555 1_555
O2 C1 1_555 1_555
O3 Zn1 1_555 1_555
C2 O3 1_555 1_555
H2 C2 1_555 1_555
O4 C2 1_555 1_555
O5 Zn1 1_555 1_555
C3 O5 1_555 1_555
H3 C3 1_555 1_555
O6 C3 1_555 1_555
O7 Zn1 1_555 1_555
C4 O7 1_555 1_555
H4 C4 1_555 1_555
O8 Zn3 1_555 1_555
O9 Zn1 1_555 1_555
C5 O9 1_555 1_555
H5 C5 1_555 1_555
O10 Zn4 1_555 1_555
O11 Zn1 1_555 1_555
C6 O11 1_555 1_555
H6 C6 1_555 1_555
O12 Zn3 1_555 1_555
C7 O15 1_555 1_555
O16 C7 1_555 1_555
Zn1B O1B 1_555 1_555
Zn1A O5A 1_555 1_555
Zn1B_2 O3B 1_555 1_555
Zn2B O4B_2 1_555 1_555
Zn2A O6 1_555 1_555
Zn2C O9B 1_555 1_555
Zn2A_2 O5A 1_555 1_555
Zn2B_2 O4B 1_555 1_555
Zn4_2 O2B 1_555 1_555
Zn4C O10A 1_555 1_555
O1B Zn3 1_555 1_555
C1B O1B 1_555 1_555
H1B C1B 1_555 1_555
O2B C1B 1_555 1_555
O2B_2 Zn4 1_555 1_555
O3B Zn4 1_555 1_555
O3B_2 Zn1B 1_555 1_555
C2B O3B 1_555 1_555
H2B C2B 1_555 1_555
O4B C2B 1_555 1_555
O5A C3A 1_555 1_555
O5B Zn1B 1_555 1_555
C3A H3A 1_555 1_555
O6A Zn2 1_555 1_555
O6C Zn2B 1_555 1_555
O7B Zn1B 1_555 1_555
C4B O7B 1_555 1_555
H4B C4B 1_555 1_555
O8B Zn3 1_555 1_555
O9A Zn2 1_555 1_555
O9B Zn1B 1_555 1_555
O9C Zn2B 1_555 1_555
C5A O9A 1_555 1_555
H5A C5A 1_555 1_555
O10A C5A 1_555 1_555
O10B Zn4 1_555 1_555
O11B Zn1B 1_555 1_555
O11A Zn2 1_555 1_555
O11C Zn2B 1_555 1_555
C6B O11B 1_555 1_555
H6B C6B 1_555 1_555
O12B Zn3 1_555 1_555
Zn2 O5 1_555 1_555
Zn2 O7 1_555 1_555
Zn4 O3 1_555 1_555
C4 O8 1_555 1_555
O9 Zn2A 1_555 1_555
C5 O10 1_555 1_555
O11 Zn2A 1_555 1_555
C6 O12 1_555 1_555
Zn1A O9A 1_555 1_555
Zn1A O11A 1_555 1_555
Zn2B O5B 1_555 1_555
Zn2B O7B 1_555 1_555
Zn2C O11B 1_555 1_555
Zn4_2 O3B_2 1_555 1_555
C3A O6A 1_555 1_555
C4B O8B 1_555 1_555
C6B O12B 1_555 1_555

#END
