
#######################################################################
#
#                 Cambridge Crystallographic Data Centre
#                                CCDC 
#
#######################################################################
#
# If this CIF has been generated from an entry in the Cambridge 
# Structural Database, then it will include bibliographic, chemical, 
# crystal, experimental, refinement or atomic coordinate data resulting 
# from the CCDC's data processing and validation procedures.
#
#######################################################################

data_FIRNAX
_symmetry_cell_setting           trigonal
_symmetry_space_group_name_H-M   'P 31 2 1'
_symmetry_Int_Tables_number      152
_space_group_name_Hall           'P 31 2"'
loop_
_symmetry_equiv_pos_site_id
_symmetry_equiv_pos_as_xyz
1 x,y,z
2 -y,x-y,1/3+z
3 -x+y,-x,2/3+z
4 y,x,-z
5 -x,-x+y,1/3-z
6 x-y,-y,2/3-z
_cell_length_a                   15.540(2)
_cell_length_b                   15.540(2)
_cell_length_c                   18.679(4)
_cell_angle_alpha                90
_cell_angle_beta                 90
_cell_angle_gamma                120
_cell_volume                     3906.49
loop_
_atom_site_label
_atom_site_type_symbol
_atom_site_fract_x
_atom_site_fract_y
_atom_site_fract_z
Ni1 Ni 0.82532(3) 1.0000 0.8333
F1 F 0.9453(15) 1.3398(5) 0.8157(5)
O1 O 0.9598(2) 1.0000 0.8333
O2 O 0.88492(18) 1.12851(18) 0.77169(12)
O3 O 1.0379(2) 1.1601(3) 0.7463(2)
N1 N 0.7809(2) 0.9118(2) 0.74008(15)
N2 N 0.6061(2) 0.6406(2) 0.55863(15)
N3 N 0.7561(2) 0.7561(2) 0.5000
N4 N 0.3087(3) 0.3087(3) 0.5000
C1 C 0.6935(3) 0.8283(3) 0.7366(2)
H1 H 0.6515 0.8113 0.7760
C2 C 0.6609(3) 0.7649(3) 0.67791(19)
H2 H 0.5986 0.7078 0.6771
C3 C 0.7254(3) 0.7908(3) 0.62090(17)
C4 C 0.8155(3) 0.8748(3) 0.6238(2)
H3 H 0.8599 0.8917 0.5860
C5 C 0.8403(3) 0.9348(3) 0.68305(19)
H4 H 0.9010 0.9937 0.6836
C6 C 0.6932(3) 0.7259(3) 0.55460(19)
C7 C 0.5845(3) 0.5845(3) 0.5000
C8 C 0.4889(3) 0.4889(3) 0.5000
C9 C 0.3756(5) 0.3345(3) 0.4472(2)
H5 H 0.3622 0.2895 0.4101
C10 C 0.4637(3) 0.4247(3) 0.4448(2)
H6 H 0.5054 0.4409 0.4052
C11 C 0.9690(3) 1.1791(3) 0.7431(2)
C12 C 0.9849(5) 1.2693(4) 0.7015(4)
C13 C 0.9731(7) 1.3411(5) 0.7456(5)
C14 C 0.9791(8) 1.4199(6) 0.7018(5)
H7 H 0.9545 1.4591 0.7200
F1D F 1.0547(15) 1.3945(16) 0.5176(5)
O2D O 1.11508(18) 1.24359(25) 0.56164(12)
O3D O 0.9621(2) 1.1222(4) 0.5870(2)
C11D C 1.0310(3) 1.2101(4) 0.5902(2)
C12D C 1.0151(5) 1.2844(6) 0.6318(4)
C13D C 1.0269(7) 1.3680(9) 0.5877(5)
C14D C 1.0209(8) 1.4408(10) 0.6315(5)
H7D H 1.0455 1.5046 0.6133
N1C N 0.9118(2) 0.7809(2) 0.25992(15)
N2C N 0.6406(2) 0.6061(2) 0.44137(15)
C1C C 0.8283(3) 0.6935(3) 0.2634(2)
H1C H 0.8113 0.6515 0.2240
C2C C 0.7649(3) 0.6609(3) 0.32209(19)
H2C H 0.7078 0.5986 0.3229
C3C C 0.7908(3) 0.7254(3) 0.37910(17)
C4C C 0.8748(3) 0.8155(3) 0.3762(2)
H3C H 0.8917 0.8599 0.4140
C5C C 0.9348(3) 0.8403(3) 0.31695(19)
H4C H 0.9937 0.9010 0.3164
C6C C 0.7259(3) 0.6932(3) 0.44540(19)
C10C C 0.4247(3) 0.4637(3) 0.5552(2)
H6C H 0.4409 0.5054 0.5948
C9C C 0.3345(3) 0.3756(5) 0.5528(2)
H5C H 0.2895 0.3622 0.5899
Ni1A Ni 1.0000 0.82532(3) 0.1666
Ni1B Ni 0.17468(3) 0.17468(3) 0.5000
Ni1B_2 Ni 1.17468(3) 1.17468(3) 0.5000
O2E O 0.75641(25) 0.87149(18) 0.89498(12)
N1E N 0.8691(3) 1.0882(2) 0.92659(15)
N4A N 0.6913(3) 1.0000(4) 0.8333
loop_
_geom_bond_atom_site_label_1
_geom_bond_atom_site_label_2
_geom_bond_site_symmetry_1
_geom_bond_site_symmetry_2
Ni1 O1 1_555 1_555
F1 C13 1_555 1_555
O2 Ni1 1_555 1_555
O3 C11 1_555 1_555
N1 Ni1 1_555 1_555
N2 C6 1_555 1_555
N3 C6 1_555 1_555
N4 C9 1_555 1_555
C1 N1 1_555 1_555
H1 C1 1_555 1_555
C2 C1 1_555 1_555
H2 C2 1_555 1_555
C3 C2 1_555 1_555
C4 C3 1_555 1_555
H3 C4 1_555 1_555
C5 N1 1_555 1_555
H4 C5 1_555 1_555
C6 C3 1_555 1_555
C7 N2 1_555 1_555
C8 C7 1_555 1_555
C9 H5 1_555 1_555
C10 C8 1_555 1_555
H6 C10 1_555 1_555
C11 O2 1_555 1_555
C12 C11 1_555 1_555
C13 C12 1_555 1_555
C14 C13 1_555 1_555
H7 C14 1_555 1_555
F1D C13D 1_555 1_555
O2D C11D 1_555 1_555
O3D C11D 1_555 1_555
C11D C12D 1_555 1_555
C12D C12 1_555 1_555
C13D C12D 1_555 1_555
C14D C14 1_555 1_555
H7D C14D 1_555 1_555
N1C C1C 1_555 1_555
N2C C7 1_555 1_555
C1C H1C 1_555 1_555
C2C C1C 1_555 1_555
H2C C2C 1_555 1_555
C3C C2C 1_555 1_555
C4C C3C 1_555 1_555
H3C C4C 1_555 1_555
C5C N1C 1_555 1_555
H4C C5C 1_555 1_555
C6C N3 1_555 1_555
C10C C8 1_555 1_555
H6C C10C 1_555 1_555
C9C N4 1_555 1_555
H5C C9C 1_555 1_555
Ni1A N1C 1_555 1_555
Ni1B N4 1_555 1_555
Ni1B_2 O2D 1_555 1_555
O2E Ni1 1_555 1_555
N1E Ni1 1_555 1_555
N4A Ni1 1_555 1_555
C4 C5 1_555 1_555
C9 C10 1_555 1_555
C13D C14D 1_555 1_555
N2C C6C 1_555 1_555
C3C C6C 1_555 1_555
C4C C5C 1_555 1_555
C10C C9C 1_555 1_555

#END
