
#######################################################################
#
#                 Cambridge Crystallographic Data Centre
#                                CCDC 
#
#######################################################################
#
# If this CIF has been generated from an entry in the Cambridge 
# Structural Database, then it will include bibliographic, chemical, 
# crystal, experimental, refinement or atomic coordinate data resulting 
# from the CCDC's data processing and validation procedures.
#
#######################################################################

data_FIRPAZ
_symmetry_cell_setting           trigonal
_symmetry_space_group_name_H-M   'P 32 2 1'
_symmetry_Int_Tables_number      154
_space_group_name_Hall           'P 32 2"'
loop_
_symmetry_equiv_pos_site_id
_symmetry_equiv_pos_as_xyz
1 x,y,z
2 -y,x-y,2/3+z
3 -x+y,-x,1/3+z
4 y,x,-z
5 -x,-x+y,2/3-z
6 x-y,-y,1/3-z
_cell_length_a                   15.695(2)
_cell_length_b                   15.695(2)
_cell_length_c                   18.546(4)
_cell_angle_alpha                90
_cell_angle_beta                 90
_cell_angle_gamma                120
_cell_volume                     3956.43
loop_
_atom_site_label
_atom_site_type_symbol
_atom_site_fract_x
_atom_site_fract_y
_atom_site_fract_z
Ni1 Ni 0.17757(4) 0.17757(4) 0.0000
C1 C 0.1308(4) 0.3057(4) 0.0933(2)
H1 H 0.1526 0.3455 0.0525
C2 C 0.1001(4) 0.3383(4) 0.1530(2)
H2 H 0.1019 0.3984 0.1519
C3 C 0.0676(4) 0.2800(3) 0.2125(2)
C4 C 0.0636(5) 0.1900(4) 0.2104(2)
H3 H 0.0385 0.1470 0.2493
C5 C 0.0974(4) 0.1647(3) 0.1501(2)
H4 H 0.0972 0.1054 0.1500
C6 C 0.0300(4) 0.3077(3) 0.2764(2)
C7 C 0.0000 0.4148(4) 0.3333
C8 C 0.0364(5) 0.6621(3) 0.2789(3)
H5 H 0.0620 0.7044 0.2397
C9 C 0.0387(6) 0.5757(4) 0.2771(2)
H6 H 0.0661 0.5610 0.2379
C10 C 0.0000(6) 0.5117(4) 0.3333
C11 C 0.0351(4) 0.2106(4) -0.0907(3)
C12 C 0.0228(5) 0.2856(4) -0.1321(3)
C13 C 0.0423(6) 0.3698(6) -0.0943(5)
H7 H 0.0687 0.3808 -0.0481
C14 C 0.0218(12) 0.4369(12) -0.1267(7)
H8 H 0.0333 0.4935 -0.1025
N1 N 0.1302(3) 0.2215(3) 0.09212(17)
N2 N 0.0345(4) 0.3953(3) 0.27440(19)
N3 N 0.0000 0.2466(3) 0.3333
N4 N 0.0000(4) 0.6888(3) 0.3333
O1 O 0.0433(3) 0.0433(3) 0.0000
O2 O 0.1197(2) 0.2449(2) -0.06374(14)
O3 O -0.0305(3) 0.1273(3) -0.0867(3)
C1D C -0.1308(4) 0.1749(6) 0.5734(2)
H1D H -0.1526 0.1929 0.6142
C2D C -0.1001(4) 0.2382(6) 0.5137(2)
H2D H -0.1019 0.2965 0.5148
C3D C -0.0676(4) 0.2124(5) 0.4542(2)
C4D C -0.0636(5) 0.1264(6) 0.4563(2)
H3D H -0.0385 0.1085 0.4174
C5D C -0.0974(4) 0.0673(5) 0.5166(2)
H4D H -0.0972 0.0082 0.5167
C6D C -0.0300(4) 0.2777(5) 0.3903(2)
N1D N -0.1302(3) 0.0913(4) 0.57455(17)
N2D N -0.0345(4) 0.3608(5) 0.39227(19)
C8D C -0.0364(5) 0.6257(6) 0.3878(3)
H5D H -0.0620 0.6424 0.4270
C9D C -0.0387(6) 0.5370(7) 0.3896(2)
H6D H -0.0661 0.4949 0.4288
C11D C -0.0351(4) 0.1755(6) -0.2426(3)
C12D C -0.0228(5) 0.2628(6) -0.2012(3)
C13D C -0.0423(6) 0.3275(8) -0.2390(5)
H7D H -0.0687 0.3121 -0.2852
C14D C -0.0218(12) 0.4151(17) -0.2066(7)
H8D H -0.0333 0.4602 -0.2308
O2D O -0.1197(2) 0.1252(3) -0.26959(14)
O3D O 0.0305(3) 0.1578(4) -0.2466(3)
Ni1A Ni -0.17757(4) 0.00000(6) -0.3333
Ni1A_2 Ni -0.17757(4) 0.00000(6) 0.6667
Ni1B Ni 0.00000(6) 0.82243(4) 0.3333
N1C N 0.2215(3) 0.1302(3) -0.09212(17)
N4A N 0.3112(3) 0.3112(5) -0.0000
O2C O 0.2449(2) 0.1197(2) 0.06374(14)
loop_
_geom_bond_atom_site_label_1
_geom_bond_atom_site_label_2
_geom_bond_site_symmetry_1
_geom_bond_site_symmetry_2
Ni1 N1 1_555 1_555
C1 H1 1_555 1_555
C2 C1 1_555 1_555
H2 C2 1_555 1_555
C3 C2 1_555 1_555
C4 C3 1_555 1_555
H3 C4 1_555 1_555
C5 C4 1_555 1_555
H4 C5 1_555 1_555
C6 C3 1_555 1_555
C7 C10 1_555 1_555
C8 H5 1_555 1_555
C9 C8 1_555 1_555
H6 C9 1_555 1_555
C10 C9 1_555 1_555
C11 C12 1_555 1_555
C12 C13 1_555 1_555
C13 H7 1_555 1_555
C14 C13 1_555 1_555
H8 C14 1_555 1_555
N1 C1 1_555 1_555
N2 C6 1_555 1_555
N3 C6 1_555 1_555
N4 C8 1_555 1_555
O1 Ni1 1_555 1_555
O2 Ni1 1_555 1_555
O3 C11 1_555 1_555
C1D H1D 1_555 1_555
C2D C1D 1_555 1_555
H2D C2D 1_555 1_555
C3D C2D 1_555 1_555
C4D C3D 1_555 1_555
H3D C4D 1_555 1_555
C5D C4D 1_555 1_555
H4D C5D 1_555 1_555
C6D N3 1_555 1_555
N1D C1D 1_555 1_555
N2D C7 1_555 1_555
C8D N4 1_555 1_555
H5D C8D 1_555 1_555
C9D C10 1_555 1_555
H6D C9D 1_555 1_555
C11D C12D 1_555 1_555
C12D C12 1_555 1_555
C13D C12D 1_555 1_555
H7D C13D 1_555 1_555
C14D C14 1_555 1_555
H8D C14D 1_555 1_555
O2D C11D 1_555 1_555
O3D C11D 1_555 1_555
Ni1A O2D 1_555 1_555
Ni1A_2 N1D 1_555 1_555
Ni1B N4 1_555 1_555
N1C Ni1 1_555 1_555
N4A Ni1 1_555 1_555
O2C Ni1 1_555 1_555
C5 N1 1_555 1_555
C7 N2 1_555 1_555
C11 O2 1_555 1_555
C3D C6D 1_555 1_555
C5D N1D 1_555 1_555
C6D N2D 1_555 1_555
C8D C9D 1_555 1_555
C13D C14D 1_555 1_555

#END
