
#######################################################################
#
#                 Cambridge Crystallographic Data Centre
#                                CCDC 
#
#######################################################################
#
# If this CIF has been generated from an entry in the Cambridge 
# Structural Database, then it will include bibliographic, chemical, 
# crystal, experimental, refinement or atomic coordinate data resulting 
# from the CCDC's data processing and validation procedures.
#
#######################################################################

data_FISPIH
_symmetry_cell_setting           monoclinic
_symmetry_space_group_name_H-M   'P 21/c'
_symmetry_Int_Tables_number      14
_space_group_name_Hall           '-P 2ybc'
loop_
_symmetry_equiv_pos_site_id
_symmetry_equiv_pos_as_xyz
1 x,y,z
2 -x,1/2+y,1/2-z
3 -x,-y,-z
4 x,1/2-y,1/2+z
_cell_length_a                   33.5933(17)
_cell_length_b                   24.5773(13)
_cell_length_c                   33.6567(18)
_cell_angle_alpha                90
_cell_angle_beta                 97.7110(10)
_cell_angle_gamma                90
_cell_volume                     27536.8
loop_
_atom_site_label
_atom_site_type_symbol
_atom_site_fract_x
_atom_site_fract_y
_atom_site_fract_z
Ni5 Ni 0.74007(5) 0.19722(7) 0.88236(5)
Ni6 Ni 0.48561(5) 0.77071(8) 0.64323(5)
Ni7 Ni 0.99765(4) 0.70571(7) 0.63688(4)
Ni8 Ni 0.23602(5) 1.28936(9) 0.87545(5)
O25 O 0.1951(2) 1.0713(3) 0.68167(19)
O26 O 0.18703(19) 0.9359(3) 0.67663(18)
O27 O 0.2654(2) 0.9389(3) 0.6119(2)
O28 O 0.2583(2) 1.0589(3) 0.6018(2)
O29 O 0.1588(3) 1.2554(4) 0.8020(2)
O30 O 0.2237(2) 1.2399(4) 0.8245(2)
O31 O 0.0717(2) 0.7423(3) 0.7133(2)
O32 O 0.0483(2) 0.7597(3) 0.6503(2)
O33 O 0.4305(2) 0.8141(4) 0.6283(2)
O34 O 0.4172(3) 0.8169(5) 0.5633(2)
O35 O 0.3144(3) 1.1559(5) 0.4443(3)
O36 O 0.2476(3) 1.1673(4) 0.4281(2)
O37 O 0.6898(2) 0.5716(3) 0.68590(19)
O38 O 0.69905(18) 0.4284(3) 0.6936(2)
O39 O 0.79760(19) 0.5079(3) 0.6576(2)
O40 O 0.7361(2) 0.4974(3) 0.5894(2)
O41 O 0.5392(2) 0.7289(3) 0.6582(2)
O42 O 0.5623(3) 0.7478(4) 0.7210(3)
O43 O 0.6680(3) 0.2310(4) 0.8044(2)
O44 O 0.7273(2) 0.2520(3) 0.8340(2)
O45 O 0.9436(3) 0.6611(3) 0.6279(3)
O46 O 0.9568(3) 0.5844(5) 0.5953(4)
O47 O 0.7869(4) 0.4193(5) 0.4246(3)
O48 O 0.7517(2) 0.3490(4) 0.4358(2)
C67 C 0.2257(3) 1.0003(4) 0.6449(3)
C68 C 0.2308(3) 1.0383(4) 0.6823(3)
H49 H 0.2348 1.0167 0.7066
H50 H 0.2541 1.0615 0.6818
C69 C 0.1881(3) 0.9689(4) 0.6414(3)
H51 H 0.1654 0.9935 0.6382
H52 H 0.1862 0.9457 0.6178
C70 C 0.2618(3) 0.9650(4) 0.6491(3)
H53 H 0.2855 0.9867 0.6575
H54 H 0.2596 0.9377 0.6696
C71 C 0.2207(3) 1.0361(4) 0.6050(3)
H55 H 0.2120 1.0135 0.5818
H56 H 0.2010 1.0645 0.6065
C72 C 0.1953(3) 1.1090(4) 0.7105(3)
C73 C 0.2296(3) 1.1169(5) 0.7405(3)
H57 H 0.2523 1.0951 0.7415
C74 C 0.2271(3) 1.1579(4) 0.7676(3)
H58 H 0.2499 1.1659 0.7855
C75 C 0.1939(3) 1.1871(5) 0.7697(3)
C76 C 0.1592(3) 1.1786(5) 0.7408(3)
H59 H 0.1360 1.1994 0.7411
C77 C 0.1613(3) 1.1389(4) 0.7129(3)
H60 H 0.1386 1.1318 0.6946
C78 C 0.1906(4) 1.2320(5) 0.8018(3)
C79 C 0.1585(3) 0.8962(4) 0.6754(3)
C80 C 0.1586(3) 0.8645(5) 0.7096(3)
H61 H 0.1778 0.8704 0.7318
C81 C 0.1288(3) 0.8224(5) 0.7105(3)
H62 H 0.1287 0.8012 0.7334
C82 C 0.1014(3) 0.8136(4) 0.6787(3)
C83 C 0.1023(3) 0.8432(4) 0.6458(3)
H63 H 0.0839 0.8350 0.6233
C84 C 0.1287(3) 0.8849(4) 0.6430(3)
H64 H 0.1269 0.9057 0.6197
C85 C 0.0725(3) 0.7678(5) 0.6815(4)
C86 C 0.3004(3) 0.9097(5) 0.6120(3)
C87 C 0.3248(3) 0.8944(5) 0.6439(4)
H65 H 0.3191 0.9038 0.6693
C88 C 0.3586(3) 0.8646(5) 0.6398(3)
H66 H 0.3747 0.8521 0.6626
C89 C 0.3692(4) 0.8532(5) 0.6038(4)
C90 C 0.3448(4) 0.8773(7) 0.5682(4)
H67 H 0.3524 0.8749 0.5426
C91 C 0.3109(3) 0.9033(5) 0.5753(4)
H68 H 0.2940 0.9173 0.5536
C92 C 0.4082(4) 0.8250(6) 0.5975(4)
C93 C 0.2634(3) 1.0802(4) 0.5652(3)
C94 C 0.2987(3) 1.0794(5) 0.5535(3)
H69 H 0.3200 1.0621 0.5691
C95 C 0.3047(4) 1.1043(5) 0.5180(4)
H70 H 0.3305 1.1048 0.5108
C96 C 0.2736(3) 1.1286(6) 0.4924(3)
C97 C 0.2357(3) 1.1237(5) 0.5024(3)
H71 H 0.2135 1.1347 0.4847
C98 C 0.2308(4) 1.1025(5) 0.5391(3)
H72 H 0.2054 1.1026 0.5471
C99 C 0.2791(4) 1.1506(6) 0.4520(4)
C100 C 0.7275(3) 0.4999(4) 0.6586(3)
C101 C 0.6886(3) 0.5345(4) 0.6531(3)
H73 H 0.6865 0.5545 0.6281
H74 H 0.6653 0.5110 0.6523
C102 C 0.7312(3) 0.4680(4) 0.6956(3)
H75 H 0.7569 0.4495 0.6994
H76 H 0.7300 0.4920 0.7183
C103 C 0.7646(2) 0.5384(4) 0.6640(3)
H77 H 0.7607 0.5681 0.6449
H78 H 0.7684 0.5536 0.6908
C104 C 0.7268(3) 0.4632(4) 0.6223(3)
H79 H 0.7467 0.4345 0.6276
H80 H 0.7006 0.4466 0.6157
C105 C 0.6585(3) 0.6061(4) 0.6848(3)
C106 C 0.6277(3) 0.6110(4) 0.6543(3)
H81 H 0.6270 0.5883 0.6321
C107 C 0.5978(3) 0.6486(4) 0.6553(3)
H82 H 0.5776 0.6508 0.6336
C108 C 0.5965(3) 0.6826(4) 0.6868(4)
C109 C 0.6291(3) 0.6780(4) 0.7198(3)
H83 H 0.6291 0.6993 0.7426
C110 C 0.6589(3) 0.6426(4) 0.7171(3)
H84 H 0.6808 0.6421 0.7372
C111 C 0.5641(3) 0.7225(5) 0.6904(4)
C112 C 0.6989(3) 0.3889(4) 0.7223(3)
C113 C 0.6676(3) 0.3570(5) 0.7199(3)
H85 H 0.6459 0.3638 0.7003
C114 C 0.6658(3) 0.3131(4) 0.7459(3)
H86 H 0.6440 0.2894 0.7419
C115 C 0.6977(3) 0.3036(5) 0.7794(3)
C116 C 0.7286(3) 0.3395(4) 0.7816(3)
H87 H 0.7496 0.3358 0.8024
C117 C 0.7304(3) 0.3835(4) 0.7532(3)
H88 H 0.7520 0.4074 0.7556
C118 C 0.6979(4) 0.2594(5) 0.8070(3)
C119 C 0.8291(4) 0.5351(5) 0.6459(4)
C120 C 0.8404(3) 0.5867(5) 0.6574(4)
H89 H 0.8241 0.6058 0.6728
C121 C 0.8755(3) 0.6136(5) 0.6475(3)
H90 H 0.8821 0.6487 0.6563
C122 C 0.8984(3) 0.5857(5) 0.6249(3)
C123 C 0.8873(4) 0.5340(6) 0.6144(4)
H91 H 0.9041 0.5140 0.6001
C124 C 0.8544(4) 0.5100(6) 0.6230(4)
H92 H 0.8482 0.4752 0.6133
C125 C 0.9372(4) 0.6195(8) 0.6144(4)
C126 C 0.7431(4) 0.4682(5) 0.5553(4)
C127 C 0.7658(4) 0.4956(6) 0.5315(4)
H93 H 0.7753 0.5302 0.5389
C128 C 0.7750(4) 0.4729(5) 0.4963(4)
H94 H 0.7895 0.4922 0.4794
C129 C 0.7611(4) 0.4172(6) 0.4865(4)
C130 C 0.7374(4) 0.3916(4) 0.5101(3)
H95 H 0.7260 0.3582 0.5022
C131 C 0.7300(3) 0.4149(6) 0.5465(4)
H96 H 0.7166 0.3953 0.5644
C132 C 0.7681(4) 0.3933(7) 0.4493(5)
N9 N 0.4583(4) 0.6965(5) 0.6600(4)
N10 N 0.4925(5) 0.7496(6) 0.5825(4)
N11 N 0.5101(4) 0.8411(5) 0.6296(4)
N12 N 0.4818(5) 0.7896(6) 0.7021(4)
C153 C 0.4495(4) 0.6688(8) 0.6251(4)
H137 H 0.4228 0.6807 0.6140
H138 H 0.4467 0.6311 0.6328
C154 C 0.4720(5) 0.6672(6) 0.5916(5)
H139 H 0.4986 0.6566 0.6040
H140 H 0.4612 0.6352 0.5770
C155 C 0.4803(9) 0.7030(8) 0.5603(6)
H141 H 0.5016 0.6890 0.5463
H142 H 0.4566 0.7098 0.5412
C156 C 0.5191(5) 0.7952(8) 0.5682(5)
H143 H 0.5029 0.8167 0.5479
H144 H 0.5406 0.7787 0.5559
C157 C 0.5376(6) 0.8335(9) 0.6023(6)
H145 H 0.5622 0.8177 0.6160
H146 H 0.5442 0.8683 0.5912
C158 C 0.5286(7) 0.8759(11) 0.6635(6)
H147 H 0.5540 0.8606 0.6754
H148 H 0.5334 0.9123 0.6540
C159 C 0.5006(6) 0.8781(8) 0.6932(7)
H149 H 0.5147 0.9001 0.7146
H150 H 0.4791 0.9011 0.6806
C160 C 0.4804(8) 0.8391(8) 0.7139(7)
H151 H 0.4915 0.8404 0.7421
H152 H 0.4524 0.8497 0.7120
C161 C 0.4487(5) 0.7540(10) 0.7218(6)
H153 H 0.4603 0.7381 0.7471
H154 H 0.4257 0.7760 0.7260
C162 C 0.4373(6) 0.7106(9) 0.6906(6)
H155 H 0.4344 0.6773 0.7054
H156 H 0.4105 0.7201 0.6779
N13 N 0.2943(3) 1.2929(6) 0.8654(3)
N14 N 0.2406(3) 1.2223(5) 0.9097(3)
N15 N 0.1772(3) 1.2953(5) 0.8832(3)
N16 N 0.2310(4) 1.3605(5) 0.8410(3)
C163 C 0.3153(4) 1.2431(6) 0.8626(5)
H157 H 0.3439 1.2506 0.8654
H158 H 0.3075 1.2276 0.8362
C164 C 0.3078(4) 1.2026(6) 0.8930(5)
H159 H 0.3238 1.1710 0.8883
H160 H 0.3195 1.2175 0.9186
C165 C 0.2684(5) 1.1820(6) 0.8987(5)
H161 H 0.2565 1.1646 0.8741
H162 H 0.2718 1.1543 0.9195
C166 C 0.1967(4) 1.2096(6) 0.9109(5)
H163 H 0.1943 1.1857 0.9333
H164 H 0.1860 1.1907 0.8865
C167 C 0.1716(4) 1.2619(6) 0.9150(4)
H165 H 0.1434 1.2529 0.9141
H166 H 0.1806 1.2800 0.9402
C168 C 0.1612(4) 1.3510(6) 0.8901(5)
H167 H 0.1324 1.3491 0.8908
H168 H 0.1738 1.3651 0.9157
C169 C 0.1698(5) 1.3877(6) 0.8571(5)
H169 H 0.1578 1.3708 0.8323
H170 H 0.1549 1.4210 0.8599
C170 C 0.2102(5) 1.4039(7) 0.8510(6)
H171 H 0.2088 1.4309 0.8298
H172 H 0.2238 1.4201 0.8754
C171 C 0.2723(6) 1.3777(8) 0.8297(6)
H173 H 0.2696 1.3928 0.8028
H174 H 0.2853 1.4042 0.8485
C172 C 0.2946(5) 1.3256(7) 0.8321(5)
H175 H 0.2842 1.3042 0.8087
H176 H 0.3224 1.3339 0.8297
N25 N 0.7138(3) 0.2543(5) 0.9153(3)
N26 N 0.6883(3) 0.1560(4) 0.8681(3)
N27 N 0.7650(3) 0.1389(5) 0.8490(3)
N28 N 0.7940(3) 0.2387(5) 0.8987(3)
C193 C 0.6856(4) 0.2345(6) 0.9410(4)
H216 H 0.6738 0.2648 0.9538
H217 H 0.6992 0.2111 0.9618
C194 C 0.6543(4) 0.2040(6) 0.9157(4)
H218 H 0.6323 0.1986 0.9313
H219 H 0.6443 0.2274 0.8934
C195 C 0.6630(4) 0.1522(6) 0.8993(4)
H220 H 0.6380 0.1348 0.8886
H221 H 0.6761 0.1294 0.9207
C196 C 0.6984(4) 0.1051(6) 0.8492(4)
H222 H 0.7082 0.0789 0.8698
H223 H 0.6744 0.0901 0.8338
C197 C 0.7284(4) 0.1136(7) 0.8233(4)
H224 H 0.7183 0.1379 0.8016
H225 H 0.7356 0.0794 0.8120
C198 C 0.7942(5) 0.1593(7) 0.8234(5)
H226 H 0.7809 0.1837 0.8032
H227 H 0.8052 0.1291 0.8099
C199 C 0.8272(5) 0.1888(7) 0.8487(5)
H228 H 0.8382 0.1638 0.8696
H229 H 0.8482 0.1951 0.8320
C200 C 0.8207(5) 0.2392(6) 0.8678(5)
H230 H 0.8100 0.2649 0.8473
H231 H 0.8466 0.2530 0.8798
C201 C 0.7812(4) 0.2922(6) 0.9172(4)
H232 H 0.8035 0.3066 0.9355
H233 H 0.7741 0.3188 0.8962
C202 C 0.7473(5) 0.2834(7) 0.9386(5)
H234 H 0.7376 0.3184 0.9467
H235 H 0.7562 0.2629 0.9628
N29 N 0.9879(3) 0.7364(5) 0.5800(3)
N30 N 1.0317(3) 0.6407(4) 0.6201(3)
N31 N 1.0076(3) 0.6738(4) 0.6942(3)
N32 N 0.9641(3) 0.7724(4) 0.6530(3)
C203 C 1.0190(4) 0.7326(6) 0.5546(4)
H236 H 1.0404 0.7579 0.5640
H237 H 1.0081 0.7431 0.5275
C204 C 1.0362(4) 0.6764(6) 0.5537(4)
H238 H 1.0144 0.6517 0.5444
H239 H 1.0546 0.6760 0.5339
C205 C 1.0572(4) 0.6548(5) 0.5907(3)
H240 H 1.0719 0.6226 0.5846
H241 H 1.0766 0.6815 0.6022
C206 C 1.0495(4) 0.6191(6) 0.6591(4)
H242 H 1.0598 0.5830 0.6549
H243 H 1.0723 0.6419 0.6691
C207 C 1.0239(4) 0.6156(5) 0.6894(4)
H244 H 1.0388 0.6031 0.7144
H245 H 1.0020 0.5905 0.6814
C208 C 0.9722(3) 0.6772(5) 0.7163(3)
H246 H 0.9517 0.6523 0.7042
H247 H 0.9801 0.6657 0.7438
C209 C 0.9549(3) 0.7326(5) 0.7164(3)
H248 H 0.9357 0.7322 0.7354
H249 H 0.9765 0.7567 0.7273
C210 C 0.9357(3) 0.7577(5) 0.6813(4)
H250 H 0.9221 0.7904 0.6886
H251 H 0.9155 0.7332 0.6681
C211 C 0.9443(4) 0.7959(6) 0.6133(4)
H252 H 0.9201 0.7757 0.6038
H253 H 0.9370 0.8337 0.6168
C212 C 0.9729(4) 0.7920(5) 0.5846(4)
H254 H 0.9955 0.8157 0.5931
H255 H 0.9602 0.8048 0.5587
Ni5C Ni 0.74007(5) 0.30278(7) 0.38236(5)
Ni7_2 Ni -0.00235(4) 0.70571(7) 0.63688(4)
Ni8C Ni 0.23602(5) 1.21064(9) 0.37545(5)
O32_2 O 1.0483(2) 0.7597(3) 0.6503(2)
O36C O 0.2476(3) 1.3327(4) 0.9281(2)
O48C O 0.7517(2) 0.1510(4) 0.9358(2)
Ni1 Ni 0.98466(5) 1.29509(8) 0.63018(5)
Ni2 Ni 0.75591(5) 0.70502(7) 0.40305(5)
Ni3 Ni 1.23977(5) 0.78546(8) 0.38701(5)
Ni4 Ni 0.47843(5) 0.28618(7) 0.12520(5)
O1 O 0.94327(19) 1.0711(3) 0.44084(19)
O2 O 1.00928(19) 1.0633(3) 0.3612(2)
O3 O 1.0175(2) 0.9452(3) 0.3695(2)
O4 O 0.9395(2) 0.9387(3) 0.4370(2)
O5 O 0.9695(2) 1.2498(3) 0.5794(2)
O6 O 0.9043(3) 1.2629(4) 0.5547(2)
O7 O 1.0642(2) 1.1589(4) 0.2001(3)
O8 O 0.9977(2) 1.1639(4) 0.1861(2)
O9 O 1.1877(2) 0.8365(4) 0.3749(2)
O10 O 1.1742(3) 0.8494(5) 0.3105(3)
O11 O 0.8299(2) 0.7451(3) 0.4817(3)
O12 O 0.8031(2) 0.7606(3) 0.4182(2)
O13 O 0.5484(2) 0.5111(3) 0.3897(2)
O14 O 0.44847(19) 0.4339(3) 0.43038(19)
O15 O 0.44060(19) 0.5763(3) 0.42085(18)
O16 O 0.4823(2) 0.4950(3) 0.3242(2)
O17 O 0.7039(2) 0.6597(3) 0.3885(3)
O18 O 0.7181(3) 0.5876(5) 0.3521(4)
O19 O 0.5353(3) 0.4024(4) 0.1621(3)
O20 O 0.4913(2) 0.3354(4) 0.1758(2)
O21 O 0.4051(2) 0.2513(3) 0.5503(2)
O22 O 0.4661(2) 0.2758(3) 0.5813(2)
O23 O 0.2877(2) 0.7295(4) 0.3982(2)
O24 O 0.3143(2) 0.7525(4) 0.4601(2)
C1 C 0.9756(3) 1.0047(4) 0.4031(3)
C2 C 0.9803(3) 1.0388(4) 0.4413(3)
H1 H 0.9841 1.0154 0.4648
H2 H 1.0034 1.0626 0.4422
C3 C 0.9725(3) 1.0387(4) 0.3653(3)
H3 H 0.9642 1.0157 0.3422
H4 H 0.9521 1.0665 0.3661
C4 C 1.0149(3) 0.9711(4) 0.4070(3)
H5 H 1.0379 0.9948 0.4140
H6 H 1.0148 0.9440 0.4279
C5 C 0.9393(3) 0.9680(4) 0.3996(3)
H7 H 0.9150 0.9895 0.3941
H8 H 0.9401 0.9425 0.3777
C6 C 0.9442(3) 1.1114(4) 0.4697(3)
C7 C 0.9095(3) 1.1415(4) 0.4692(3)
H9 H 0.8881 1.1352 0.4492
C8 C 0.9059(3) 1.1799(5) 0.4969(3)
H10 H 0.8817 1.1981 0.4973
C9 C 0.9384(3) 1.1917(4) 0.5247(3)
C10 C 0.9723(3) 1.1628(4) 0.5254(3)
H11 H 0.9937 1.1704 0.5451
C11 C 0.9765(3) 1.1220(4) 0.4981(3)
H12 H 1.0003 1.1024 0.4989
C12 C 0.9381(4) 1.2409(5) 0.5557(4)
C13 C 1.0115(3) 1.0877(4) 0.3222(3)
C14 C 0.9808(3) 1.1063(5) 0.2973(3)
H13 H 0.9550 1.1049 0.3044
C15 C 0.9865(3) 1.1267(5) 0.2628(3)
H14 H 0.9648 1.1429 0.2470
C16 C 1.0225(3) 1.1256(5) 0.2486(4)
C17 C 1.0568(4) 1.1036(6) 0.2751(4)
H15 H 1.0823 1.1030 0.2672
C18 C 1.0506(3) 1.0841(5) 0.3114(3)
H16 H 1.0715 1.0688 0.3287
C19 C 1.0278(4) 1.1513(6) 0.2079(3)
C20 C 1.0536(3) 0.9250(5) 0.3661(3)
C21 C 1.0626(3) 0.9245(6) 0.3270(4)
H17 H 1.0449 0.9383 0.3058
C22 C 1.0960(5) 0.9044(7) 0.3216(4)
H18 H 1.1017 0.9055 0.2953
C23 C 1.1263(4) 0.8801(6) 0.3500(4)
C24 C 1.1140(3) 0.8773(5) 0.3883(4)
H19 H 1.1302 0.8596 0.4088
C25 C 1.0786(3) 0.9002(5) 0.3959(4)
H20 H 1.0716 0.8988 0.4217
C26 C 1.1657(4) 0.8520(6) 0.3455(5)
C27 C 0.9105(3) 0.8982(4) 0.4375(3)
C28 C 0.9104(3) 0.8705(5) 0.4727(4)
H21 H 0.9285 0.8809 0.4947
C29 C 0.8855(3) 0.8294(4) 0.4767(3)
H22 H 0.8865 0.8109 0.5009
C30 C 0.8577(3) 0.8145(5) 0.4433(4)
C31 C 0.8562(3) 0.8451(4) 0.4096(3)
H23 H 0.8359 0.8384 0.3885
C32 C 0.8835(3) 0.8859(4) 0.4054(3)
H24 H 0.8833 0.9043 0.3813
C33 C 0.8284(3) 0.7702(6) 0.4479(5)
C34 C 0.4766(3) 0.5060(5) 0.3932(3)
C35 C 0.5140(3) 0.5432(4) 0.3948(3)
H25 H 0.5096 0.5703 0.3737
H26 H 0.5184 0.5620 0.4203
C36 C 0.4743(3) 0.4650(4) 0.3576(3)
H27 H 0.4940 0.4363 0.3635
H28 H 0.4478 0.4487 0.3525
C37 C 0.4809(3) 0.4703(4) 0.4309(3)
H29 H 0.5058 0.4499 0.4327
H30 H 0.4822 0.4934 0.4545
C38 C 0.4391(2) 0.5386(4) 0.3878(3)
H31 H 0.4368 0.5583 0.3627
H32 H 0.4159 0.5149 0.3874
C39 C 0.5831(3) 0.5421(5) 0.3855(3)
C40 C 0.5923(4) 0.5924(4) 0.3997(4)
H33 H 0.5747 0.6122 0.4131
C41 C 0.6279(3) 0.6127(5) 0.3936(4)
H34 H 0.6339 0.6476 0.4033
C42 C 0.6554(4) 0.5884(6) 0.3753(4)
C43 C 0.6472(4) 0.5354(6) 0.3612(4)
H35 H 0.6670 0.5166 0.3500
C44 C 0.6106(3) 0.5097(6) 0.3634(4)
H36 H 0.6040 0.4758 0.3521
C45 C 0.6952(4) 0.6169(6) 0.3746(4)
C46 C 0.4869(4) 0.4622(5) 0.2902(4)
C47 C 0.5189(5) 0.4837(8) 0.2670(5)
H37 H 0.5352 0.5130 0.2760
C48 C 0.5224(4) 0.4580(8) 0.2326(5)
H38 H 0.5381 0.4736 0.2148
C49 C 0.5034(4) 0.4083(6) 0.2224(4)
C50 C 0.4788(4) 0.3890(5) 0.2461(3)
H39 H 0.4678 0.3547 0.2405
C51 C 0.4685(4) 0.4159(4) 0.2782(3)
H40 H 0.4484 0.4021 0.2919
C52 C 0.5081(5) 0.3767(8) 0.1827(4)
C53 C 0.4479(3) 0.3982(4) 0.4620(3)
C54 C 0.4138(3) 0.3667(5) 0.4596(3)
H41 H 0.3932 0.3712 0.4385
C55 C 0.4105(3) 0.3281(4) 0.4891(3)
H42 H 0.3877 0.3063 0.4873
C56 C 0.4401(3) 0.3216(4) 0.5205(3)
C57 C 0.4742(3) 0.3544(4) 0.5235(3)
H43 H 0.4944 0.3514 0.5451
C58 C 0.4770(3) 0.3912(4) 0.4933(3)
H44 H 0.5001 0.4124 0.4945
C59 C 0.4385(3) 0.2807(5) 0.5547(3)
C60 C 0.4087(3) 0.6091(5) 0.4203(3)
C61 C 0.4090(3) 0.6427(4) 0.4552(3)
H45 H 0.4302 0.6401 0.4759
C62 C 0.3781(3) 0.6788(5) 0.4584(3)
H46 H 0.3778 0.6989 0.4818
C63 C 0.3471(3) 0.6852(4) 0.4264(3)
C64 C 0.3471(3) 0.6518(4) 0.3931(3)
H47 H 0.3264 0.6556 0.3720
C65 C 0.3764(3) 0.6131(4) 0.3896(3)
H48 H 0.3745 0.5902 0.3675
C66 C 0.3136(3) 0.7242(5) 0.4292(3)
N1 N 0.9266(3) 1.3245(4) 0.6273(3)
N2 N 0.9719(3) 1.2251(5) 0.6586(3)
N3 N 1.0411(3) 1.2671(5) 0.6332(3)
N4 N 0.9954(4) 1.3637(5) 0.6015(3)
C133 C 0.9053(4) 1.3191(7) 0.6628(4)
H97 H 0.8773 1.3294 0.6563
H98 H 0.9177 1.3420 0.6845
C134 C 0.9094(4) 1.2547(7) 0.6753(4)
H99 H 0.8908 1.2486 0.6946
H100 H 0.8991 1.2342 0.6515
C135 C 0.9453(4) 1.2298(6) 0.6910(4)
H101 H 0.9400 1.1939 0.7011
H102 H 0.9587 1.2512 0.7131
C136 C 1.0106(4) 1.2003(7) 0.6732(4)
H103 H 1.0067 1.1621 0.6788
H104 H 1.0218 1.2178 0.6981
C137 C 1.0399(4) 1.2053(6) 0.6435(4)
H105 H 1.0310 1.1842 0.6196
H106 H 1.0663 1.1926 0.6550
C138 C 1.0624(4) 1.2739(6) 0.5970(4)
H107 H 1.0895 1.2598 0.6026
H108 H 1.0484 1.2538 0.5746
C139 C 1.0634(4) 1.3304(7) 0.5872(5)
H109 H 1.0822 1.3347 0.5679
H110 H 1.0746 1.3497 0.6112
C140 C 1.0236(5) 1.3597(8) 0.5698(5)
H111 H 1.0296 1.3959 0.5608
H112 H 1.0106 1.3396 0.5469
C141 C 0.9550(5) 1.3885(6) 0.5867(5)
H113 H 0.9439 1.3709 0.5619
H114 H 0.9585 1.4268 0.5812
C142 C 0.9243(4) 1.3820(6) 0.6192(4)
H115 H 0.9329 1.4031 0.6431
H116 H 0.8973 1.3928 0.6081
N5 N 0.7193(3) 0.7702(4) 0.4194(3)
N6 N 0.7624(4) 0.6709(5) 0.4617(3)
N7 N 0.7928(3) 0.6461(5) 0.3861(4)
N8 N 0.7465(3) 0.7396(5) 0.3488(3)
C143 C 0.6923(5) 0.7560(7) 0.4460(5)
H117 H 0.6707 0.7352 0.4313
H118 H 0.6807 0.7892 0.4549
C144 C 0.7087(5) 0.7239(7) 0.4825(5)
H119 H 0.7296 0.7460 0.4973
H120 H 0.6873 0.7209 0.4990
C145 C 0.7255(5) 0.6691(7) 0.4798(5)
H121 H 0.7310 0.6535 0.5064
H122 H 0.7061 0.6461 0.4638
C146 C 0.7848(6) 0.6190(7) 0.4511(5)
H123 H 0.7991 0.6042 0.4757
H124 H 0.7651 0.5922 0.4403
C147 C 0.8150(6) 0.6267(9) 0.4209(6)
H125 H 0.8357 0.6526 0.4311
H126 H 0.8277 0.5924 0.4159
C148 C 0.8218(5) 0.6603(7) 0.3563(5)
H127 H 0.8440 0.6819 0.3692
H128 H 0.8324 0.6275 0.3457
C149 C 0.7979(5) 0.6919(8) 0.3237(5)
H129 H 0.8164 0.6997 0.3046
H130 H 0.7785 0.6663 0.3104
C150 C 0.7756(5) 0.7421(7) 0.3271(5)
H131 H 0.7944 0.7699 0.3383
H132 H 0.7646 0.7538 0.3003
C151 C 0.7251(5) 0.7965(6) 0.3503(5)
H133 H 0.7443 0.8255 0.3576
H134 H 0.7091 0.8052 0.3249
C152 C 0.7002(5) 0.7866(7) 0.3816(4)
H135 H 0.6853 0.8197 0.3852
H136 H 0.6807 0.7588 0.3720
N17 N 1.2794(3) 0.8516(5) 0.3885(3)
N18 N 1.2337(3) 0.7941(4) 0.4471(3)
N19 N 1.2014(3) 0.7241(5) 0.3826(3)
N20 N 1.2458(4) 0.7844(5) 0.3267(3)
C173 C 1.2683(5) 0.8944(6) 0.4126(4)
H177 H 1.2425 0.9083 0.4004
H178 H 1.2878 0.9236 0.4120
C174 C 1.2652(5) 0.8811(6) 0.4560(4)
H179 H 1.2893 0.8619 0.4673
H180 H 1.2642 0.9150 0.4707
C175 C 1.2309(4) 0.8488(5) 0.4621(4)
H181 H 1.2068 0.8659 0.4486
H182 H 1.2287 0.8473 0.4905
C176 C 1.1978(4) 0.7557(6) 0.4508(4)
H183 H 1.2001 0.7416 0.4779
H184 H 1.1730 0.7764 0.4459
C177 C 1.1956(5) 0.7078(7) 0.4211(5)
H185 H 1.2160 0.6812 0.4308
H186 H 1.1696 0.6903 0.4200
C178 C 1.2040(5) 0.6763(7) 0.3552(5)
H187 H 1.2252 0.6517 0.3664
H188 H 1.1788 0.6565 0.3514
C179 C 1.2131(5) 0.6988(6) 0.3159(4)
H189 H 1.2166 0.6673 0.2994
H190 H 1.1885 0.7162 0.3039
C180 C 1.2453(5) 0.7363(7) 0.3091(5)
H191 H 1.2708 0.7185 0.3180
H192 H 1.2439 0.7421 0.2805
C181 C 1.2846(4) 0.8192(7) 0.3222(5)
H193 H 1.3089 0.7991 0.3315
H194 H 1.2851 0.8302 0.2946
C182 C 1.2802(6) 0.8670(7) 0.3481(5)
H195 H 1.3023 0.8918 0.3467
H196 H 1.2554 0.8859 0.3384
N21 N 0.4664(4) 0.3449(5) 0.0828(3)
N22 N 0.4189(3) 0.2865(5) 0.1378(3)
N23 N 0.4849(4) 0.2240(5) 0.1674(3)
N24 N 0.5352(4) 0.2872(6) 0.1125(4)
C183 C 0.4409(5) 0.3894(7) 0.0910(6)
H197 H 0.4332 0.4092 0.0663
H198 H 0.4565 0.4140 0.1095
C184 C 0.4048(5) 0.3751(7) 0.1076(5)
H199 H 0.3810 0.3904 0.0953
C185 C 0.4016(5) 0.3397(6) 0.1410(5)
H200 H 0.3734 0.3354 0.1438
H201 H 0.4146 0.3570 0.1652
C186 C 0.4164(4) 0.2541(6) 0.1737(4)
H202 H 0.4209 0.2779 0.1968
H203 H 0.3894 0.2398 0.1724
C187 C 0.4441(5) 0.2095(7) 0.1799(6)
H204 H 0.4331 0.1783 0.1646
H205 H 0.4477 0.1995 0.2081
C188 C 0.5161(5) 0.1855(7) 0.1652(6)
H206 H 0.5063 0.1579 0.1457
H207 H 0.5220 0.1677 0.1910
C189 C 0.5534(5) 0.2079(7) 0.1542(5)
H208 H 0.5637 0.2325 0.1757
H209 H 0.5721 0.1778 0.1553
C190 C 0.5565(5) 0.2353(6) 0.1188(5)
H210 H 0.5468 0.2113 0.0967
H211 H 0.5848 0.2419 0.1175
C191 C 0.5345(5) 0.3132(7) 0.0699(5)
H212 H 0.5605 0.3282 0.0665
H213 H 0.5268 0.2866 0.0490
C192 C 0.5050(5) 0.3550(7) 0.0692(6)
H214 H 0.4996 0.3678 0.0417
H215 H 0.5174 0.3850 0.0850
Ni1C Ni 0.98466(5) 1.20491(8) 0.13018(5)
Ni3_2 Ni 0.23977(5) 0.78546(8) 0.38701(5)
Ni4C Ni 0.47843(5) 0.21382(7) 0.62520(5)
O8C O 0.9977(2) 1.3361(4) 0.6861(2)
O22C O 0.4661(2) 0.2242(3) 0.0813(2)
O23_2 O 1.2877(2) 0.7295(4) 0.3982(2)
loop_
_geom_bond_atom_site_label_1
_geom_bond_atom_site_label_2
_geom_bond_site_symmetry_1
_geom_bond_site_symmetry_2
Ni1 O5 1_555 1_555
Ni2 O12 1_555 1_555
Ni3 O9 1_555 1_555
Ni4 O20 1_555 1_555
Ni5 O44 1_555 1_555
Ni6 O33 1_555 1_555
Ni7 O45 1_555 1_555
Ni8 O30 1_555 1_555
O1 C2 1_555 1_555
O2 C3 1_555 1_555
O3 C4 1_555 1_555
O4 C5 1_555 1_555
O5 C12 1_555 1_555
O6 C12 1_555 1_555
O7 C19 1_555 1_555
O8 C19 1_555 1_555
O9 C26 1_555 1_555
O10 C26 1_555 1_555
O11 C33 1_555 1_555
O12 C33 1_555 1_555
O13 C35 1_555 1_555
O14 C37 1_555 1_555
O15 C38 1_555 1_555
O16 C36 1_555 1_555
O17 Ni2 1_555 1_555
O18 C45 1_555 1_555
O19 C52 1_555 1_555
O20 C52 1_555 1_555
O21 C59 1_555 1_555
O22 C59 1_555 1_555
O23 C66 1_555 1_555
O24 C66 1_555 1_555
O25 C68 1_555 1_555
O26 C69 1_555 1_555
O27 C70 1_555 1_555
O28 C71 1_555 1_555
O29 C78 1_555 1_555
O30 C78 1_555 1_555
O31 C85 1_555 1_555
O32 C85 1_555 1_555
O33 C92 1_555 1_555
O34 C92 1_555 1_555
O35 C99 1_555 1_555
O36 C99 1_555 1_555
O37 C101 1_555 1_555
O38 C102 1_555 1_555
O39 C103 1_555 1_555
O40 C104 1_555 1_555
O41 Ni6 1_555 1_555
O42 C111 1_555 1_555
O43 C118 1_555 1_555
O44 C118 1_555 1_555
O45 C125 1_555 1_555
O46 C125 1_555 1_555
O47 C132 1_555 1_555
O48 C132 1_555 1_555
C1 C2 1_555 1_555
C2 H1 1_555 1_555
H2 C2 1_555 1_555
C3 C1 1_555 1_555
H3 C3 1_555 1_555
H4 C3 1_555 1_555
C4 C1 1_555 1_555
H5 C4 1_555 1_555
H6 C4 1_555 1_555
C5 C1 1_555 1_555
H7 C5 1_555 1_555
H8 C5 1_555 1_555
C6 O1 1_555 1_555
C7 C6 1_555 1_555
H9 C7 1_555 1_555
C8 C7 1_555 1_555
H10 C8 1_555 1_555
C9 C8 1_555 1_555
C10 C9 1_555 1_555
H11 C10 1_555 1_555
C11 C6 1_555 1_555
H12 C11 1_555 1_555
C12 C9 1_555 1_555
C13 O2 1_555 1_555
C14 C13 1_555 1_555
H13 C14 1_555 1_555
C15 C14 1_555 1_555
H14 C15 1_555 1_555
C16 C15 1_555 1_555
C17 C16 1_555 1_555
H15 C17 1_555 1_555
C18 C13 1_555 1_555
H16 C18 1_555 1_555
C19 C16 1_555 1_555
C20 O3 1_555 1_555
C21 C20 1_555 1_555
H17 C21 1_555 1_555
C22 C21 1_555 1_555
H18 C22 1_555 1_555
C23 C22 1_555 1_555
C24 C23 1_555 1_555
H19 C24 1_555 1_555
C25 C20 1_555 1_555
H20 C25 1_555 1_555
C26 C23 1_555 1_555
C27 O4 1_555 1_555
C28 C27 1_555 1_555
H21 C28 1_555 1_555
C29 C28 1_555 1_555
H22 C29 1_555 1_555
C30 C29 1_555 1_555
C31 C30 1_555 1_555
H23 C31 1_555 1_555
C32 C27 1_555 1_555
H24 C32 1_555 1_555
C33 C30 1_555 1_555
C34 C35 1_555 1_555
C35 H25 1_555 1_555
H26 C35 1_555 1_555
C36 C34 1_555 1_555
H27 C36 1_555 1_555
H28 C36 1_555 1_555
C37 C34 1_555 1_555
H29 C37 1_555 1_555
H30 C37 1_555 1_555
C38 C34 1_555 1_555
H31 C38 1_555 1_555
H32 C38 1_555 1_555
C39 O13 1_555 1_555
C40 C39 1_555 1_555
H33 C40 1_555 1_555
C41 C40 1_555 1_555
H34 C41 1_555 1_555
C42 C41 1_555 1_555
C43 C42 1_555 1_555
H35 C43 1_555 1_555
C44 C39 1_555 1_555
H36 C44 1_555 1_555
C45 O17 1_555 1_555
C46 O16 1_555 1_555
C47 C46 1_555 1_555
H37 C47 1_555 1_555
C48 C47 1_555 1_555
H38 C48 1_555 1_555
C49 C48 1_555 1_555
C50 C49 1_555 1_555
H39 C50 1_555 1_555
C51 C46 1_555 1_555
H40 C51 1_555 1_555
C52 C49 1_555 1_555
C53 O14 1_555 1_555
C54 C53 1_555 1_555
H41 C54 1_555 1_555
C55 C54 1_555 1_555
H42 C55 1_555 1_555
C56 C55 1_555 1_555
C57 C56 1_555 1_555
H43 C57 1_555 1_555
C58 C53 1_555 1_555
H44 C58 1_555 1_555
C59 C56 1_555 1_555
C60 O15 1_555 1_555
C61 C60 1_555 1_555
H45 C61 1_555 1_555
C62 C61 1_555 1_555
H46 C62 1_555 1_555
C63 C62 1_555 1_555
C64 C63 1_555 1_555
H47 C64 1_555 1_555
C65 C60 1_555 1_555
H48 C65 1_555 1_555
C66 C63 1_555 1_555
C67 C68 1_555 1_555
C68 H49 1_555 1_555
H50 C68 1_555 1_555
C69 C67 1_555 1_555
H51 C69 1_555 1_555
H52 C69 1_555 1_555
C70 C67 1_555 1_555
H53 C70 1_555 1_555
H54 C70 1_555 1_555
C71 C67 1_555 1_555
H55 C71 1_555 1_555
H56 C71 1_555 1_555
C72 O25 1_555 1_555
C73 C72 1_555 1_555
H57 C73 1_555 1_555
C74 C73 1_555 1_555
H58 C74 1_555 1_555
C75 C74 1_555 1_555
C76 C75 1_555 1_555
H59 C76 1_555 1_555
C77 C72 1_555 1_555
H60 C77 1_555 1_555
C78 C75 1_555 1_555
C79 O26 1_555 1_555
C80 C79 1_555 1_555
H61 C80 1_555 1_555
C81 C80 1_555 1_555
H62 C81 1_555 1_555
C82 C81 1_555 1_555
C83 C82 1_555 1_555
H63 C83 1_555 1_555
C84 C79 1_555 1_555
H64 C84 1_555 1_555
C85 C82 1_555 1_555
C86 O27 1_555 1_555
C87 C86 1_555 1_555
H65 C87 1_555 1_555
C88 C87 1_555 1_555
H66 C88 1_555 1_555
C89 C88 1_555 1_555
C90 C89 1_555 1_555
H67 C90 1_555 1_555
C91 C86 1_555 1_555
H68 C91 1_555 1_555
C92 C89 1_555 1_555
C93 O28 1_555 1_555
C94 C93 1_555 1_555
H69 C94 1_555 1_555
C95 C94 1_555 1_555
H70 C95 1_555 1_555
C96 C95 1_555 1_555
C97 C96 1_555 1_555
H71 C97 1_555 1_555
C98 C93 1_555 1_555
H72 C98 1_555 1_555
C99 C96 1_555 1_555
C100 C101 1_555 1_555
C101 H73 1_555 1_555
H74 C101 1_555 1_555
C102 C100 1_555 1_555
H75 C102 1_555 1_555
H76 C102 1_555 1_555
C103 C100 1_555 1_555
H77 C103 1_555 1_555
H78 C103 1_555 1_555
C104 C100 1_555 1_555
H79 C104 1_555 1_555
H80 C104 1_555 1_555
C105 O37 1_555 1_555
C106 C105 1_555 1_555
H81 C106 1_555 1_555
C107 C106 1_555 1_555
H82 C107 1_555 1_555
C108 C107 1_555 1_555
C109 C108 1_555 1_555
H83 C109 1_555 1_555
C110 C105 1_555 1_555
H84 C110 1_555 1_555
C111 O41 1_555 1_555
C112 O38 1_555 1_555
C113 C112 1_555 1_555
H85 C113 1_555 1_555
C114 C113 1_555 1_555
H86 C114 1_555 1_555
C115 C114 1_555 1_555
C116 C115 1_555 1_555
H87 C116 1_555 1_555
C117 C112 1_555 1_555
H88 C117 1_555 1_555
C118 C115 1_555 1_555
C119 O39 1_555 1_555
C120 C119 1_555 1_555
H89 C120 1_555 1_555
C121 C120 1_555 1_555
H90 C121 1_555 1_555
C122 C121 1_555 1_555
C123 C122 1_555 1_555
H91 C123 1_555 1_555
C124 C119 1_555 1_555
H92 C124 1_555 1_555
C125 C122 1_555 1_555
C126 O40 1_555 1_555
C127 C126 1_555 1_555
H93 C127 1_555 1_555
C128 C127 1_555 1_555
H94 C128 1_555 1_555
C129 C128 1_555 1_555
C130 C129 1_555 1_555
H95 C130 1_555 1_555
C131 C126 1_555 1_555
H96 C131 1_555 1_555
C132 C129 1_555 1_555
N1 Ni1 1_555 1_555
N2 Ni1 1_555 1_555
N3 Ni1 1_555 1_555
N4 Ni1 1_555 1_555
C133 N1 1_555 1_555
H97 C133 1_555 1_555
H98 C133 1_555 1_555
C134 C133 1_555 1_555
H99 C134 1_555 1_555
H100 C134 1_555 1_555
C135 N2 1_555 1_555
H101 C135 1_555 1_555
H102 C135 1_555 1_555
C136 N2 1_555 1_555
H103 C136 1_555 1_555
H104 C136 1_555 1_555
C137 N3 1_555 1_555
H105 C137 1_555 1_555
H106 C137 1_555 1_555
C138 N3 1_555 1_555
H107 C138 1_555 1_555
H108 C138 1_555 1_555
C139 C138 1_555 1_555
H109 C139 1_555 1_555
H110 C139 1_555 1_555
C140 N4 1_555 1_555
H111 C140 1_555 1_555
H112 C140 1_555 1_555
C141 N4 1_555 1_555
H113 C141 1_555 1_555
H114 C141 1_555 1_555
C142 N1 1_555 1_555
H115 C142 1_555 1_555
H116 C142 1_555 1_555
N5 Ni2 1_555 1_555
N6 Ni2 1_555 1_555
N7 Ni2 1_555 1_555
N8 Ni2 1_555 1_555
C143 N5 1_555 1_555
H117 C143 1_555 1_555
H118 C143 1_555 1_555
C144 C143 1_555 1_555
H119 C144 1_555 1_555
H120 C144 1_555 1_555
C145 N6 1_555 1_555
H121 C145 1_555 1_555
H122 C145 1_555 1_555
C146 N6 1_555 1_555
H123 C146 1_555 1_555
H124 C146 1_555 1_555
C147 N7 1_555 1_555
H125 C147 1_555 1_555
H126 C147 1_555 1_555
C148 N7 1_555 1_555
H127 C148 1_555 1_555
H128 C148 1_555 1_555
C149 C148 1_555 1_555
H129 C149 1_555 1_555
H130 C149 1_555 1_555
C150 N8 1_555 1_555
H131 C150 1_555 1_555
H132 C150 1_555 1_555
C151 N8 1_555 1_555
H133 C151 1_555 1_555
H134 C151 1_555 1_555
C152 N5 1_555 1_555
H135 C152 1_555 1_555
H136 C152 1_555 1_555
N9 Ni6 1_555 1_555
N10 Ni6 1_555 1_555
N11 Ni6 1_555 1_555
N12 Ni6 1_555 1_555
C153 N9 1_555 1_555
H137 C153 1_555 1_555
H138 C153 1_555 1_555
C154 C153 1_555 1_555
H139 C154 1_555 1_555
H140 C154 1_555 1_555
C155 N10 1_555 1_555
H141 C155 1_555 1_555
H142 C155 1_555 1_555
C156 N10 1_555 1_555
H143 C156 1_555 1_555
H144 C156 1_555 1_555
C157 N11 1_555 1_555
H145 C157 1_555 1_555
H146 C157 1_555 1_555
C158 N11 1_555 1_555
H147 C158 1_555 1_555
H148 C158 1_555 1_555
C159 C158 1_555 1_555
H149 C159 1_555 1_555
H150 C159 1_555 1_555
C160 N12 1_555 1_555
H151 C160 1_555 1_555
H152 C160 1_555 1_555
C161 N12 1_555 1_555
H153 C161 1_555 1_555
H154 C161 1_555 1_555
C162 N9 1_555 1_555
H155 C162 1_555 1_555
H156 C162 1_555 1_555
N13 Ni8 1_555 1_555
N14 Ni8 1_555 1_555
N15 Ni8 1_555 1_555
N16 Ni8 1_555 1_555
C163 N13 1_555 1_555
H157 C163 1_555 1_555
H158 C163 1_555 1_555
C164 C163 1_555 1_555
H159 C164 1_555 1_555
H160 C164 1_555 1_555
C165 N14 1_555 1_555
H161 C165 1_555 1_555
H162 C165 1_555 1_555
C166 N14 1_555 1_555
H163 C166 1_555 1_555
H164 C166 1_555 1_555
C167 N15 1_555 1_555
H165 C167 1_555 1_555
H166 C167 1_555 1_555
C168 N15 1_555 1_555
H167 C168 1_555 1_555
H168 C168 1_555 1_555
C169 C168 1_555 1_555
H169 C169 1_555 1_555
H170 C169 1_555 1_555
C170 N16 1_555 1_555
H171 C170 1_555 1_555
H172 C170 1_555 1_555
C171 N16 1_555 1_555
H173 C171 1_555 1_555
H174 C171 1_555 1_555
C172 N13 1_555 1_555
H175 C172 1_555 1_555
H176 C172 1_555 1_555
N17 Ni3 1_555 1_555
N18 Ni3 1_555 1_555
N19 Ni3 1_555 1_555
N20 Ni3 1_555 1_555
C173 N17 1_555 1_555
H177 C173 1_555 1_555
H178 C173 1_555 1_555
C174 C173 1_555 1_555
H179 C174 1_555 1_555
H180 C174 1_555 1_555
C175 N18 1_555 1_555
H181 C175 1_555 1_555
H182 C175 1_555 1_555
C176 N18 1_555 1_555
H183 C176 1_555 1_555
H184 C176 1_555 1_555
C177 N19 1_555 1_555
H185 C177 1_555 1_555
H186 C177 1_555 1_555
C178 N19 1_555 1_555
H187 C178 1_555 1_555
H188 C178 1_555 1_555
C179 C178 1_555 1_555
H189 C179 1_555 1_555
H190 C179 1_555 1_555
C180 N20 1_555 1_555
H191 C180 1_555 1_555
H192 C180 1_555 1_555
C181 N20 1_555 1_555
H193 C181 1_555 1_555
H194 C181 1_555 1_555
C182 N17 1_555 1_555
H195 C182 1_555 1_555
H196 C182 1_555 1_555
N21 Ni4 1_555 1_555
N22 Ni4 1_555 1_555
N23 Ni4 1_555 1_555
N24 Ni4 1_555 1_555
C183 N21 1_555 1_555
H197 C183 1_555 1_555
H198 C183 1_555 1_555
C184 C183 1_555 1_555
H199 C184 1_555 1_555
C185 N22 1_555 1_555
H200 C185 1_555 1_555
H201 C185 1_555 1_555
C186 N22 1_555 1_555
H202 C186 1_555 1_555
H203 C186 1_555 1_555
C187 N23 1_555 1_555
H204 C187 1_555 1_555
H205 C187 1_555 1_555
C188 N23 1_555 1_555
H206 C188 1_555 1_555
H207 C188 1_555 1_555
C189 C188 1_555 1_555
H208 C189 1_555 1_555
H209 C189 1_555 1_555
C190 N24 1_555 1_555
H210 C190 1_555 1_555
H211 C190 1_555 1_555
C191 N24 1_555 1_555
H212 C191 1_555 1_555
H213 C191 1_555 1_555
C192 N21 1_555 1_555
H214 C192 1_555 1_555
H215 C192 1_555 1_555
N25 Ni5 1_555 1_555
N26 Ni5 1_555 1_555
N27 Ni5 1_555 1_555
N28 Ni5 1_555 1_555
C193 N25 1_555 1_555
H216 C193 1_555 1_555
H217 C193 1_555 1_555
C194 C193 1_555 1_555
H218 C194 1_555 1_555
H219 C194 1_555 1_555
C195 N26 1_555 1_555
H220 C195 1_555 1_555
H221 C195 1_555 1_555
C196 N26 1_555 1_555
H222 C196 1_555 1_555
H223 C196 1_555 1_555
C197 N27 1_555 1_555
H224 C197 1_555 1_555
H225 C197 1_555 1_555
C198 N27 1_555 1_555
H226 C198 1_555 1_555
H227 C198 1_555 1_555
C199 C198 1_555 1_555
H228 C199 1_555 1_555
H229 C199 1_555 1_555
C200 N28 1_555 1_555
H230 C200 1_555 1_555
H231 C200 1_555 1_555
C201 N28 1_555 1_555
H232 C201 1_555 1_555
H233 C201 1_555 1_555
C202 N25 1_555 1_555
H234 C202 1_555 1_555
H235 C202 1_555 1_555
N29 Ni7 1_555 1_555
N30 Ni7 1_555 1_555
N31 Ni7 1_555 1_555
N32 Ni7 1_555 1_555
C203 N29 1_555 1_555
H236 C203 1_555 1_555
H237 C203 1_555 1_555
C204 C203 1_555 1_555
H238 C204 1_555 1_555
H239 C204 1_555 1_555
C205 N30 1_555 1_555
H240 C205 1_555 1_555
H241 C205 1_555 1_555
C206 N30 1_555 1_555
H242 C206 1_555 1_555
H243 C206 1_555 1_555
C207 N31 1_555 1_555
H244 C207 1_555 1_555
H245 C207 1_555 1_555
C208 N31 1_555 1_555
H246 C208 1_555 1_555
H247 C208 1_555 1_555
C209 C208 1_555 1_555
H248 C209 1_555 1_555
H249 C209 1_555 1_555
C210 N32 1_555 1_555
H250 C210 1_555 1_555
H251 C210 1_555 1_555
C211 N32 1_555 1_555
H252 C211 1_555 1_555
H253 C211 1_555 1_555
C212 N29 1_555 1_555
H254 C212 1_555 1_555
H255 C212 1_555 1_555
Ni1C O8 1_555 1_555
Ni3_2 O23 1_555 1_555
Ni4C O22 1_555 1_555
Ni5C O48 1_555 1_555
Ni7_2 O32 1_555 1_555
Ni8C O36 1_555 1_555
O8C Ni1 1_555 1_555
O22C Ni4 1_555 1_555
O23_2 Ni3 1_555 1_555
O32_2 Ni7 1_555 1_555
O36C Ni8 1_555 1_555
O48C Ni5 1_555 1_555
C10 C11 1_555 1_555
C17 C18 1_555 1_555
C24 C25 1_555 1_555
C31 C32 1_555 1_555
C42 C45 1_555 1_555
C43 C44 1_555 1_555
C50 C51 1_555 1_555
C57 C58 1_555 1_555
C64 C65 1_555 1_555
C76 C77 1_555 1_555
C83 C84 1_555 1_555
C90 C91 1_555 1_555
C97 C98 1_555 1_555
C108 C111 1_555 1_555
C109 C110 1_555 1_555
C116 C117 1_555 1_555
C123 C124 1_555 1_555
C130 C131 1_555 1_555
C134 C135 1_555 1_555
C136 C137 1_555 1_555
C139 C140 1_555 1_555
C141 C142 1_555 1_555
C144 C145 1_555 1_555
C146 C147 1_555 1_555
C149 C150 1_555 1_555
C151 C152 1_555 1_555
C154 C155 1_555 1_555
C156 C157 1_555 1_555
C159 C160 1_555 1_555
C161 C162 1_555 1_555
C164 C165 1_555 1_555
C166 C167 1_555 1_555
C169 C170 1_555 1_555
C171 C172 1_555 1_555
C174 C175 1_555 1_555
C176 C177 1_555 1_555
C179 C180 1_555 1_555
C181 C182 1_555 1_555
C184 C185 1_555 1_555
C186 C187 1_555 1_555
C189 C190 1_555 1_555
C191 C192 1_555 1_555
C194 C195 1_555 1_555
C196 C197 1_555 1_555
C199 C200 1_555 1_555
C201 C202 1_555 1_555
C204 C205 1_555 1_555
C206 C207 1_555 1_555
C209 C210 1_555 1_555
C211 C212 1_555 1_555

#END
