
#######################################################################
#
#                 Cambridge Crystallographic Data Centre
#                                CCDC 
#
#######################################################################
#
# If this CIF has been generated from an entry in the Cambridge 
# Structural Database, then it will include bibliographic, chemical, 
# crystal, experimental, refinement or atomic coordinate data resulting 
# from the CCDC's data processing and validation procedures.
#
#######################################################################

data_FIVQOR
_symmetry_cell_setting           triclinic
_symmetry_space_group_name_H-M   'P -1'
_symmetry_Int_Tables_number      2
_space_group_name_Hall           '-P 1'
loop_
_symmetry_equiv_pos_site_id
_symmetry_equiv_pos_as_xyz
1 x,y,z
2 -x,-y,-z
_cell_length_a                   8.1217(6)
_cell_length_b                   8.9601(6)
_cell_length_c                   10.4611(8)
_cell_angle_alpha                111.9300(10)
_cell_angle_beta                 103.6550(10)
_cell_angle_gamma                101.9030(10)
_cell_volume                     648.587
loop_
_atom_site_label
_atom_site_type_symbol
_atom_site_fract_x
_atom_site_fract_y
_atom_site_fract_z
Ga1 Ga 0.19859(9) 0.35167(8) 0.36296(7)
Ga2 Ga -0.27655(9) 0.00093(8) 0.44691(8)
Ga3 Ga 0.0000 0.0000 0.0000
P1 P 0.4508(2) 0.7257(2) 0.48356(18)
P2 P -0.0091(2) -0.0298(2) 0.29119(17)
F1 F 0.1449(5) 0.2270(5) 0.1580(4)
O1 O -0.0319(6) 0.4086(6) 0.3139(5)
O2 O 0.3216(6) 0.5571(6) 0.3583(5)
O3 O -0.2094(6) 0.5165(6) 0.4297(5)
O4 O 0.5898(6) 0.7055(6) 0.5935(5)
O5 O 0.0531(7) 0.1615(6) 0.3744(5)
O6 O -0.1939(6) -0.0989(6) 0.3001(6)
O7 O 0.3497(6) 0.8259(6) 0.5720(5)
O8 O 0.5287(7) 0.8267(6) 0.4088(6)
O9 O 0.2134(7) -0.0536(6) -0.0038(6)
O10 O -0.0218(8) -0.1004(6) 0.1321(5)
O11 O 0.1203(7) -0.1011(6) 0.3666(6)
C1 C -0.0693(8) 0.4778(8) 0.4255(7)
Ga1A Ga -0.19859(9) -0.35167(8) -0.36296(7)
Ga1A_2 Ga -0.19859(9) 0.64833(8) 0.63704(7)
Ga1A_3 Ga 0.80141(9) 0.64833(8) 0.63704(7)
Ga2A Ga 0.27655(9) -0.00093(8) -0.44691(8)
Ga2A_2 Ga 0.27655(9) 0.99907(8) 0.55309(8)
Ga2_2 Ga 0.72345(9) 1.00093(8) 0.44691(8)
Ga2A_3 Ga 0.27655(9) -0.00093(8) 0.55309(8)
Ga2_3 Ga -0.27655(9) 0.00093(8) -0.55309(8)
Ga2_4 Ga 0.72345(9) 0.00093(8) 0.44691(8)
P1A P 0.5492(2) 0.2743(2) 0.51644(18)
P2A P 0.0091(2) 0.0298(2) -0.29119(17)
F1A F -0.1449(5) -0.2270(5) -0.1580(4)
O1A O 0.0319(6) 0.5914(6) 0.6861(5)
O1A_2 O 0.0319(6) -0.4086(6) -0.3139(5)
O2A O 0.6784(6) 0.4429(6) 0.6417(5)
O2A_2 O -0.3216(6) -0.5571(6) -0.3583(5)
O3A O 0.2094(6) 0.4835(6) 0.5703(5)
O3_2 O -0.2094(6) -0.4835(6) -0.5703(5)
O4A O 0.4102(6) 0.2945(6) 0.4065(5)
O4_2 O -0.4102(6) -0.2945(6) -0.4065(5)
O5A O -0.0531(7) -0.1615(6) -0.3744(5)
O6A O 0.1939(6) 0.0989(6) -0.3001(6)
O7A O 0.6503(6) 0.1741(6) 0.4280(5)
O7A_2 O -0.3497(6) 0.1741(6) 0.4280(5)
O7_2 O 0.3497(6) -0.1741(6) -0.4280(5)
O8A O 0.4713(7) 0.1733(6) 0.5912(6)
O8_2 O -0.4713(7) -0.1733(6) 0.4088(6)
O8A_2 O 0.4713(7) 0.1733(6) -0.4088(6)
O9A O -0.2134(7) 0.0536(6) 0.0038(6)
O10A O 0.0218(8) 0.1004(6) -0.1321(5)
O11A O -0.1203(7) 0.1011(6) -0.3666(6)
O11A_2 O -0.1203(7) 0.1011(6) 0.6334(6)
O11_2 O 0.1203(7) -0.1011(6) -0.6334(6)
C1A C 0.0693(8) 0.5222(8) 0.5745(7)
N1 N 0.5464(14) 0.1967(13) 0.1374(11)
C2 C 0.494(3) 0.315(3) 0.068(2)
C3 C 0.562(3) 0.296(4) -0.060(3)
C4 C 0.766(3) 0.393(5) -0.002(3)
N2 N 0.8495(19) 0.3727(18) -0.1126(15)
loop_
_geom_bond_atom_site_label_1
_geom_bond_atom_site_label_2
_geom_bond_site_symmetry_1
_geom_bond_site_symmetry_2
Ga1 F1 1_555 1_555
Ga2 O6 1_555 1_555
Ga3 F1 1_555 1_555
P1 O2 1_555 1_555
P2 O5 1_555 1_555
O1 Ga1 1_555 1_555
O2 Ga1 1_555 1_555
O3 C1 1_555 1_555
O4 P1 1_555 1_555
O5 Ga1 1_555 1_555
O6 P2 1_555 1_555
O7 P1 1_555 1_555
O8 P1 1_555 1_555
O9 Ga3 1_555 1_555
O10 Ga3 1_555 1_555
O11 P2 1_555 1_555
C1 O1 1_555 1_555
N1 C2 1_555 1_555
C2 C3 1_555 1_555
C3 C4 1_555 1_555
C4 N2 1_555 1_555
Ga1A F1A 1_555 1_555
Ga1A_2 O3 1_555 1_555
Ga1A_3 O4 1_555 1_555
Ga2A O6A 1_555 1_555
Ga2A_2 O7 1_555 1_555
Ga2_2 O8 1_555 1_555
Ga2A_3 O11 1_555 1_555
Ga2_3 O11A 1_555 1_555
Ga2_4 O7A 1_555 1_555
P1A O2A 1_555 1_555
P2A O5A 1_555 1_555
F1A Ga3 1_555 1_555
O1A Ga1A_2 1_555 1_555
O1A_2 Ga1A 1_555 1_555
O2A Ga1A_3 1_555 1_555
O2A_2 Ga1A 1_555 1_555
O3A Ga1 1_555 1_555
O3_2 Ga1A 1_555 1_555
O4A Ga1 1_555 1_555
O4_2 Ga1A 1_555 1_555
O5A Ga1A 1_555 1_555
O6A P2A 1_555 1_555
O7A P1A 1_555 1_555
O7A_2 Ga2 1_555 1_555
O7_2 Ga2A 1_555 1_555
O8A Ga2A_3 1_555 1_555
O8_2 Ga2 1_555 1_555
O8A_2 Ga2A 1_555 1_555
O9A Ga3 1_555 1_555
O10A Ga3 1_555 1_555
O11A P2A 1_555 1_555
O11A_2 Ga2 1_555 1_555
O11_2 Ga2A 1_555 1_555
C1A C1 1_555 1_555
P2 O10 1_555 1_555
P1A O4A 1_555 1_555
P1A O8A 1_555 1_555
P2A O10A 1_555 1_555
O1A C1A 1_555 1_555
O3A C1A 1_555 1_555

#END
