
#######################################################################
#
#                 Cambridge Crystallographic Data Centre
#                                CCDC 
#
#######################################################################
#
# If this CIF has been generated from an entry in the Cambridge 
# Structural Database, then it will include bibliographic, chemical, 
# crystal, experimental, refinement or atomic coordinate data resulting 
# from the CCDC's data processing and validation procedures.
#
#######################################################################

data_FIZPUB
_symmetry_cell_setting           monoclinic
_symmetry_space_group_name_H-M   'P 21/c'
_symmetry_Int_Tables_number      14
_space_group_name_Hall           '-P 2ybc'
loop_
_symmetry_equiv_pos_site_id
_symmetry_equiv_pos_as_xyz
1 x,y,z
2 -x,1/2+y,1/2-z
3 -x,-y,-z
4 x,1/2-y,1/2+z
_cell_length_a                   12.314(4)
_cell_length_b                   14.986(6)
_cell_length_c                   27.116(9)
_cell_angle_alpha                90
_cell_angle_beta                 106.765(13)
_cell_angle_gamma                90
_cell_volume                     4791.23
loop_
_atom_site_label
_atom_site_type_symbol
_atom_site_fract_x
_atom_site_fract_y
_atom_site_fract_z
Zn1 Zn 0.99438(4) 0.97707(3) 0.862219(15)
O1 O 0.8751(3) 0.94108(19) 0.89352(11)
C1 C 0.8133(4) 0.8747(3) 0.88760(15)
O2 O 0.7786(3) 0.8296(2) 0.84808(11)
C2 C 0.7749(3) 0.8473(2) 0.93385(13)
Zn2 Zn 0.78321(5) 0.84324(4) 0.77602(2)
C3 C 0.6936(3) 0.7796(2) 0.92913(14)
C4 C 0.8206(4) 0.8874(2) 0.98122(14)
C5 C 0.6570(3) 0.7528(2) 0.97101(13)
H1 H 0.6635 0.7521 0.8974
H2 H 0.8757 0.9313 0.9846
C6 C 0.7855(3) 0.8633(2) 1.02430(14)
C7 C 0.5688(3) 0.6820(2) 0.96299(13)
C8 C 0.7038(4) 0.7956(2) 1.01834(14)
C9 C 0.8347(4) 0.9064(3) 1.07472(15)
C10 C 0.5845(3) 0.6041(2) 0.99413(13)
C11 C 0.4690(3) 0.6916(2) 0.92272(13)
H3 H 0.6802 0.7787 1.0466
O3 O 0.7959(4) 0.8910(3) 1.11087(15)
O4 O 0.9172(3) 0.95810(19) 1.07843(10)
C12 C 0.4943(3) 0.5388(2) 0.98398(13)
C13 C 0.6845(3) 0.5847(2) 1.03448(15)
C14 C 0.3833(3) 0.6295(2) 0.91140(13)
H4 H 0.4601 0.7427 0.9025
C15 C 0.3934(3) 0.5522(2) 0.94279(13)
H5 H 0.7443 0.6250 1.0409
C16 C 0.6971(3) 0.5111(2) 1.06377(14)
C17 C 0.2823(3) 0.6444(2) 0.86565(13)
H6 H 0.7657 0.5009 1.0887
C18 C 0.2136(3) 0.7203(2) 0.86306(13)
C19 C 0.2555(3) 0.5846(2) 0.82454(14)
C20 C 0.1199(4) 0.7333(2) 0.82109(14)
H7 H 0.2314 0.7618 0.8897
C21 C 0.1626(3) 0.5998(2) 0.78142(13)
H8 H 0.3000 0.5340 0.8258
C22 C 0.0424(4) 0.8128(3) 0.82032(16)
C23 C 0.0940(3) 0.6742(2) 0.78004(13)
C24 C 0.1392(4) 0.5351(3) 0.73696(14)
O5 O 0.0782(3) 0.86996(18) 0.85562(11)
O6 O -0.0492(3) 0.8178(2) 0.78601(12)
H9 H 0.0314 0.6842 0.7518
O7 O 0.0524(2) 0.54981(17) 0.69971(10)
O8 O 0.2079(3) 0.4732(2) 0.73881(12)
O9 O -0.2430(7) 0.7012(6) 0.7694(4)
O10 O -0.2353(8) 0.8182(5) 0.6907(3)
O11 O -0.4004(5) 0.8601(5) 0.7526(3)
Zn1B Zn 1.00562(4) 1.02293(3) 1.137781(15)
C12B C 0.5057(3) 0.4612(2) 1.01602(13)
C16B C 0.3029(3) 0.4889(2) 0.93623(14)
C15B C 0.6066(3) 0.4478(2) 1.05721(13)
C10B C 0.4155(3) 0.3959(2) 1.00587(13)
H6B H 0.2343 0.4991 0.9113
C13B C 0.3155(3) 0.4153(2) 0.96552(15)
C14B C 0.6167(3) 0.3705(2) 1.08860(13)
C7B C 0.4312(3) 0.3180(2) 1.03701(13)
H5B H 0.2557 0.3750 0.9591
C17B C 0.7177(3) 0.3556(2) 1.13435(13)
C11B C 0.5310(3) 0.3084(2) 1.07728(13)
C5B C 0.3430(3) 0.2472(2) 1.02899(13)
C18B C 0.7864(3) 0.2797(2) 1.13694(13)
C19B C 0.7445(3) 0.4154(2) 1.17546(14)
H4B H 0.5399 0.2573 1.0975
C3B C 0.3064(3) 0.2204(2) 1.07087(14)
C8B C 0.2962(4) 0.2044(2) 0.98166(14)
C20B C 0.8801(4) 0.2667(2) 1.17891(14)
H7B H 0.7686 0.2382 1.1103
C21B C 0.8374(3) 0.4002(2) 1.21858(13)
H8B H 0.7000 0.4660 1.1742
H1B H 0.3365 0.2479 1.1026
C2B C 0.2251(3) 0.1527(2) 1.06615(13)
C6B C 0.2145(3) 0.1367(2) 0.97570(14)
H3B H 0.3198 0.2213 0.9534
Zn1_2 Zn -0.00562(4) 0.97707(3) 0.862219(15)
Zn2_2 Zn -0.21679(5) 0.84324(4) 0.77602(2)
Zn1A Zn 0.00562(4) 0.47707(3) 0.637781(15)
Zn2A Zn 0.21679(5) 0.34324(4) 0.72398(2)
C22B C 0.9576(4) 0.1872(3) 1.17968(16)
C23B C 0.9060(3) 0.3258(2) 1.21996(13)
C24B C 0.8608(4) 0.4649(3) 1.26304(14)
C1B C 0.1867(4) 0.1253(3) 1.11240(15)
C4B C 0.1794(4) 0.1126(2) 1.01878(14)
C9B C 0.1653(4) 0.0936(3) 0.92528(15)
O1_2 O -0.1249(3) 0.94108(19) 0.89352(11)
O4B O 0.0828(3) 1.04190(19) 0.92157(10)
O7A O -0.0524(2) 1.04981(17) 0.80029(10)
O2_2 O -0.2214(3) 0.8296(2) 0.84808(11)
O8A O -0.2079(3) 0.9732(2) 0.76119(12)
O5B O 0.9218(3) 0.13004(18) 1.14438(11)
O6B O 1.0492(3) 0.1822(2) 1.21399(12)
H9B H 0.9686 0.3158 1.2482
O7B O 0.9476(2) 0.45019(17) 1.30029(10)
O8B O 0.7921(3) 0.5268(2) 1.26119(12)
O1B O 0.1249(3) 0.05892(19) 1.10648(11)
O2B O 0.2214(3) 0.1704(2) 1.15192(11)
H2B H 0.1243 0.0687 1.0154
O3B O 0.2041(4) 0.1090(3) 0.88913(15)
O4B_2 O 0.0828(3) 0.04190(19) 0.92157(10)
O2B_2 O 1.2214(3) 0.1704(2) 1.15192(11)
O1B_2 O 1.1249(3) 0.05892(19) 1.10648(11)
Zn1B_2 Zn 1.00562(4) 0.02293(3) 1.137781(15)
Zn2B Zn 1.21679(5) 0.15676(4) 1.22398(2)
Zn1C Zn 0.99438(4) 0.52293(3) 1.362219(15)
Zn2C Zn 0.78321(5) 0.65676(4) 1.27602(2)
Zn1B_3 Zn 0.00562(4) 0.02293(3) 1.137781(15)
Zn2B_2 Zn 0.21679(5) 0.15676(4) 1.22398(2)
Zn1_3 Zn -0.00562(4) -0.02293(3) 0.862219(15)
O4_2 O 0.9172(3) -0.04190(19) 1.07843(10)
O7C O 1.0524(2) -0.04981(17) 1.19971(10)
O8C O 1.2079(3) 0.0268(2) 1.23881(12)
O11B O 1.4004(5) 0.1399(5) 1.2474(3)
O9B O 1.2430(7) 0.2988(6) 1.2306(4)
O10B O 1.2353(8) 0.1818(5) 1.3093(3)
loop_
_geom_bond_atom_site_label_1
_geom_bond_atom_site_label_2
_geom_bond_site_symmetry_1
_geom_bond_site_symmetry_2
Zn1 O1 1_555 1_555
O1 C1 1_555 1_555
C1 O2 1_555 1_555
O2 Zn2 1_555 1_555
C2 C1 1_555 1_555
C3 C2 1_555 1_555
C4 C2 1_555 1_555
C5 C3 1_555 1_555
H1 C3 1_555 1_555
H2 C4 1_555 1_555
C6 C4 1_555 1_555
C7 C5 1_555 1_555
C8 C5 1_555 1_555
C9 C6 1_555 1_555
C10 C7 1_555 1_555
C11 C7 1_555 1_555
H3 C8 1_555 1_555
O3 C9 1_555 1_555
O4 C9 1_555 1_555
C12 C10 1_555 1_555
C13 C10 1_555 1_555
C14 C11 1_555 1_555
H4 C11 1_555 1_555
C15 C12 1_555 1_555
H5 C13 1_555 1_555
C16 C13 1_555 1_555
C17 C14 1_555 1_555
H6 C16 1_555 1_555
C18 C17 1_555 1_555
C19 C17 1_555 1_555
C20 C18 1_555 1_555
H7 C18 1_555 1_555
C21 C19 1_555 1_555
H8 C19 1_555 1_555
C22 C20 1_555 1_555
C23 C20 1_555 1_555
C24 C21 1_555 1_555
O5 C22 1_555 1_555
O6 C22 1_555 1_555
H9 C23 1_555 1_555
O7 C24 1_555 1_555
O8 C24 1_555 1_555
O9 Zn2_2 1_555 1_555
O10 Zn2_2 1_555 1_555
O11 Zn2_2 1_555 1_555
Zn1B O4 1_555 1_555
C12B C12 1_555 1_555
C16B C15 1_555 1_555
C15B C16 1_555 1_555
C10B C12B 1_555 1_555
H6B C16B 1_555 1_555
C13B C16B 1_555 1_555
C14B C15B 1_555 1_555
C7B C10B 1_555 1_555
H5B C13B 1_555 1_555
C17B C14B 1_555 1_555
C11B C14B 1_555 1_555
C5B C7B 1_555 1_555
C18B C17B 1_555 1_555
C19B C17B 1_555 1_555
H4B C11B 1_555 1_555
C3B C5B 1_555 1_555
C8B C5B 1_555 1_555
C20B C18B 1_555 1_555
H7B C18B 1_555 1_555
C21B C19B 1_555 1_555
H8B C19B 1_555 1_555
H1B C3B 1_555 1_555
C2B C3B 1_555 1_555
C6B C8B 1_555 1_555
H3B C8B 1_555 1_555
Zn1_2 O5 1_555 1_555
Zn2_2 O6 1_555 1_555
Zn1A O7 1_555 1_555
Zn2A O8 1_555 1_555
C22B C20B 1_555 1_555
C23B C20B 1_555 1_555
C24B C21B 1_555 1_555
C1B C2B 1_555 1_555
C4B C2B 1_555 1_555
C9B C6B 1_555 1_555
O1_2 Zn1_2 1_555 1_555
O4B Zn1_2 1_555 1_555
O7A Zn1_2 1_555 1_555
O2_2 Zn2_2 1_555 1_555
O8A Zn2_2 1_555 1_555
O5B C22B 1_555 1_555
O6B C22B 1_555 1_555
H9B C23B 1_555 1_555
O7B C24B 1_555 1_555
O8B C24B 1_555 1_555
O1B C1B 1_555 1_555
O2B C1B 1_555 1_555
H2B C4B 1_555 1_555
O3B C9B 1_555 1_555
O4B_2 C9B 1_555 1_555
O2B_2 Zn2B 1_555 1_555
O1B_2 Zn1B_2 1_555 1_555
Zn1B_2 O5B 1_555 1_555
Zn2B O6B 1_555 1_555
Zn1C O7B 1_555 1_555
Zn2C O8B 1_555 1_555
Zn1B_3 O1B 1_555 1_555
Zn2B_2 O2B 1_555 1_555
Zn1_3 O4B_2 1_555 1_555
O4_2 Zn1B_2 1_555 1_555
O7C Zn1B_2 1_555 1_555
O8C Zn2B 1_555 1_555
O11B Zn2B 1_555 1_555
O9B Zn2B 1_555 1_555
O10B Zn2B 1_555 1_555
C6 C8 1_555 1_555
C14 C15 1_555 1_555
C21 C23 1_555 1_555
C12B C15B 1_555 1_555
C10B C13B 1_555 1_555
C7B C11B 1_555 1_555
C21B C23B 1_555 1_555
C6B C4B 1_555 1_555

#END
