
#######################################################################
#
#                 Cambridge Crystallographic Data Centre
#                                CCDC 
#
#######################################################################
#
# If this CIF has been generated from an entry in the Cambridge 
# Structural Database, then it will include bibliographic, chemical, 
# crystal, experimental, refinement or atomic coordinate data resulting 
# from the CCDC's data processing and validation procedures.
#
#######################################################################

data_FIZQAI
_symmetry_cell_setting           monoclinic
_symmetry_space_group_name_H-M   'P 21/c'
_symmetry_Int_Tables_number      14
_space_group_name_Hall           '-P 2ybc'
loop_
_symmetry_equiv_pos_site_id
_symmetry_equiv_pos_as_xyz
1 x,y,z
2 -x,1/2+y,1/2-z
3 -x,-y,-z
4 x,1/2-y,1/2+z
_cell_length_a                   12.435(7)
_cell_length_b                   14.584(9)
_cell_length_c                   27.018(15)
_cell_angle_alpha                90
_cell_angle_beta                 107.87(2)
_cell_angle_gamma                90
_cell_volume                     4663.38
loop_
_atom_site_label
_atom_site_type_symbol
_atom_site_fract_x
_atom_site_fract_y
_atom_site_fract_z
Cu1 Cu -0.00710(4) 0.02439(4) 0.363275(16)
O1 O -0.1236(3) 0.0614(2) 0.39339(11)
C1 C -0.1870(4) 0.1275(3) 0.38761(17)
O2 O -0.2232(3) 0.1740(2) 0.34734(11)
C2 C -0.2261(3) 0.1538(3) 0.43302(14)
Cu2 Cu -0.21600(5) 0.16023(4) 0.27682(2)
C3 C -0.1800(4) 0.1125(3) 0.47981(15)
C4 C -0.3074(4) 0.2215(3) 0.42812(15)
C5 C -0.2147(4) 0.1361(3) 0.52282(14)
H1 H -0.1246 0.0679 0.4834
C6 C -0.3428(4) 0.2475(3) 0.46926(14)
H2 H -0.3386 0.2498 0.3961
C7 C -0.1626(4) 0.0922(3) 0.57362(16)
C8 C -0.2967(4) 0.2023(3) 0.51610(15)
C9 C -0.4309(3) 0.3180(3) 0.46194(14)
O3 O -0.0809(3) 0.0408(2) 0.57690(10)
O4 O -0.2006(4) 0.1066(3) 0.60867(13)
H3 H -0.3223 0.2172 0.5440
C10 C -0.5298(3) 0.3088(3) 0.42145(15)
C11 C -0.4162(3) 0.3960(3) 0.49314(14)
H4 H -0.5384 0.2572 0.4004
C12 C -0.6159(3) 0.3710(3) 0.41048(14)
C13 C -0.3157(3) 0.4156(3) 0.53394(15)
C14 C -0.5058(3) 0.4609(3) 0.48379(13)
C15 C -0.7177(3) 0.3558(3) 0.36518(14)
C16 C -0.6065(3) 0.4467(3) 0.44277(14)
C17 C -0.3041(4) 0.4892(3) 0.56333(16)
H5 H -0.2555 0.3749 0.5402
C18 C -0.7434(3) 0.4159(3) 0.32413(15)
C19 C -0.7879(4) 0.2814(3) 0.36323(15)
H6 H -0.2354 0.4997 0.5888
C20 C -0.8393(4) 0.4018(3) 0.28073(14)
H7 H -0.6970 0.4662 0.3250
C21 C -0.8825(4) 0.2681(3) 0.32165(15)
H8 H -0.7706 0.2397 0.3906
C22 C -0.9079(4) 0.3294(3) 0.28025(15)
C23 C -0.8616(4) 0.4684(3) 0.23667(16)
C24 C -0.9595(4) 0.1916(4) 0.32112(17)
H9 H -0.9723 0.3205 0.2520
O5 O -0.9469(3) 0.4519(2) 0.19870(10)
O6 O -0.7942(3) 0.5294(2) 0.23869(12)
O7 O -1.0521(3) 0.1882(2) 0.28728(12)
O8 O -0.9245(3) 0.1328(2) 0.35695(12)
O9 O -1.3981(4) 0.1424(5) 0.2532(2)
O10 O -1.2415(6) 0.1891(5) 0.1917(2)
O11 O -1.2482(7) 0.3038(5) 0.2670(4)
Cu1B Cu 0.00710(4) -0.02439(4) 0.636725(16)
C14B C -0.4942(3) 0.5391(3) 0.51621(13)
C17B C -0.6959(4) 0.5108(3) 0.43667(16)
C16B C -0.3935(3) 0.5533(3) 0.55723(14)
C11B C -0.5838(3) 0.6040(3) 0.50686(14)
H6B H -0.7646 0.5003 0.4112
C13B C -0.6843(3) 0.5844(3) 0.46606(15)
C12B C -0.3841(3) 0.6290(3) 0.58952(14)
C9B C -0.5691(3) 0.6820(3) 0.53806(14)
H5B H -0.7445 0.6251 0.4598
C10B C -0.4702(3) 0.6912(3) 0.57855(15)
C15B C -0.2823(3) 0.6442(3) 0.63482(14)
C6B C -0.6572(4) 0.7525(3) 0.53074(14)
H4B H -0.4616 0.7428 0.5996
C19B C -0.2121(4) 0.7186(3) 0.63677(15)
C18B C -0.2566(3) 0.5841(3) 0.67587(15)
C4B C -0.6926(4) 0.7785(3) 0.57188(15)
C8B C -0.7033(4) 0.7977(3) 0.48390(15)
Cu1A Cu -0.99290(4) 0.52439(4) 0.136725(16)
Cu2A Cu -0.78400(5) 0.66023(4) 0.22318(2)
Cu2_2 Cu -1.21600(5) 0.16023(4) 0.27682(2)
Cu1_2 Cu -1.00710(4) 0.02439(4) 0.363275(16)
C21B C -0.1175(4) 0.7319(3) 0.67835(15)
H8B H -0.2294 0.7603 0.6094
H7B H -0.3030 0.5338 0.6750
C20B C -0.1607(4) 0.5982(3) 0.71927(14)
C2B C -0.7739(3) 0.8462(3) 0.56698(14)
H2B H -0.6614 0.7502 0.6039
C5B C -0.7853(4) 0.8639(3) 0.47718(14)
H3B H -0.6777 0.7828 0.4560
O2_2 O -1.2232(3) 0.1740(2) 0.34734(11)
O6A O -1.2058(3) 0.0294(2) 0.26131(12)
O5A O -1.0531(3) -0.0481(2) 0.30130(10)
O3B O -0.9191(3) -0.0408(2) 0.42310(10)
O1_2 O -1.1236(3) 0.0614(2) 0.39339(11)
C24B C -0.0405(4) 0.8084(4) 0.67888(17)
C22B C -0.0921(4) 0.6706(3) 0.71975(15)
C23B C -0.1384(4) 0.5316(3) 0.76333(16)
C1B C -0.8130(4) 0.8725(3) 0.61239(17)
C3B C -0.8200(4) 0.8875(3) 0.52019(15)
C7B C -0.8374(4) 0.9078(3) 0.42638(16)
O1B O 0.1236(3) 0.9386(2) 0.60661(11)
O2B O 0.2232(3) 0.8260(2) 0.65266(11)
O8B O -0.0755(3) 0.8672(2) 0.64305(12)
O7B O 0.0521(3) 0.8118(2) 0.71272(12)
H9B H -0.0277 0.6795 0.7480
O6B O -0.2058(3) 0.4706(2) 0.76131(12)
O5B O -0.0531(3) 0.5481(2) 0.80130(10)
O1B_2 O -0.8764(3) 0.9386(2) 0.60661(11)
O2B_2 O -0.7768(3) 0.8260(2) 0.65266(11)
H1B H -0.8754 0.9321 0.5166
O3B_2 O -0.9191(3) 0.9592(2) 0.42310(10)
O4B O -0.7994(4) 0.8934(3) 0.39133(13)
Cu1B_2 Cu 0.00710(4) 0.97561(4) 0.636725(16)
Cu2B Cu 0.21600(5) 0.83977(4) 0.72318(2)
Cu2C Cu -0.21600(5) 0.33977(4) 0.77682(2)
Cu1C Cu -0.00710(4) 0.47561(4) 0.863275(16)
Cu1B_3 Cu -0.99290(4) 0.97561(4) 0.636725(16)
Cu2B_2 Cu -0.78400(5) 0.83977(4) 0.72318(2)
Cu1_3 Cu -1.00710(4) 1.02439(4) 0.363275(16)
O3_2 O -0.0809(3) 1.0408(2) 0.57690(10)
O5C O 0.0531(3) 1.0481(2) 0.69870(10)
O9B O 0.3981(4) 0.8576(5) 0.7468(2)
O10B O 0.2415(6) 0.8109(5) 0.8083(2)
O11B O 0.2482(7) 0.6962(5) 0.7330(4)
O6C O 0.2058(3) 0.9706(2) 0.73869(12)
loop_
_geom_bond_atom_site_label_1
_geom_bond_atom_site_label_2
_geom_bond_site_symmetry_1
_geom_bond_site_symmetry_2
Cu1 O1 1_555 1_555
O1 C1 1_555 1_555
C1 O2 1_555 1_555
O2 Cu2 1_555 1_555
C2 C1 1_555 1_555
C3 C2 1_555 1_555
C4 C2 1_555 1_555
C5 C3 1_555 1_555
H1 C3 1_555 1_555
C6 C4 1_555 1_555
H2 C4 1_555 1_555
C7 C5 1_555 1_555
C8 C5 1_555 1_555
C9 C6 1_555 1_555
O3 C7 1_555 1_555
O4 C7 1_555 1_555
H3 C8 1_555 1_555
C10 C9 1_555 1_555
C11 C9 1_555 1_555
H4 C10 1_555 1_555
C12 C10 1_555 1_555
C13 C11 1_555 1_555
C14 C11 1_555 1_555
C15 C12 1_555 1_555
C16 C12 1_555 1_555
C17 C13 1_555 1_555
H5 C13 1_555 1_555
C18 C15 1_555 1_555
C19 C15 1_555 1_555
H6 C17 1_555 1_555
C20 C18 1_555 1_555
H7 C18 1_555 1_555
C21 C19 1_555 1_555
H8 C19 1_555 1_555
C22 C20 1_555 1_555
C23 C20 1_555 1_555
C24 C21 1_555 1_555
H9 C22 1_555 1_555
O5 C23 1_555 1_555
O6 C23 1_555 1_555
O7 C24 1_555 1_555
O8 C24 1_555 1_555
O9 Cu2_2 1_555 1_555
O10 Cu2_2 1_555 1_555
O11 Cu2_2 1_555 1_555
Cu1B O3 1_555 1_555
C14B C14 1_555 1_555
C17B C16 1_555 1_555
C16B C17 1_555 1_555
C11B C14B 1_555 1_555
H6B C17B 1_555 1_555
C13B C17B 1_555 1_555
C12B C16B 1_555 1_555
C9B C11B 1_555 1_555
H5B C13B 1_555 1_555
C10B C12B 1_555 1_555
C15B C12B 1_555 1_555
C6B C9B 1_555 1_555
H4B C10B 1_555 1_555
C19B C15B 1_555 1_555
C18B C15B 1_555 1_555
C4B C6B 1_555 1_555
C8B C6B 1_555 1_555
Cu1A O5 1_555 1_555
Cu2A O6 1_555 1_555
Cu2_2 O7 1_555 1_555
Cu1_2 O8 1_555 1_555
C21B C19B 1_555 1_555
H8B C19B 1_555 1_555
H7B C18B 1_555 1_555
C20B C18B 1_555 1_555
C2B C4B 1_555 1_555
H2B C4B 1_555 1_555
C5B C8B 1_555 1_555
H3B C8B 1_555 1_555
O2_2 Cu2_2 1_555 1_555
O6A Cu2_2 1_555 1_555
O5A Cu1_2 1_555 1_555
O3B Cu1_2 1_555 1_555
O1_2 Cu1_2 1_555 1_555
C24B C21B 1_555 1_555
C22B C21B 1_555 1_555
C23B C20B 1_555 1_555
C1B C2B 1_555 1_555
C3B C2B 1_555 1_555
C7B C5B 1_555 1_555
O1B Cu1B_2 1_555 1_555
O2B Cu2B 1_555 1_555
O8B C24B 1_555 1_555
O7B C24B 1_555 1_555
H9B C22B 1_555 1_555
O6B C23B 1_555 1_555
O5B C23B 1_555 1_555
O1B_2 C1B 1_555 1_555
O2B_2 C1B 1_555 1_555
H1B C3B 1_555 1_555
O3B_2 C7B 1_555 1_555
O4B C7B 1_555 1_555
Cu1B_2 O8B 1_555 1_555
Cu2B O7B 1_555 1_555
Cu2C O6B 1_555 1_555
Cu1C O5B 1_555 1_555
Cu1B_3 O1B_2 1_555 1_555
Cu2B_2 O2B_2 1_555 1_555
Cu1_3 O3B_2 1_555 1_555
O3_2 Cu1B_2 1_555 1_555
O5C Cu1B_2 1_555 1_555
O9B Cu2B 1_555 1_555
O10B Cu2B 1_555 1_555
O11B Cu2B 1_555 1_555
O6C Cu2B 1_555 1_555
C6 C8 1_555 1_555
C14 C16 1_555 1_555
C21 C22 1_555 1_555
C14B C16B 1_555 1_555
C11B C13B 1_555 1_555
C9B C10B 1_555 1_555
C20B C22B 1_555 1_555
C5B C3B 1_555 1_555

#END
