
#######################################################################
#
#                 Cambridge Crystallographic Data Centre
#                                CCDC 
#
#######################################################################
#
# If this CIF has been generated from an entry in the Cambridge 
# Structural Database, then it will include bibliographic, chemical, 
# crystal, experimental, refinement or atomic coordinate data resulting 
# from the CCDC's data processing and validation procedures.
#
#######################################################################

data_FIZYAQ
_symmetry_cell_setting           monoclinic
_symmetry_space_group_name_H-M   'C 2/c'
_symmetry_Int_Tables_number      15
_space_group_name_Hall           '-C 2yn'
loop_
_symmetry_equiv_pos_site_id
_symmetry_equiv_pos_as_xyz
1 x,y,z
2 -x,y,1/2-z
3 1/2+x,1/2+y,z
4 1/2-x,1/2+y,1/2-z
5 -x,-y,-z
6 x,-y,1/2+z
7 1/2-x,1/2-y,-z
8 1/2+x,1/2-y,1/2+z
_cell_length_a                   17.711(4)
_cell_length_b                   13.498(3)
_cell_length_c                   12.670(3)
_cell_angle_alpha                90
_cell_angle_beta                 92.83(3)
_cell_angle_gamma                90
_cell_volume                     3025.24
loop_
_atom_site_label
_atom_site_type_symbol
_atom_site_fract_x
_atom_site_fract_y
_atom_site_fract_z
Ni1 Ni 0.5000 0.0000 0.5000
S1 S 0.27346(6) 0.32572(8) 0.22265(8)
S2 S 0.5000 0.11645(9) 0.7500
O1 O 0.49927(13) 0.05202(18) 0.65631(18)
O2 O 0.43160(16) 0.1780(2) 0.7467(2)
N1 N 0.45049(17) 0.1310(2) 0.4381(2)
N2 N 0.39389(17) 0.2357(2) 0.3275(2)
N3 N 0.22397(17) 0.3978(2) 0.0315(2)
N4 N 0.11007(16) 0.4529(2) -0.0161(2)
C1 C 0.4270(2) 0.1460(3) 0.3389(3)
H1 H 0.4324 0.1010 0.2843
C2 C 0.4312(3) 0.2143(3) 0.4924(3)
H2 H 0.4407 0.2241 0.5645
C3 C 0.3963(3) 0.2805(3) 0.4254(3)
H3 H 0.3780 0.3428 0.4421
C4 C 0.3643(2) 0.2768(3) 0.2298(3)
C5 C 0.3982(2) 0.2810(3) 0.1386(3)
H4 H 0.4475 0.2598 0.1299
C6 C 0.3501(2) 0.3219(3) 0.0550(3)
H5 H 0.3639 0.3282 -0.0146
C7 C 0.2824(2) 0.3501(3) 0.0897(3)
C8 C 0.2299(2) 0.4476(4) -0.0631(3)
H6 H 0.2735 0.4559 -0.1003
C9 C 0.1606(2) 0.4816(3) -0.0907(3)
H7 H 0.1482 0.5189 -0.1508
C10 C 0.1507(2) 0.4012(3) 0.0556(3)
H8 H 0.1312 0.3713 0.1146
O1A O 0.50073(13) 0.05202(18) 0.84369(18)
O2A O 0.56840(16) 0.1780(2) 0.7533(2)
S1D S 0.72654(6) -0.32572(8) 0.77735(8)
N1D N 0.54951(17) -0.1310(2) 0.5619(2)
N2D N 0.60611(17) -0.2357(2) 0.6725(2)
N3D N 0.77603(17) -0.3978(2) 0.9685(2)
N4D N 0.88993(16) -0.4529(2) 1.0161(2)
C1D C 0.5730(2) -0.1460(3) 0.6611(3)
H1D H 0.5676 -0.1010 0.7157
C2D C 0.5688(3) -0.2143(3) 0.5076(3)
H2D H 0.5593 -0.2241 0.4355
C3D C 0.6037(3) -0.2805(3) 0.5746(3)
H3D H 0.6220 -0.3428 0.5579
C4D C 0.6357(2) -0.2768(3) 0.7702(3)
C5D C 0.6018(2) -0.2810(3) 0.8614(3)
H4D H 0.5525 -0.2598 0.8701
C6D C 0.6499(2) -0.3219(3) 0.9450(3)
H5D H 0.6361 -0.3282 1.0146
C7D C 0.7176(2) -0.3501(3) 0.9103(3)
C8D C 0.7701(2) -0.4476(4) 1.0631(3)
H6D H 0.7265 -0.4559 1.1003
C9D C 0.8394(2) -0.4816(3) 1.0907(3)
H7D H 0.8518 -0.5189 1.1508
C10D C 0.8493(2) -0.4012(3) 0.9444(3)
H8D H 0.8688 -0.3713 0.8854
Ni1A Ni 0.5000 0.0000 1.0000
Ni1C Ni 0.0000 0.5000 0.0000
Ni1C_2 Ni 1.0000 -0.5000 1.0000
O1D O 0.50073(13) -0.05202(18) 0.34369(18)
N4C N 0.38993(16) -0.0471(2) 0.5161(2)
N4G N 0.61007(16) 0.0471(2) 0.4839(2)
loop_
_geom_bond_atom_site_label_1
_geom_bond_atom_site_label_2
_geom_bond_site_symmetry_1
_geom_bond_site_symmetry_2
Ni1 O1 1_555 1_555
S1 C4 1_555 1_555
S2 O1 1_555 1_555
O2 S2 1_555 1_555
N1 Ni1 1_555 1_555
N2 C1 1_555 1_555
N3 C7 1_555 1_555
N4 C9 1_555 1_555
C1 N1 1_555 1_555
H1 C1 1_555 1_555
C2 N1 1_555 1_555
H2 C2 1_555 1_555
C3 N2 1_555 1_555
H3 C3 1_555 1_555
C4 N2 1_555 1_555
C5 C4 1_555 1_555
H4 C5 1_555 1_555
C6 C5 1_555 1_555
H5 C6 1_555 1_555
C7 S1 1_555 1_555
C8 N3 1_555 1_555
H6 C8 1_555 1_555
C9 C8 1_555 1_555
H7 C9 1_555 1_555
C10 N3 1_555 1_555
H8 C10 1_555 1_555
O1A S2 1_555 1_555
O2A S2 1_555 1_555
S1D C4D 1_555 1_555
N1D Ni1 1_555 1_555
N2D C1D 1_555 1_555
N3D C7D 1_555 1_555
N4D C9D 1_555 1_555
C1D N1D 1_555 1_555
H1D C1D 1_555 1_555
C2D N1D 1_555 1_555
H2D C2D 1_555 1_555
C3D N2D 1_555 1_555
H3D C3D 1_555 1_555
C4D N2D 1_555 1_555
C5D C4D 1_555 1_555
H4D C5D 1_555 1_555
C6D C5D 1_555 1_555
H5D C6D 1_555 1_555
C7D S1D 1_555 1_555
C8D N3D 1_555 1_555
H6D C8D 1_555 1_555
C9D C8D 1_555 1_555
H7D C9D 1_555 1_555
C10D N3D 1_555 1_555
H8D C10D 1_555 1_555
Ni1A O1A 1_555 1_555
Ni1C N4 1_555 1_555
Ni1C_2 N4D 1_555 1_555
O1D Ni1 1_555 1_555
N4C Ni1 1_555 1_555
N4G Ni1 1_555 1_555
N4 C10 1_555 1_555
C2 C3 1_555 1_555
C6 C7 1_555 1_555
N4D C10D 1_555 1_555
C2D C3D 1_555 1_555
C6D C7D 1_555 1_555

#END
