
#######################################################################
#
#                 Cambridge Crystallographic Data Centre
#                                CCDC 
#
#######################################################################
#
# If this CIF has been generated from an entry in the Cambridge 
# Structural Database, then it will include bibliographic, chemical, 
# crystal, experimental, refinement or atomic coordinate data resulting 
# from the CCDC's data processing and validation procedures.
#
#######################################################################

data_FOBCIK
_symmetry_cell_setting           monoclinic
_symmetry_space_group_name_H-M   'C 2/c'
_symmetry_Int_Tables_number      15
_space_group_name_Hall           '-C 2yn'
loop_
_symmetry_equiv_pos_site_id
_symmetry_equiv_pos_as_xyz
1 x,y,z
2 -x,y,1/2-z
3 1/2+x,1/2+y,z
4 1/2-x,1/2+y,1/2-z
5 -x,-y,-z
6 x,-y,1/2+z
7 1/2-x,1/2-y,-z
8 1/2+x,1/2-y,1/2+z
_cell_length_a                   17.867(4)
_cell_length_b                   13.437(3)
_cell_length_c                   12.678(3)
_cell_angle_alpha                90
_cell_angle_beta                 92.95(3)
_cell_angle_gamma                90
_cell_volume                     3039.69
loop_
_atom_site_label
_atom_site_type_symbol
_atom_site_fract_x
_atom_site_fract_y
_atom_site_fract_z
Co1 Co 0.0000 0.0000 0.0000
S1 S 0.22462(5) 0.33060(7) 0.27826(7)
S2 S 0.0000 0.11803(8) -0.2500
O1 O 0.00012(12) 0.05308(17) -0.15686(18)
O2 O 0.06794(17) 0.1792(2) -0.2473(2)
N1 N 0.05035(15) 0.1344(2) 0.0643(2)
N2 N 0.10612(16) 0.2389(2) 0.1747(2)
N3 N 0.27563(16) 0.3996(2) 0.4704(2)
N4 N 0.38855(15) 0.4529(2) 0.5168(2)
C1 C 0.07322(17) 0.1489(2) 0.1630(3)
H1 H 0.0676 0.1035 0.2174
C2 C 0.0706(2) 0.2178(3) 0.0096(3)
H2 H 0.0622 0.2275 -0.0627
C3 C 0.1049(2) 0.2839(3) 0.0773(3)
H3 H 0.1236 0.3464 0.0611
C4 C 0.13573(18) 0.2799(2) 0.2717(3)
C5 C 0.1036(2) 0.2806(3) 0.3647(3)
H4 H 0.0557 0.2563 0.3744
C6 C 0.1502(2) 0.3220(3) 0.4468(3)
H5 H 0.1370 0.3278 0.5165
C7 C 0.21612(18) 0.3518(2) 0.4114(3)
C8 C 0.2690(2) 0.4486(3) 0.5649(3)
H6 H 0.2259 0.4571 0.6021
C9 C 0.34759(17) 0.4031(2) 0.4448(3)
H7 H 0.3661 0.3745 0.3847
C10 C 0.3389(2) 0.4816(3) 0.5916(3)
H8 H 0.3520 0.5185 0.6519
O1A O -0.00012(12) 0.05308(17) -0.34314(18)
O2A O -0.06794(17) 0.1792(2) -0.2527(2)
S1D S -0.22462(5) -0.33060(7) -0.27826(7)
N1D N -0.05035(15) -0.1344(2) -0.0643(2)
N2D N -0.10612(16) -0.2389(2) -0.1747(2)
N3D N -0.27563(16) -0.3996(2) -0.4704(2)
N4D N -0.38855(15) -0.4529(2) -0.5168(2)
C1D C -0.07322(17) -0.1489(2) -0.1630(3)
H1D H -0.0676 -0.1035 -0.2174
C2D C -0.0706(2) -0.2178(3) -0.0096(3)
H2D H -0.0622 -0.2275 0.0627
C3D C -0.1049(2) -0.2839(3) -0.0773(3)
H3D H -0.1236 -0.3464 -0.0611
C4D C -0.13573(18) -0.2799(2) -0.2717(3)
C5D C -0.1036(2) -0.2806(3) -0.3647(3)
H4D H -0.0557 -0.2563 -0.3744
C6D C -0.1502(2) -0.3220(3) -0.4468(3)
H5D H -0.1370 -0.3278 -0.5165
C7D C -0.21612(18) -0.3518(2) -0.4114(3)
C8D C -0.2690(2) -0.4486(3) -0.5649(3)
H6D H -0.2259 -0.4571 -0.6021
C9D C -0.34759(17) -0.4031(2) -0.4448(3)
H7D H -0.3661 -0.3745 -0.3847
C10D C -0.3389(2) -0.4816(3) -0.5916(3)
H8D H -0.3520 -0.5185 -0.6519
Co1A Co 0.0000 0.0000 -0.5000
Co1C Co -0.5000 -0.5000 -0.5000
Co1C_2 Co 0.5000 0.5000 0.5000
O1D O -0.00012(12) -0.05308(17) 0.15686(18)
N4C N 0.11145(15) -0.0471(2) -0.0168(2)
N4G N -0.11145(15) 0.0471(2) 0.0168(2)
loop_
_geom_bond_atom_site_label_1
_geom_bond_atom_site_label_2
_geom_bond_site_symmetry_1
_geom_bond_site_symmetry_2
Co1 O1 1_555 1_555
S1 C4 1_555 1_555
S2 O1 1_555 1_555
O2 S2 1_555 1_555
N1 Co1 1_555 1_555
N2 C1 1_555 1_555
N3 C7 1_555 1_555
N4 C9 1_555 1_555
C1 N1 1_555 1_555
H1 C1 1_555 1_555
C2 N1 1_555 1_555
H2 C2 1_555 1_555
C3 N2 1_555 1_555
H3 C3 1_555 1_555
C4 N2 1_555 1_555
C5 C4 1_555 1_555
H4 C5 1_555 1_555
C6 C5 1_555 1_555
H5 C6 1_555 1_555
C7 S1 1_555 1_555
C8 N3 1_555 1_555
H6 C8 1_555 1_555
C9 N3 1_555 1_555
H7 C9 1_555 1_555
C10 N4 1_555 1_555
H8 C10 1_555 1_555
O1A S2 1_555 1_555
O2A S2 1_555 1_555
S1D C4D 1_555 1_555
N1D Co1 1_555 1_555
N2D C1D 1_555 1_555
N3D C7D 1_555 1_555
N4D C9D 1_555 1_555
C1D N1D 1_555 1_555
H1D C1D 1_555 1_555
C2D N1D 1_555 1_555
H2D C2D 1_555 1_555
C3D N2D 1_555 1_555
H3D C3D 1_555 1_555
C4D N2D 1_555 1_555
C5D C4D 1_555 1_555
H4D C5D 1_555 1_555
C6D C5D 1_555 1_555
H5D C6D 1_555 1_555
C7D S1D 1_555 1_555
C8D N3D 1_555 1_555
H6D C8D 1_555 1_555
C9D N3D 1_555 1_555
H7D C9D 1_555 1_555
C10D N4D 1_555 1_555
H8D C10D 1_555 1_555
Co1A O1A 1_555 1_555
Co1C N4D 1_555 1_555
Co1C_2 N4 1_555 1_555
O1D Co1 1_555 1_555
N4C Co1 1_555 1_555
N4G Co1 1_555 1_555
C2 C3 1_555 1_555
C6 C7 1_555 1_555
C8 C10 1_555 1_555
C2D C3D 1_555 1_555
C6D C7D 1_555 1_555
C8D C10D 1_555 1_555

#END
