
#######################################################################
#
#                 Cambridge Crystallographic Data Centre
#                                CCDC 
#
#######################################################################
#
# If this CIF has been generated from an entry in the Cambridge 
# Structural Database, then it will include bibliographic, chemical, 
# crystal, experimental, refinement or atomic coordinate data resulting 
# from the CCDC's data processing and validation procedures.
#
#######################################################################

data_FODCEI
_symmetry_cell_setting           triclinic
_symmetry_space_group_name_H-M   'P -1'
_symmetry_Int_Tables_number      2
_space_group_name_Hall           '-P 1'
loop_
_symmetry_equiv_pos_site_id
_symmetry_equiv_pos_as_xyz
1 x,y,z
2 -x,-y,-z
_cell_length_a                   9.9516(3)
_cell_length_b                   15.7818(7)
_cell_length_c                   16.5509(7)
_cell_angle_alpha                110.421(4)
_cell_angle_beta                 101.582(3)
_cell_angle_gamma                90.029(3)
_cell_volume                     2379.37
loop_
_atom_site_label
_atom_site_type_symbol
_atom_site_fract_x
_atom_site_fract_y
_atom_site_fract_z
Cd1 Cd 0.5000 0.5000 1.0000
Cd2 Cd 0.95979(5) -0.22479(3) 0.56704(4)
N1 N 0.3086(6) 0.4003(4) 0.9235(4)
N2 N 0.1539(7) -0.1438(4) 0.6749(5)
N3 N 0.4139(6) 0.6075(4) 0.9345(4)
N4 N -0.0064(7) 0.6713(4) 0.6373(4)
N5 N 0.7690(7) -0.3207(4) 0.4698(4)
O1 O 0.6052(5) 0.4153(3) 0.8878(3)
O2 O 0.7384(6) 0.5008(4) 0.8491(4)
O3 O 0.8479(6) 0.3417(4) 0.5414(4)
O4 O 0.9387(6) 0.2125(4) 0.5351(4)
O5 O 0.6335(7) 0.0270(5) 0.6507(6)
O6 O 0.8378(7) -0.0996(4) 0.5580(5)
O7 O 0.7943(7) -0.1442(5) 0.6597(5)
O8 O 0.1070(6) 0.1160(4) 0.7105(4)
H1 H 0.1217 0.0811 0.6637
O9 O 0.1488(9) 0.1013(6) 0.8797(6)
H2 H 0.0752 0.0948 0.8447
O10 O 0.0873(7) 0.8236(4) 0.8986(5)
H3 H 0.1331 0.8674 0.9376
O11 O -0.0070(6) 0.6005(4) 0.8984(4)
H4 H -0.0782 0.5671 0.8789
O12 O 0.3393(5) -0.4829(4) 0.4367(4)
H5 H 0.3002 -0.4380 0.4338
C1 C 0.6851(7) 0.4259(5) 0.8420(5)
C2 C 0.8667(8) 0.2760(6) 0.5670(5)
C3 C 0.7170(7) 0.3409(5) 0.7718(5)
C4 C 0.7704(7) 0.3473(5) 0.7025(5)
H6 H 0.7821 0.4036 0.6976
C5 C 0.8062(8) 0.2709(5) 0.6408(5)
C6 C 0.7888(8) 0.1869(6) 0.6492(6)
H7 H 0.8148 0.1355 0.6087
C7 C 0.7336(8) 0.1788(5) 0.7168(5)
C8 C 0.6978(7) 0.2565(5) 0.7776(5)
H8 H 0.6602 0.2518 0.8231
C9 C 0.7217(10) 0.0873(6) 0.7263(6)
H9 H 0.8118 0.0640 0.7335
H10 H 0.6857 0.0933 0.7781
C10 C 0.6407(10) -0.0473(8) 0.6111(8)
H11 H 0.6167 -0.0659 0.6574
C11 C 0.7677(10) -0.0992(6) 0.6113(7)
C12 C 0.5213(10) -0.1019(7) 0.5463(7)
H12 H 0.4420 -0.0672 0.5501
H13 H 0.5046 -0.1557 0.5584
H14 H 0.5390 -0.1184 0.4881
C13 C 0.1820(8) 0.4258(5) 0.9247(6)
H15 H 0.1712 0.4849 0.9596
C14 C 0.0677(9) 0.3705(6) 0.8779(6)
H16 H -0.0193 0.3916 0.8795
C15 C 0.0834(9) 0.2803(6) 0.8267(6)
H17 H 0.0065 0.2405 0.7945
C16 C 0.2152(8) 0.2514(5) 0.8247(6)
C17 C 0.3240(8) 0.3141(5) 0.8735(6)
H18 H 0.4127 0.2962 0.8718
C18 C 0.2356(8) 0.1531(5) 0.7713(6)
C19 C 0.3497(9) 0.1474(6) 0.7230(7)
H19 H 0.3523 0.0859 0.6848
H20 H 0.4358 0.1670 0.7648
H21 H 0.3339 0.1857 0.6885
C20 C 0.2639(9) 0.0964(6) 0.8332(6)
C21 C 0.3934(10) 0.1332(6) 0.8952(8)
H22 H 0.3882 0.1965 0.9272
H23 H 0.4663 0.1260 0.8637
H24 H 0.4114 0.1015 0.9359
C22 C 0.2711(9) -0.0038(6) 0.7791(6)
C23 C 0.3937(9) -0.0441(6) 0.7769(7)
H25 H 0.4759 -0.0104 0.8096
C24 C 0.3946(9) -0.1346(6) 0.7261(6)
H26 H 0.4764 -0.1631 0.7268
C25 C 0.2748(9) -0.1813(6) 0.6753(6)
H27 H 0.2765 -0.2415 0.6394
C26 C 0.1538(9) -0.0580(5) 0.7275(6)
H28 H 0.0695 -0.0329 0.7297
C27 C 0.4787(8) 0.6272(6) 0.8801(6)
H29 H 0.5598 0.6004 0.8698
C28 C 0.4297(9) 0.6863(6) 0.8380(6)
H30 H 0.4773 0.6991 0.8002
C29 C 0.3088(9) 0.7263(6) 0.8532(6)
H31 H 0.2744 0.7661 0.8252
C30 C 0.2394(8) 0.7071(5) 0.9098(5)
C31 C 0.2980(8) 0.6480(5) 0.9497(5)
H32 H 0.2544 0.6356 0.9895
C32 C 0.1004(8) 0.7449(5) 0.9254(6)
C33 C 0.0953(10) 0.7689(7) 1.0201(6)
H33 H 0.1770 0.8058 1.0565
H34 H 0.0895 0.7145 1.0331
H35 H 0.0160 0.8019 1.0316
C34 C -0.0206(8) 0.6729(5) 0.8655(6)
C35 C -0.1617(9) 0.7105(6) 0.8725(6)
H36 H -0.2326 0.6661 0.8319
H37 H -0.1660 0.7647 0.8585
H38 H -0.1747 0.7243 0.9316
C36 C -0.0039(8) 0.6399(5) 0.7694(5)
C37 C 0.0477(9) 0.5580(6) 0.7323(6)
H39 H 0.0679 0.5196 0.7641
C38 C 0.0692(9) 0.5331(6) 0.6486(6)
H40 H 0.1008 0.4768 0.6220
C39 C 0.0439(9) 0.5922(6) 0.6039(6)
H41 H 0.0628 0.5758 0.5479
C40 C -0.0316(8) 0.6942(5) 0.7199(5)
H42 H -0.0692 0.7489 0.7438
C41 C 0.7354(8) -0.3340(5) 0.3837(5)
H43 H 0.7915 -0.3059 0.3603
C42 C 0.6209(8) -0.3875(6) 0.3286(6)
H44 H 0.6008 -0.3960 0.2688
C43 C 0.5363(8) -0.4283(6) 0.3630(6)
H45 H 0.4588 -0.4651 0.3265
C44 C 0.5673(8) -0.4142(5) 0.4524(5)
C45 C 0.6852(8) -0.3619(5) 0.5014(6)
H46 H 0.7092 -0.3542 0.5610
C46 C 0.4723(8) -0.4551(5) 0.4946(5)
C47 C 0.4579(9) -0.3859(5) 0.5838(6)
H47 H 0.4443 -0.3277 0.5785
H48 H 0.5399 -0.3816 0.6274
H49 H 0.3804 -0.4051 0.6013
N5A N 0.2310(7) -0.6793(4) 0.5302(4)
O12A O 0.6607(5) -0.5171(4) 0.5633(4)
H5A H 0.6998 -0.5620 0.5662
C41A C 0.2646(8) -0.6660(5) 0.6163(5)
H43A H 0.2085 -0.6941 0.6397
C42A C 0.3791(8) -0.6125(6) 0.6714(6)
H44A H 0.3992 -0.6040 0.7312
C43A C 0.4637(8) -0.5717(6) 0.6370(6)
H45A H 0.5412 -0.5349 0.6735
C44A C 0.4327(8) -0.5858(5) 0.5476(5)
C45A C 0.3148(8) -0.6381(5) 0.4986(6)
H46A H 0.2908 -0.6458 0.4390
C46A C 0.5277(8) -0.5449(5) 0.5054(5)
C47A C 0.5421(9) -0.6141(5) 0.4162(6)
H47A H 0.5557 -0.6723 0.4215
H48A H 0.4601 -0.6184 0.3726
H49A H 0.6196 -0.5949 0.3987
Cd2A Cd 0.04021(5) -0.77521(3) 0.43296(4)
O1A O 0.3948(5) -1.4153(3) 0.1122(3)
O2A O 0.2616(6) -1.5008(4) 0.1509(4)
O3A O 0.1521(6) -1.3417(4) 0.4586(4)
O4A O 0.0613(6) -1.2125(4) 0.4649(4)
O5A O 0.3665(7) -1.0270(5) 0.3493(6)
O6A O 0.1622(7) -0.9004(4) 0.4420(5)
O7A O 0.2057(7) -0.8558(5) 0.3403(5)
C1A C 0.3149(7) -1.4259(5) 0.1580(5)
C2A C 0.1333(8) -1.2760(6) 0.4330(5)
C3A C 0.2830(7) -1.3409(5) 0.2282(5)
C4A C 0.2296(7) -1.3473(5) 0.2975(5)
H6A H 0.2179 -1.4036 0.3024
C5A C 0.1938(8) -1.2709(5) 0.3592(5)
C6A C 0.2112(8) -1.1869(6) 0.3508(6)
H7A H 0.1852 -1.1355 0.3913
C7A C 0.2664(8) -1.1788(5) 0.2832(5)
C8A C 0.3022(7) -1.2565(5) 0.2224(5)
H8A H 0.3398 -1.2518 0.1769
C9A C 0.2783(10) -1.0873(6) 0.2737(6)
H9A H 0.1882 -1.0640 0.2665
H10A H 0.3143 -1.0933 0.2219
C10A C 0.3593(10) -0.9527(8) 0.3889(8)
H11A H 0.3833 -0.9341 0.3426
C11A C 0.2323(10) -0.9008(6) 0.3887(7)
C12A C 0.4787(10) -0.8981(7) 0.4537(7)
H12A H 0.5580 -0.9328 0.4499
H13A H 0.4954 -0.8443 0.4416
H14A H 0.4610 -0.8816 0.5119
N1A N 0.6914(6) 0.5997(4) 1.0765(4)
N2A N 0.8461(7) 1.1438(4) 1.3251(5)
O8A O 0.8930(6) 0.8840(4) 1.2895(4)
H1A H 0.8783 0.9189 1.3363
O9A O 0.8512(9) 0.8987(6) 1.1203(6)
H2A H 0.9248 0.9052 1.1553
C13A C 0.8180(8) 0.5742(5) 1.0753(6)
H15A H 0.8288 0.5151 1.0404
C14A C 0.9323(9) 0.6295(6) 1.1221(6)
H16A H 1.0193 0.6084 1.1205
C15A C 0.9166(9) 0.7197(6) 1.1733(6)
H17A H 0.9935 0.7595 1.2055
C16A C 0.7848(8) 0.7486(5) 1.1753(6)
C17A C 0.6760(8) 0.6859(5) 1.1265(6)
H18A H 0.5873 0.7038 1.1282
C18A C 0.7644(8) 0.8469(5) 1.2287(6)
C19A C 0.6503(9) 0.8526(6) 1.2770(7)
H19A H 0.6477 0.9141 1.3152
H20A H 0.5642 0.8330 1.2352
H21A H 0.6661 0.8143 1.3115
C20A C 0.7361(9) 0.9036(6) 1.1668(6)
C21A C 0.6066(10) 0.8668(6) 1.1048(8)
H22A H 0.6118 0.8035 1.0728
H23A H 0.5337 0.8740 1.1363
H24A H 0.5886 0.8985 1.0641
C22A C 0.7289(9) 1.0038(6) 1.2209(6)
C23A C 0.6063(9) 1.0441(6) 1.2231(7)
H25A H 0.5241 1.0104 1.1904
C24A C 0.6054(9) 1.1346(6) 1.2739(6)
H26A H 0.5236 1.1631 1.2732
C25A C 0.7252(9) 1.1813(6) 1.3247(6)
H27A H 0.7235 1.2415 1.3606
C26A C 0.8462(9) 1.0580(5) 1.2725(6)
H28A H 0.9305 1.0329 1.2703
N3A N 0.5861(6) 0.3925(4) 1.0655(4)
N4A N 1.0064(7) 0.3287(4) 1.3627(4)
O10A O 0.9127(7) 0.1764(4) 1.1014(5)
H3A H 0.8669 0.1326 1.0624
O11A O 1.0070(6) 0.3995(4) 1.1016(4)
H4A H 1.0782 0.4329 1.1211
C27A C 0.5213(8) 0.3728(6) 1.1199(6)
H29A H 0.4402 0.3996 1.1302
C28A C 0.5703(9) 0.3137(6) 1.1620(6)
H30A H 0.5227 0.3009 1.1998
C29A C 0.6912(9) 0.2737(6) 1.1468(6)
H31A H 0.7256 0.2339 1.1748
C30A C 0.7606(8) 0.2929(5) 1.0902(5)
C31A C 0.7020(8) 0.3520(5) 1.0503(5)
H32A H 0.7456 0.3644 1.0105
C32A C 0.8996(8) 0.2551(5) 1.0746(6)
C33A C 0.9047(10) 0.2311(7) 0.9799(6)
H33A H 0.8230 0.1942 0.9435
H34A H 0.9105 0.2855 0.9669
H35A H 0.9840 0.1981 0.9684
C34A C 1.0206(8) 0.3271(5) 1.1345(6)
C35A C 1.1617(9) 0.2895(6) 1.1275(6)
H36A H 1.2326 0.3339 1.1681
H37A H 1.1660 0.2353 1.1415
H38A H 1.1747 0.2757 1.0684
C36A C 1.0039(8) 0.3601(5) 1.2306(5)
C37A C 0.9523(9) 0.4420(6) 1.2677(6)
H39A H 0.9321 0.4804 1.2359
C38A C 0.9308(9) 0.4669(6) 1.3514(6)
H40A H 0.8992 0.5232 1.3780
C39A C 0.9561(9) 0.4078(6) 1.3961(6)
H41A H 0.9372 0.4242 1.4521
C40A C 1.0316(8) 0.3058(5) 1.2801(5)
H42A H 1.0692 0.2511 1.2562
Cd1_2 Cd 0.5000 -1.5000 0.0000
Cd2_2 Cd -0.04021(5) -1.22479(3) 0.56704(4)
Cd2_3 Cd -0.04021(5) -0.22479(3) 0.56704(4)
Cd2_4 Cd -0.04021(5) 0.77521(3) 0.56704(4)
Cd2A_2 Cd 1.04021(5) 0.22479(3) 0.43296(4)
Cd2A_3 Cd 1.04021(5) 0.22479(3) 1.43296(4)
Cd2A_4 Cd 1.04021(5) 1.22479(3) 1.43296(4)
N2_2 N 1.1539(7) -0.1438(4) 0.6749(5)
N2A_2 N -0.1539(7) -0.8562(4) 0.3251(5)
N4_2 N 0.9936(7) -0.3287(4) 0.6373(4)
N4A_2 N 0.0064(7) -0.6713(4) 0.3627(4)
O1A_2 O 0.3948(5) 0.5847(3) 1.1122(3)
O4_2 O -0.0613(6) -0.7875(4) 0.5351(4)
O4A_2 O 1.0613(6) -0.2125(4) 0.4649(4)
O13 O 0.8493(8) 0.0031(5) 0.4492(5)
H50 H 0.8591 -0.0264 0.4839
H51 H 0.9123 0.0410 0.4519
O14 O 0.835(2) 0.9328(9) 0.8442(9)
H52 H 0.9221 0.9354 0.8568
H53 H 0.8069 0.9203 0.7890
loop_
_geom_bond_atom_site_label_1
_geom_bond_atom_site_label_2
_geom_bond_site_symmetry_1
_geom_bond_site_symmetry_2
Cd1 N1 1_555 1_555
Cd2 N5 1_555 1_555
N1 C13 1_555 1_555
N2 C25 1_555 1_555
N3 Cd1 1_555 1_555
N4 C39 1_555 1_555
N5 C41 1_555 1_555
O1 Cd1 1_555 1_555
O2 C1 1_555 1_555
O3 C2 1_555 1_555
O4 C2 1_555 1_555
O5 C9 1_555 1_555
O6 Cd2 1_555 1_555
O7 Cd2 1_555 1_555
O8 H1 1_555 1_555
O9 H2 1_555 1_555
O10 H3 1_555 1_555
O11 H4 1_555 1_555
O12 H5 1_555 1_555
C1 O1 1_555 1_555
C2 C5 1_555 1_555
C3 C1 1_555 1_555
C4 C3 1_555 1_555
H6 C4 1_555 1_555
C5 C4 1_555 1_555
C6 C5 1_555 1_555
H7 C6 1_555 1_555
C7 C6 1_555 1_555
C8 C3 1_555 1_555
H8 C8 1_555 1_555
C9 C7 1_555 1_555
H9 C9 1_555 1_555
H10 C9 1_555 1_555
C10 O5 1_555 1_555
H11 C10 1_555 1_555
C11 O6 1_555 1_555
C12 C10 1_555 1_555
H12 C12 1_555 1_555
H13 C12 1_555 1_555
H14 C12 1_555 1_555
C13 H15 1_555 1_555
C14 C13 1_555 1_555
H16 C14 1_555 1_555
C15 C14 1_555 1_555
H17 C15 1_555 1_555
C16 C15 1_555 1_555
C17 N1 1_555 1_555
H18 C17 1_555 1_555
C18 O8 1_555 1_555
C19 C18 1_555 1_555
H19 C19 1_555 1_555
H20 C19 1_555 1_555
H21 C19 1_555 1_555
C20 O9 1_555 1_555
C21 C20 1_555 1_555
H22 C21 1_555 1_555
H23 C21 1_555 1_555
H24 C21 1_555 1_555
C22 C20 1_555 1_555
C23 C22 1_555 1_555
H25 C23 1_555 1_555
C24 C23 1_555 1_555
H26 C24 1_555 1_555
C25 C24 1_555 1_555
H27 C25 1_555 1_555
C26 N2 1_555 1_555
H28 C26 1_555 1_555
C27 N3 1_555 1_555
H29 C27 1_555 1_555
C28 C27 1_555 1_555
H30 C28 1_555 1_555
C29 C28 1_555 1_555
H31 C29 1_555 1_555
C30 C29 1_555 1_555
C31 N3 1_555 1_555
H32 C31 1_555 1_555
C32 O10 1_555 1_555
C33 C32 1_555 1_555
H33 C33 1_555 1_555
H34 C33 1_555 1_555
H35 C33 1_555 1_555
C34 O11 1_555 1_555
C35 C34 1_555 1_555
H36 C35 1_555 1_555
H37 C35 1_555 1_555
H38 C35 1_555 1_555
C36 C34 1_555 1_555
C37 C36 1_555 1_555
H39 C37 1_555 1_555
C38 C37 1_555 1_555
H40 C38 1_555 1_555
C39 C38 1_555 1_555
H41 C39 1_555 1_555
C40 N4 1_555 1_555
H42 C40 1_555 1_555
C41 H43 1_555 1_555
C42 C41 1_555 1_555
H44 C42 1_555 1_555
C43 C42 1_555 1_555
H45 C43 1_555 1_555
C44 C43 1_555 1_555
C45 N5 1_555 1_555
H46 C45 1_555 1_555
C46 O12 1_555 1_555
C47 C46 1_555 1_555
H47 C47 1_555 1_555
H48 C47 1_555 1_555
H49 C47 1_555 1_555
O13 H50 1_555 1_555
H51 O13 1_555 1_555
O14 H52 1_555 1_555
H53 O14 1_555 1_555
N5A C41A 1_555 1_555
O12A H5A 1_555 1_555
C41A H43A 1_555 1_555
C42A C41A 1_555 1_555
H44A C42A 1_555 1_555
C43A C42A 1_555 1_555
H45A C43A 1_555 1_555
C44A C43A 1_555 1_555
C45A N5A 1_555 1_555
H46A C45A 1_555 1_555
C46A C46 1_555 1_555
C47A C46A 1_555 1_555
H47A C47A 1_555 1_555
H48A C47A 1_555 1_555
H49A C47A 1_555 1_555
Cd2A N5A 1_555 1_555
O1A C1A 1_555 1_555
O2A C1A 1_555 1_555
O3A C2A 1_555 1_555
O4A C2A 1_555 1_555
O5A C9A 1_555 1_555
O6A Cd2A 1_555 1_555
O7A Cd2A 1_555 1_555
C1A C3A 1_555 1_555
C2A C5A 1_555 1_555
C3A C4A 1_555 1_555
C4A H6A 1_555 1_555
C5A C4A 1_555 1_555
C6A C5A 1_555 1_555
H7A C6A 1_555 1_555
C7A C6A 1_555 1_555
C8A C3A 1_555 1_555
H8A C8A 1_555 1_555
C9A C7A 1_555 1_555
H9A C9A 1_555 1_555
H10A C9A 1_555 1_555
C10A O5A 1_555 1_555
H11A C10A 1_555 1_555
C11A O6A 1_555 1_555
C12A C10A 1_555 1_555
H12A C12A 1_555 1_555
H13A C12A 1_555 1_555
H14A C12A 1_555 1_555
N1A Cd1 1_555 1_555
N2A C25A 1_555 1_555
O8A H1A 1_555 1_555
O9A H2A 1_555 1_555
C13A N1A 1_555 1_555
H15A C13A 1_555 1_555
C14A C13A 1_555 1_555
H16A C14A 1_555 1_555
C15A C14A 1_555 1_555
H17A C15A 1_555 1_555
C16A C15A 1_555 1_555
C17A N1A 1_555 1_555
H18A C17A 1_555 1_555
C18A O8A 1_555 1_555
C19A C18A 1_555 1_555
H19A C19A 1_555 1_555
H20A C19A 1_555 1_555
H21A C19A 1_555 1_555
C20A O9A 1_555 1_555
C21A C20A 1_555 1_555
H22A C21A 1_555 1_555
H23A C21A 1_555 1_555
H24A C21A 1_555 1_555
C22A C20A 1_555 1_555
C23A C22A 1_555 1_555
H25A C23A 1_555 1_555
C24A C23A 1_555 1_555
H26A C24A 1_555 1_555
C25A C24A 1_555 1_555
H27A C25A 1_555 1_555
C26A N2A 1_555 1_555
H28A C26A 1_555 1_555
N3A Cd1 1_555 1_555
N4A C39A 1_555 1_555
O10A H3A 1_555 1_555
O11A H4A 1_555 1_555
C27A N3A 1_555 1_555
H29A C27A 1_555 1_555
C28A C27A 1_555 1_555
H30A C28A 1_555 1_555
C29A C28A 1_555 1_555
H31A C29A 1_555 1_555
C30A C29A 1_555 1_555
C31A N3A 1_555 1_555
H32A C31A 1_555 1_555
C32A O10A 1_555 1_555
C33A C32A 1_555 1_555
H33A C33A 1_555 1_555
H34A C33A 1_555 1_555
H35A C33A 1_555 1_555
C34A O11A 1_555 1_555
C35A C34A 1_555 1_555
H36A C35A 1_555 1_555
H37A C35A 1_555 1_555
H38A C35A 1_555 1_555
C36A C34A 1_555 1_555
C37A C36A 1_555 1_555
H39A C37A 1_555 1_555
C38A C37A 1_555 1_555
H40A C38A 1_555 1_555
C39A C38A 1_555 1_555
H41A C39A 1_555 1_555
C40A N4A 1_555 1_555
H42A C40A 1_555 1_555
Cd1_2 O1A 1_555 1_555
Cd2_2 O4A 1_555 1_555
Cd2_3 N2 1_555 1_555
Cd2_4 N4 1_555 1_555
Cd2A_2 O4 1_555 1_555
Cd2A_3 N4A 1_555 1_555
Cd2A_4 N2A 1_555 1_555
N2_2 Cd2 1_555 1_555
N2A_2 Cd2A 1_555 1_555
N4_2 Cd2 1_555 1_555
N4A_2 Cd2A 1_555 1_555
O1A_2 Cd1 1_555 1_555
O4_2 Cd2A 1_555 1_555
O4A_2 Cd2 1_555 1_555
O7 C11 1_555 1_555
C7 C8 1_555 1_555
C10 C11 1_555 1_555
C16 C17 1_555 1_555
C16 C18 1_555 1_555
C18 C20 1_555 1_555
C22 C26 1_555 1_555
C30 C31 1_555 1_555
C30 C32 1_555 1_555
C32 C34 1_555 1_555
C36 C40 1_555 1_555
C44 C45 1_555 1_555
C44 C46 1_555 1_555
O12A C46A 1_555 1_555
C44A C45A 1_555 1_555
C44A C46A 1_555 1_555
O7A C11A 1_555 1_555
C7A C8A 1_555 1_555
C10A C11A 1_555 1_555
C16A C17A 1_555 1_555
C16A C18A 1_555 1_555
C18A C20A 1_555 1_555
C22A C26A 1_555 1_555
C30A C31A 1_555 1_555
C30A C32A 1_555 1_555
C32A C34A 1_555 1_555
C36A C40A 1_555 1_555

#END
