
#######################################################################
#
#                 Cambridge Crystallographic Data Centre
#                                CCDC 
#
#######################################################################
#
# If this CIF has been generated from an entry in the Cambridge 
# Structural Database, then it will include bibliographic, chemical, 
# crystal, experimental, refinement or atomic coordinate data resulting 
# from the CCDC's data processing and validation procedures.
#
#######################################################################

data_FOJKIA
_symmetry_cell_setting           monoclinic
_symmetry_space_group_name_H-M   'P 21/c'
_symmetry_Int_Tables_number      14
_space_group_name_Hall           '-P 2ybc'
loop_
_symmetry_equiv_pos_site_id
_symmetry_equiv_pos_as_xyz
1 x,y,z
2 -x,1/2+y,1/2-z
3 -x,-y,-z
4 x,1/2-y,1/2+z
_cell_length_a                   7.1722(2)
_cell_length_b                   12.8109(3)
_cell_length_c                   17.3162(4)
_cell_angle_alpha                90
_cell_angle_beta                 90.933(2)
_cell_angle_gamma                90
_cell_volume                     1590.84
loop_
_atom_site_label
_atom_site_type_symbol
_atom_site_fract_x
_atom_site_fract_y
_atom_site_fract_z
Mg1 Mg 0.5000 0.5000 0.0000
Mg2 Mg 0.0000 0.5000 0.0000
O1 O 0.10440(16) 0.38175(9) 0.06817(7)
O2 O 0.40913(17) 0.40769(9) 0.08749(7)
O3 O 0.08254(16) 0.07144(9) 0.39912(7)
O4 O 0.38757(16) 0.09719(9) 0.41828(7)
O5 O 0.74973(15) 0.40901(8) 0.00547(7)
H1 H 0.7586 0.3523 -0.0197
H2 H 0.7489 0.3910 0.0515
C1 C 0.2571(2) 0.36354(12) 0.10175(9)
C2 C 0.2389(2) 0.10445(12) 0.37877(10)
C3 C 0.2556(2) 0.28494(12) 0.16699(9)
C4 C 0.1022(2) 0.28266(14) 0.21314(10)
H3 H -0.0009 0.3234 0.2002
C5 C 0.0977(2) 0.21981(14) 0.27971(10)
H4 H -0.0096 0.2184 0.3091
C6 C 0.2485(2) 0.16061(13) 0.30203(9)
C7 C 0.4083(2) 0.15625(12) 0.25359(9)
C8 C 0.4098(2) 0.21744(12) 0.18448(10)
C9 C 0.5616(3) 0.20563(14) 0.13380(11)
H5 H 0.5621 0.2431 0.0878
C10 C 0.7068(3) 0.14072(15) 0.15099(12)
H6 H 0.8057 0.1350 0.1172
C11 C 0.7077(3) 0.08256(15) 0.21955(12)
H7 H 0.8080 0.0390 0.2314
C12 C 0.5628(3) 0.08942(14) 0.26884(11)
H8 H 0.5647 0.0494 0.3137
O1B O -0.10440(16) 0.61825(9) -0.06817(7)
O2B O -0.40913(17) 0.59231(9) -0.08749(7)
O3B O -0.08254(16) 0.92856(9) -0.39912(7)
O4B O -0.38757(16) 0.90281(9) -0.41828(7)
C1B C -0.2571(2) 0.63646(12) -0.10175(9)
C2B C -0.2389(2) 0.89555(12) -0.37877(10)
C3B C -0.2556(2) 0.71506(12) -0.16699(9)
C4B C -0.1022(2) 0.71734(14) -0.21314(10)
H3B H 0.0009 0.6766 -0.2002
C5B C -0.0977(2) 0.78019(14) -0.27971(10)
H4B H 0.0096 0.7816 -0.3091
C6B C -0.2485(2) 0.83939(13) -0.30203(9)
C7B C -0.4083(2) 0.84375(12) -0.25359(9)
C8B C -0.4098(2) 0.78256(12) -0.18448(10)
C9B C -0.5616(3) 0.79437(14) -0.13380(11)
H5B H -0.5621 0.7569 -0.0878
C10B C -0.7068(3) 0.85928(15) -0.15099(12)
H6B H -0.8057 0.8650 -0.1172
C11B C -0.7077(3) 0.91744(15) -0.21955(12)
H7B H -0.8080 0.9610 -0.2314
C12B C -0.5628(3) 0.91058(14) -0.26884(11)
H8B H -0.5647 0.9506 -0.3137
O5B O 0.25027(15) 0.59099(8) -0.00547(7)
H1B H 0.2414 0.6477 0.0197
H2B H 0.2511 0.6090 -0.0515
Mg1_2 Mg -0.5000 0.5000 0.0000
Mg1A Mg -0.5000 1.0000 -0.5000
Mg1A_2 Mg 0.5000 0.0000 0.5000
Mg2_2 Mg 1.0000 0.5000 0.0000
Mg2A Mg 0.0000 0.0000 0.5000
Mg2A_2 Mg 0.0000 1.0000 -0.5000
O2B_2 O 0.59087(17) 0.59231(9) -0.08749(7)
O3A O -0.08254(16) 0.57144(9) 0.10088(7)
O3C O 0.08254(16) 0.42856(9) -0.10088(7)
O4A O 0.61243(16) 0.59719(9) 0.08172(7)
O4C O 0.38757(16) 0.40281(9) -0.08172(7)
O5_2 O -0.25027(15) 0.40901(8) 0.00547(7)
C13 C 0.6553(4) 0.3198(2) 0.39860(16)
H9 H 0.5415 0.2862 0.3912
C14 C 0.6836(5) 0.4149(2) 0.3636(2)
H10 H 0.5901 0.4452 0.3332
C15 C 0.8518(4) 0.4643(2) 0.37420(19)
H11 H 0.8744 0.5283 0.3509
C16 C 0.9844(4) 0.41833(18) 0.41909(16)
H12 H 1.0992 0.4505 0.4274
C17 C 0.9464(3) 0.32352(16) 0.45208(13)
H13 H 1.0383 0.2920 0.4826
N1 N 0.7845(3) 0.27470(12) 0.44238(10)
loop_
_geom_bond_atom_site_label_1
_geom_bond_atom_site_label_2
_geom_bond_site_symmetry_1
_geom_bond_site_symmetry_2
Mg1 O2 1_555 1_555
Mg2 O1 1_555 1_555
O1 C1 1_555 1_555
O2 C1 1_555 1_555
O3 C2 1_555 1_555
O4 C2 1_555 1_555
O5 Mg1 1_555 1_555
H1 O5 1_555 1_555
H2 O5 1_555 1_555
C1 C3 1_555 1_555
C2 C6 1_555 1_555
C3 C4 1_555 1_555
C4 H3 1_555 1_555
C5 C4 1_555 1_555
H4 C5 1_555 1_555
C6 C5 1_555 1_555
C7 C6 1_555 1_555
C8 C3 1_555 1_555
C9 C8 1_555 1_555
H5 C9 1_555 1_555
C10 C9 1_555 1_555
H6 C10 1_555 1_555
C11 C10 1_555 1_555
H7 C11 1_555 1_555
C12 C7 1_555 1_555
H8 C12 1_555 1_555
C13 H9 1_555 1_555
C14 C13 1_555 1_555
H10 C14 1_555 1_555
C15 C14 1_555 1_555
H11 C15 1_555 1_555
C16 C15 1_555 1_555
H12 C16 1_555 1_555
C17 C16 1_555 1_555
H13 C17 1_555 1_555
N1 C13 1_555 1_555
O1B Mg2 1_555 1_555
O2B C1B 1_555 1_555
O3B C2B 1_555 1_555
O4B C2B 1_555 1_555
C1B O1B 1_555 1_555
C2B C6B 1_555 1_555
C3B C1B 1_555 1_555
C4B C3B 1_555 1_555
H3B C4B 1_555 1_555
C5B C4B 1_555 1_555
H4B C5B 1_555 1_555
C6B C5B 1_555 1_555
C7B C6B 1_555 1_555
C8B C3B 1_555 1_555
C9B C8B 1_555 1_555
H5B C9B 1_555 1_555
C10B C9B 1_555 1_555
H6B C10B 1_555 1_555
C11B C10B 1_555 1_555
H7B C11B 1_555 1_555
C12B C7B 1_555 1_555
H8B C12B 1_555 1_555
O5B Mg1 1_555 1_555
H1B O5B 1_555 1_555
H2B O5B 1_555 1_555
Mg1_2 O2B 1_555 1_555
Mg1A O4B 1_555 1_555
Mg1A_2 O4 1_555 1_555
Mg2_2 O5 1_555 1_555
Mg2A O3 1_555 1_555
Mg2A_2 O3B 1_555 1_555
O2B_2 Mg1 1_555 1_555
O3A Mg2 1_555 1_555
O3C Mg2 1_555 1_555
O4A Mg1 1_555 1_555
O4C Mg1 1_555 1_555
O5_2 Mg2 1_555 1_555
Mg2 O5B 1_555 1_555
C7 C8 1_555 1_555
C11 C12 1_555 1_555
C17 N1 1_555 1_555
C7B C8B 1_555 1_555
C11B C12B 1_555 1_555
Mg1_2 O5_2 1_555 1_555

#END
