
#######################################################################
#
#                 Cambridge Crystallographic Data Centre
#                                CCDC 
#
#######################################################################
#
# If this CIF has been generated from an entry in the Cambridge 
# Structural Database, then it will include bibliographic, chemical, 
# crystal, experimental, refinement or atomic coordinate data resulting 
# from the CCDC's data processing and validation procedures.
#
#######################################################################

data_FOKYEL
_symmetry_cell_setting           triclinic
_symmetry_space_group_name_H-M   'P -1'
_symmetry_Int_Tables_number      2
_space_group_name_Hall           '-P 1'
loop_
_symmetry_equiv_pos_site_id
_symmetry_equiv_pos_as_xyz
1 x,y,z
2 -x,-y,-z
_cell_length_a                   13.392(3)
_cell_length_b                   13.872(3)
_cell_length_c                   22.211(5)
_cell_angle_alpha                74.977(4)
_cell_angle_beta                 89.016(4)
_cell_angle_gamma                76.276(4)
_cell_volume                     3867.1
loop_
_atom_site_label
_atom_site_type_symbol
_atom_site_fract_x
_atom_site_fract_y
_atom_site_fract_z
Pr1 Pr 0.78266(6) 0.37302(6) 0.74185(4)
O1 O 0.6367(9) 0.5177(9) 0.6965(6)
N1 N 0.7402(12) 0.7394(12) 0.5111(7)
C1 C 0.6020(14) 0.6017(14) 0.7057(9)
Pr2 Pr 0.81226(7) 0.69439(7) 0.72399(4)
O2 O 0.6436(9) 0.6664(9) 0.7136(6)
C2 C 0.4848(13) 0.6335(13) 0.7075(8)
N2 N 0.6944(14) 0.8928(12) 0.8639(8)
Pr3 Pr 0.86854(6) 0.09806(6) 0.67511(4)
O3 O 0.9028(10) 0.3903(10) 0.8233(6)
N3 N 1.0624(12) -0.1124(12) 0.5639(7)
C3 C 0.4231(13) 0.5620(13) 0.7062(8)
H1 H 0.4564 0.4940 0.7050
O4 O 0.8350(9) 0.5595(9) 0.8124(6)
C4 C 0.3163(12) 0.5893(13) 0.7066(8)
H2 H 0.2776 0.5416 0.7033
O5 O 0.6360(9) 0.2891(10) 0.7415(6)
C5 C 0.2658(12) 0.6878(13) 0.7120(8)
O6 O 0.8465(9) 0.5217(9) 0.6837(6)
C6 C 0.1580(12) 0.7157(12) 0.7161(8)
H3 H 0.1180 0.6688 0.7135
O7 O -0.0438(9) 0.2928(10) 0.7212(6)
C7 C 0.1101(13) 0.8127(13) 0.7240(8)
O8 O 0.0145(9) 0.1660(9) 0.6728(6)
C8 C 0.1677(13) 0.8855(13) 0.7258(8)
H4 H 0.1335 0.9528 0.7278
O9 O 0.8183(10) 0.2174(10) 0.8258(6)
C9 C 0.2736(13) 0.8581(13) 0.7247(9)
H5 H 0.3124 0.9050 0.7295
C10 C 0.3250(13) 0.7614(13) 0.7164(8)
O10 O 0.8959(11) 0.0827(11) 0.7811(7)
C11 C 0.4343(13) 0.7313(13) 0.7132(8)
H6 H 0.4740 0.7790 0.7149
O11 O 0.9801(9) 0.5843(9) 0.6992(6)
C12 C 0.8908(14) 0.4710(13) 0.8416(9)
O12 O 0.7756(9) 0.3300(10) 0.6412(6)
C13 C 0.9409(15) 0.4651(14) 0.9012(9)
O13 O 0.8028(9) 0.2279(10) 0.5779(6)
C14 C 0.9214(15) 0.5508(14) 0.9253(9)
H7 H 0.8770 0.6138 0.9029
O14 O 0.7171(10) 0.8686(10) 0.6817(6)
C15 C 0.9678(14) 0.5429(13) 0.9825(8)
O15 O 0.6986(9) 0.1497(9) 0.7109(6)
C16 C 1.0510(15) 0.3677(14) 0.9921(9)
H8 H 1.0945 0.3046 1.0150
O16 O 0.7708(10) 1.0069(10) 0.6302(6)
C17 C 1.0073(15) 0.3734(14) 0.9365(9)
H9 H 1.0216 0.3143 0.9208
O17 O -0.0503(9) 0.7644(8) 0.7397(6)
C18 C 0.6275(13) 0.2264(14) 0.7287(9)
O18 O -0.0468(9) 0.9256(9) 0.7319(6)
O19 O 0.8055(9) 0.7377(9) 0.6087(6)
C19 C 0.5202(13) 0.2026(14) 0.7187(8)
C20 C 0.4396(12) 0.2678(13) 0.7395(8)
H10 H 0.4522 0.3182 0.7583
O20 O 0.7445(10) 0.7680(10) 0.8127(6)
O21 O 0.9807(10) 0.0251(10) 0.5967(6)
C21 C 0.3338(13) 0.2569(13) 0.7316(8)
C22 C 0.2514(12) 0.3235(13) 0.7509(8)
H11 H 0.2633 0.3738 0.7700
O22 O 0.6774(10) 0.4213(10) 0.8260(7)
H12 H 0.6128 0.4270 0.8169
H13 H 0.6966 0.3738 0.8608
C23 C 0.1525(13) 0.3147(13) 0.7417(8)
H14 H 0.0958 0.3586 0.7551
C24 C 0.1356(13) 0.2402(13) 0.7121(8)
C25 C 0.2175(12) 0.1742(13) 0.6934(8)
H15 H 0.2052 0.1236 0.6746
C26 C 0.3189(13) 0.1820(13) 0.7022(8)
C27 C 0.4052(13) 0.1153(13) 0.6848(8)
H16 H 0.3948 0.0622 0.6676
C28 C 0.5015(13) 0.1253(14) 0.6920(8)
H17 H 0.5578 0.0802 0.6791
C29 C 0.9348(13) 0.5372(13) 0.6696(9)
C30 C 0.9793(13) 0.5157(13) 0.6100(8)
C31 C 1.0792(13) 0.5312(13) 0.5936(8)
H18 H 1.1214 0.5456 0.6225
C32 C 1.1137(13) 0.5250(13) 0.5357(8)
H19 H 1.1813 0.5317 0.5253
C33 C 0.9510(13) 0.4910(13) 0.5083(8)
C34 C 0.9193(13) 0.4954(13) 0.5682(8)
H20 H 0.8537 0.4838 0.5801
C35 C 0.0242(13) 0.2377(11) 0.6934(8)
C36 C 0.8742(14) 0.1337(14) 0.8275(9)
C37 C 0.9225(15) 0.0649(15) 0.8898(9)
C38 C 0.9356(15) 0.1102(15) 0.9375(9)
H21 H 0.9110 0.1825 0.9303
C39 C 0.9822(15) 0.0546(14) 0.9940(9)
C40 C 1.0069(16) -0.0984(15) 0.9577(9)
H22 H 1.0314 -0.1708 0.9650
C41 C 0.9627(15) -0.0430(15) 0.8998(9)
H23 H 0.9591 -0.0757 0.8676
C42 C 0.7527(13) 0.3091(13) 0.5919(8)
C43 C 0.6633(13) 0.3745(13) 0.5511(8)
C44 C 0.5942(13) 0.4526(13) 0.5671(8)
H24 H 0.6050 0.4666 0.6058
C45 C 0.5079(13) 0.5128(14) 0.5287(8)
C46 C 0.5666(14) 0.4084(14) 0.4547(8)
H25 H 0.5589 0.3945 0.4155
C47 C 0.6483(14) 0.3528(14) 0.4934(8)
H26 H 0.6961 0.2987 0.4820
C48 C 0.7126(14) 0.9466(14) 0.6364(9)
C49 C 0.6303(15) 0.9742(16) 0.5860(10)
C50 C 0.6274(16) 1.0818(17) 0.5394(10)
H27 H 0.6709 1.1245 0.5445
C51 C 0.5572(17) 1.1078(18) 0.4914(11)
H28 H 0.5451 1.1750 0.4641
C52 C 0.4947(16) 0.9551(16) 0.5191(10)
C53 C 0.5691(15) 0.9179(16) 0.5796(10)
H29 H 0.5687 0.8560 0.6103
C54 C -0.0134(12) 0.8390(10) 0.7267(8)
C55 C 0.7519(14) 0.7080(14) 0.5715(9)
H30 H 0.7170 0.6569 0.5912
C56 C 0.6752(17) 0.7012(17) 0.4748(10)
H31 H 0.6639 0.6355 0.4998
H32 H 0.7094 0.6911 0.4367
H33 H 0.6088 0.7513 0.4635
C57 C 0.7844(18) 0.8207(17) 0.4761(10)
H34 H 0.7293 0.8814 0.4574
H35 H 0.8250 0.7978 0.4431
H36 H 0.8291 0.8381 0.5040
C58 C 0.7359(15) 0.8618(15) 0.8153(9)
H37 H 0.7595 0.9087 0.7823
C59 C 0.670(2) 1.0047(17) 0.8632(12)
H38 H 0.7135 1.0398 0.8334
H39 H 0.6845 1.0110 0.9050
H40 H 0.5977 1.0361 0.8508
C60 C 0.671(2) 0.822(2) 0.9211(14)
H41 H 0.6746 0.7550 0.9137
H42 H 0.6011 0.8503 0.9330
H43 H 0.7204 0.8151 0.9549
C61 C 0.9836(15) -0.0596(14) 0.5856(9)
H44 H 0.9244 -0.0867 0.5935
C62 C 1.1545(15) -0.0784(16) 0.5501(9)
H45 H 1.1443 -0.0084 0.5545
H46 H 1.1721 -0.0792 0.5071
H47 H 1.2106 -0.1244 0.5790
C63 C 1.0623(17) -0.2138(15) 0.5547(10)
H48 H 1.1183 -0.2662 0.5805
H49 H 1.0722 -0.2122 0.5106
H50 H 0.9964 -0.2304 0.5667
O3A O 1.0972(10) 0.6097(10) 1.1767(6)
O4A O 1.1650(9) 0.4405(9) 1.1876(6)
C12A C 1.1092(14) 0.5290(13) 1.1584(9)
C13A C 1.0591(15) 0.5349(14) 1.0988(9)
C14A C 1.0786(15) 0.4492(14) 1.0747(9)
H7A H 1.1230 0.3862 1.0971
C15A C 1.0322(14) 0.4571(13) 1.0175(8)
C16A C 0.9490(15) 0.6323(14) 1.0079(9)
H8A H 0.9055 0.6954 0.9850
C17A C 0.9927(15) 0.6266(14) 1.0635(9)
H9A H 0.9784 0.6857 1.0792
O6A O 1.1535(9) 0.4783(9) 0.3163(6)
O11A O 1.0199(9) 0.4157(9) 0.3008(6)
C29A C 1.0652(13) 0.4628(13) 0.3304(9)
C30A C 1.0207(13) 0.4843(13) 0.3900(8)
C31A C 0.9208(13) 0.4688(13) 0.4064(8)
H18A H 0.8786 0.4544 0.3775
C32A C 0.8863(13) 0.4750(13) 0.4643(8)
H19A H 0.8187 0.4683 0.4747
C33A C 1.0490(13) 0.5090(13) 0.4917(8)
C34A C 1.0807(13) 0.5046(13) 0.4318(8)
H20A H 1.1463 0.5162 0.4199
O9A O 1.1817(10) -0.2174(10) 1.1742(6)
O10A O 1.1041(11) -0.0827(11) 1.2189(7)
C36A C 1.1258(14) -0.1337(14) 1.1725(9)
C37A C 1.0775(15) -0.0649(15) 1.1102(9)
C38A C 1.0644(15) -0.1102(15) 1.0625(9)
H21A H 1.0890 -0.1825 1.0697
C39A C 1.0178(15) -0.0546(14) 1.0060(9)
C40A C 0.9931(16) 0.0984(15) 1.0423(9)
H22A H 0.9686 0.1708 1.0350
C41A C 1.0373(15) 0.0430(15) 1.1002(9)
H23A H 1.0409 0.0757 1.1324
O12A O 0.2244(9) 0.6700(10) 0.3588(6)
O13A O 0.1972(9) 0.7721(10) 0.4221(6)
C42A C 0.2473(13) 0.6909(13) 0.4081(8)
C43A C 0.3367(13) 0.6255(13) 0.4489(8)
C44A C 0.4058(13) 0.5474(13) 0.4329(8)
H24A H 0.3950 0.5334 0.3942
C45A C 0.4921(13) 0.4872(14) 0.4713(8)
C46A C 0.4334(14) 0.5916(14) 0.5453(8)
H25A H 0.4411 0.6055 0.5845
C47A C 0.3517(14) 0.6472(14) 0.5066(8)
H26A H 0.3039 0.7013 0.5180
O14A O 0.2829(10) 1.1314(10) 0.3183(6)
O16A O 0.2292(10) 0.9931(10) 0.3698(6)
C48A C 0.2874(14) 1.0534(14) 0.3636(9)
C49A C 0.3697(15) 1.0258(16) 0.4140(10)
C50A C 0.3726(16) 0.9182(17) 0.4606(10)
H27A H 0.3291 0.8755 0.4555
C51A C 0.4428(17) 0.8922(18) 0.5086(11)
H28A H 0.4549 0.8250 0.5359
C52A C 0.5053(16) 1.0449(16) 0.4809(10)
C53A C 0.4309(15) 1.0821(16) 0.4204(10)
H29A H 0.4313 1.1440 0.3897
Pr1A Pr 0.21734(6) 0.62698(6) 0.25815(4)
O1A O 0.3633(9) 0.4823(9) 0.3035(6)
N1A N 0.2598(12) 0.2606(12) 0.4889(7)
C1A C 0.3980(14) 0.3983(14) 0.2943(9)
Pr2A Pr 0.18774(7) 0.30561(7) 0.27601(4)
O2A O 0.3564(9) 0.3336(9) 0.2864(6)
C2A C 0.5152(13) 0.3665(13) 0.2925(8)
N2A N 0.3056(14) 0.1072(12) 0.1361(8)
Pr3A Pr 0.13146(6) 0.90194(6) 0.32489(4)
N3A N -0.0624(12) 1.1124(12) 0.4361(7)
C3A C 0.5769(13) 0.4380(13) 0.2938(8)
H1A H 0.5436 0.5060 0.2950
C4A C 0.6837(12) 0.4107(13) 0.2934(8)
H2A H 0.7224 0.4584 0.2967
O5A O 0.3640(9) 0.7109(10) 0.2585(6)
C5A C 0.7342(12) 0.3122(13) 0.2880(8)
C6A C 0.8420(12) 0.2843(12) 0.2839(8)
H3A H 0.8820 0.3312 0.2865
O7A O 1.0438(9) 0.7072(10) 0.2788(6)
C7A C 0.8899(13) 0.1873(13) 0.2760(8)
O8A O 0.9855(9) 0.8340(9) 0.3272(6)
C8A C 0.8323(13) 0.1145(13) 0.2742(8)
H4A H 0.8665 0.0472 0.2722
C9A C 0.7264(13) 0.1419(13) 0.2753(9)
H5A H 0.6876 0.0950 0.2705
C10A C 0.6750(13) 0.2386(13) 0.2836(8)
C11A C 0.5657(13) 0.2687(13) 0.2868(8)
H6A H 0.5260 0.2210 0.2851
O15A O 0.3014(9) 0.8503(9) 0.2891(6)
O17A O 1.0503(9) 0.2356(8) 0.2603(6)
C18A C 0.3725(13) 0.7736(14) 0.2713(9)
O18A O 1.0468(9) 0.0744(9) 0.2681(6)
O19A O 0.1945(9) 0.2623(9) 0.3913(6)
C19A C 0.4798(13) 0.7974(14) 0.2813(8)
C20A C 0.5604(12) 0.7322(13) 0.2605(8)
H10A H 0.5478 0.6818 0.2417
O20A O 0.2555(10) 0.2320(10) 0.1873(6)
O21A O 0.0193(10) 0.9749(10) 0.4033(6)
C21A C 0.6662(13) 0.7431(13) 0.2684(8)
C22A C 0.7486(12) 0.6765(13) 0.2491(8)
H11A H 0.7367 0.6262 0.2300
O22A O 0.3226(10) 0.5787(10) 0.1740(7)
H12A H 0.3872 0.5730 0.1831
H13A H 0.3034 0.6262 0.1392
C23A C 0.8475(13) 0.6853(13) 0.2583(8)
H14A H 0.9042 0.6414 0.2449
C24A C 0.8644(13) 0.7598(13) 0.2879(8)
C25A C 0.7825(12) 0.8258(13) 0.3066(8)
H15A H 0.7948 0.8764 0.3254
C26A C 0.6811(13) 0.8180(13) 0.2978(8)
C27A C 0.5948(13) 0.8847(13) 0.3152(8)
H16A H 0.6052 0.9378 0.3324
C28A C 0.4985(13) 0.8747(14) 0.3080(8)
H17A H 0.4422 0.9198 0.3209
C35A C 0.9758(13) 0.7623(11) 0.3066(8)
C54A C 1.0134(12) 0.1610(10) 0.2733(8)
C55A C 0.2481(14) 0.2920(14) 0.4285(9)
H30A H 0.2830 0.3431 0.4088
C56A C 0.3248(17) 0.2988(17) 0.5252(10)
H31A H 0.3361 0.3645 0.5002
H32A H 0.2906 0.3089 0.5633
H33A H 0.3912 0.2487 0.5365
C57A C 0.2156(18) 0.1793(17) 0.5239(10)
H34A H 0.2707 0.1186 0.5426
H35A H 0.1750 0.2022 0.5569
H36A H 0.1709 0.1619 0.4960
C58A C 0.2641(15) 0.1382(15) 0.1847(9)
H37A H 0.2405 0.0913 0.2177
C59A C 0.330(2) -0.0047(17) 0.1368(12)
H38A H 0.2865 -0.0398 0.1666
H39A H 0.3155 -0.0110 0.0950
H40A H 0.4023 -0.0361 0.1492
C60A C 0.329(2) 0.178(2) 0.0789(14)
H41A H 0.3254 0.2450 0.0863
H42A H 0.3989 0.1497 0.0670
H43A H 0.2796 0.1849 0.0451
C61A C 0.0164(15) 1.0596(14) 0.4144(9)
H44A H 0.0756 1.0867 0.4065
C62A C -0.1545(15) 1.0784(16) 0.4499(9)
H45A H -0.1443 1.0084 0.4455
H46A H -0.1721 1.0792 0.4929
H47A H -0.2106 1.1244 0.4210
C63A C -0.0623(17) 1.2138(15) 0.4453(10)
H48A H -0.1183 1.2662 0.4195
H49A H -0.0722 1.2122 0.4894
H50A H 0.0036 1.2304 0.4333
Pr1_2 Pr -0.21734(6) 0.37302(6) 0.74185(4)
Pr1A_2 Pr 1.21734(6) -0.37302(6) 1.25815(4)
Pr1A_3 Pr 1.21734(6) 0.62698(6) 0.25815(4)
Pr1A_4 Pr 1.21734(6) 0.62698(6) 1.25815(4)
Pr2_2 Pr -0.18774(7) 0.69439(7) 0.72399(4)
Pr2A_2 Pr 0.18774(7) 1.30561(7) 0.27601(4)
Pr2A_3 Pr 1.18774(7) 0.30561(7) 0.27601(4)
Pr2A_4 Pr 1.18774(7) 0.30561(7) 1.27601(4)
Pr3_2 Pr -0.13146(6) 0.09806(6) 0.67511(4)
Pr3_3 Pr -0.13146(6) 1.09806(6) 0.67511(4)
Pr3_4 Pr 0.86854(6) 1.09806(6) 0.67511(4)
Pr3A_2 Pr 1.13146(6) -0.09806(6) 0.32489(4)
Pr3A_3 Pr 1.13146(6) -0.09806(6) 1.32489(4)
Pr3A_4 Pr 1.13146(6) 0.90194(6) 0.32489(4)
O3A_2 O 0.0972(10) 0.6097(10) 0.1767(6)
O4A_2 O 0.1650(9) 0.4405(9) 0.1876(6)
O6A_2 O 0.1535(9) 0.4783(9) 0.3163(6)
O7_2 O 0.9562(9) 0.2928(10) 0.7212(6)
O7A_2 O 0.0438(9) 0.7072(10) 0.2788(6)
O8_2 O 1.0145(9) 0.1660(9) 0.6728(6)
O8A_2 O -0.0145(9) 0.8340(9) 0.3272(6)
O9A_2 O 0.1817(10) 0.7826(10) 0.1742(6)
O10A_2 O 0.1041(11) 0.9173(11) 0.2189(7)
O11A_2 O 0.0199(9) 0.4157(9) 0.3008(6)
O14A_2 O 0.2829(10) 0.1314(10) 0.3183(6)
O16_2 O 0.7708(10) 0.0069(10) 0.6302(6)
O17_2 O 0.9497(9) 0.7644(8) 0.7397(6)
O17A_2 O 0.0503(9) 0.2356(8) 0.2603(6)
O18_2 O 0.9532(9) -0.0744(9) 0.7319(6)
O18A_2 O 0.0468(9) 1.0744(9) 0.2681(6)
loop_
_geom_bond_atom_site_label_1
_geom_bond_atom_site_label_2
_geom_bond_site_symmetry_1
_geom_bond_site_symmetry_2
Pr1 O1 1_555 1_555
O1 C1 1_555 1_555
N1 C55 1_555 1_555
C1 O2 1_555 1_555
Pr2 O2 1_555 1_555
C2 C1 1_555 1_555
N2 C58 1_555 1_555
Pr3 O10 1_555 1_555
O3 Pr1 1_555 1_555
N3 C61 1_555 1_555
C3 C2 1_555 1_555
H1 C3 1_555 1_555
O4 Pr2 1_555 1_555
C4 C3 1_555 1_555
H2 C4 1_555 1_555
O5 Pr1 1_555 1_555
C5 C4 1_555 1_555
O6 Pr1 1_555 1_555
C6 C5 1_555 1_555
H3 C6 1_555 1_555
O7 C35 1_555 1_555
C7 C6 1_555 1_555
O8 C35 1_555 1_555
C8 C7 1_555 1_555
H4 C8 1_555 1_555
O9 Pr1 1_555 1_555
C9 C8 1_555 1_555
H5 C9 1_555 1_555
C10 C5 1_555 1_555
O10 C36 1_555 1_555
C11 C2 1_555 1_555
H6 C11 1_555 1_555
O11 Pr2 1_555 1_555
C12 O3 1_555 1_555
O12 Pr1 1_555 1_555
C13 C12 1_555 1_555
O13 Pr3 1_555 1_555
C14 C13 1_555 1_555
H7 C14 1_555 1_555
O14 Pr2 1_555 1_555
C15 C14 1_555 1_555
O15 Pr3 1_555 1_555
C16 H8 1_555 1_555
O16 C48 1_555 1_555
C17 C13 1_555 1_555
H9 C17 1_555 1_555
O17 C54 1_555 1_555
C18 O5 1_555 1_555
O18 C54 1_555 1_555
O19 Pr2 1_555 1_555
C19 C18 1_555 1_555
C20 C19 1_555 1_555
H10 C20 1_555 1_555
O20 Pr2 1_555 1_555
O21 Pr3 1_555 1_555
C21 C20 1_555 1_555
C22 C21 1_555 1_555
H11 C22 1_555 1_555
O22 Pr1 1_555 1_555
H12 O22 1_555 1_555
H13 O22 1_555 1_555
C23 C22 1_555 1_555
H14 C23 1_555 1_555
C24 C23 1_555 1_555
C25 C24 1_555 1_555
H15 C25 1_555 1_555
C26 C21 1_555 1_555
C27 C26 1_555 1_555
H16 C27 1_555 1_555
C28 C19 1_555 1_555
H17 C28 1_555 1_555
C29 O6 1_555 1_555
C30 C29 1_555 1_555
C31 C30 1_555 1_555
H18 C31 1_555 1_555
C32 C31 1_555 1_555
H19 C32 1_555 1_555
C33 C34 1_555 1_555
C34 C30 1_555 1_555
H20 C34 1_555 1_555
C35 C24 1_555 1_555
C36 O9 1_555 1_555
C37 C36 1_555 1_555
C38 C37 1_555 1_555
H21 C38 1_555 1_555
C39 C38 1_555 1_555
C40 H22 1_555 1_555
C41 C37 1_555 1_555
H23 C41 1_555 1_555
C42 O12 1_555 1_555
C43 C42 1_555 1_555
C44 C43 1_555 1_555
H24 C44 1_555 1_555
C45 C44 1_555 1_555
C46 H25 1_555 1_555
C47 C43 1_555 1_555
H26 C47 1_555 1_555
C48 O14 1_555 1_555
C49 C48 1_555 1_555
C50 C49 1_555 1_555
H27 C50 1_555 1_555
C51 C50 1_555 1_555
H28 C51 1_555 1_555
C52 C53 1_555 1_555
C53 C49 1_555 1_555
H29 C53 1_555 1_555
C54 C7 1_555 1_555
C55 O19 1_555 1_555
H30 C55 1_555 1_555
C56 N1 1_555 1_555
H31 C56 1_555 1_555
H32 C56 1_555 1_555
H33 C56 1_555 1_555
C57 N1 1_555 1_555
H34 C57 1_555 1_555
H35 C57 1_555 1_555
H36 C57 1_555 1_555
C58 O20 1_555 1_555
H37 C58 1_555 1_555
C59 N2 1_555 1_555
H38 C59 1_555 1_555
H39 C59 1_555 1_555
H40 C59 1_555 1_555
C60 N2 1_555 1_555
H41 C60 1_555 1_555
H42 C60 1_555 1_555
H43 C60 1_555 1_555
C61 O21 1_555 1_555
H44 C61 1_555 1_555
C62 N3 1_555 1_555
H45 C62 1_555 1_555
H46 C62 1_555 1_555
H47 C62 1_555 1_555
C63 N3 1_555 1_555
H48 C63 1_555 1_555
H49 C63 1_555 1_555
H50 C63 1_555 1_555
O3A C12A 1_555 1_555
O4A C12A 1_555 1_555
C12A C13A 1_555 1_555
C13A C14A 1_555 1_555
C14A H7A 1_555 1_555
C15A C15 1_555 1_555
C16A C15 1_555 1_555
H8A C16A 1_555 1_555
C17A C13A 1_555 1_555
H9A C17A 1_555 1_555
O6A C29A 1_555 1_555
O11A C29A 1_555 1_555
C29A C30A 1_555 1_555
C30A C31A 1_555 1_555
C31A H18A 1_555 1_555
C32A C33 1_555 1_555
H19A C32A 1_555 1_555
C33A C32 1_555 1_555
C34A C30A 1_555 1_555
H20A C34A 1_555 1_555
O9A C36A 1_555 1_555
O10A C36A 1_555 1_555
C36A C37A 1_555 1_555
C37A C38A 1_555 1_555
C38A H21A 1_555 1_555
C39A C39 1_555 1_555
C40A C39 1_555 1_555
H22A C40A 1_555 1_555
C41A C37A 1_555 1_555
H23A C41A 1_555 1_555
O12A C42A 1_555 1_555
O13A C42A 1_555 1_555
C42A C43A 1_555 1_555
C43A C44A 1_555 1_555
C44A H24A 1_555 1_555
C45A C45 1_555 1_555
C46A C45 1_555 1_555
H25A C46A 1_555 1_555
C47A C43A 1_555 1_555
H26A C47A 1_555 1_555
O14A C48A 1_555 1_555
O16A C48A 1_555 1_555
C48A C49A 1_555 1_555
C49A C50A 1_555 1_555
C50A H27A 1_555 1_555
C51A C52 1_555 1_555
H28A C51A 1_555 1_555
C52A C51 1_555 1_555
C53A C49A 1_555 1_555
H29A C53A 1_555 1_555
Pr1A O12A 1_555 1_555
O1A Pr1A 1_555 1_555
N1A C55A 1_555 1_555
C1A O1A 1_555 1_555
Pr2A O2A 1_555 1_555
O2A C1A 1_555 1_555
C2A C1A 1_555 1_555
N2A C58A 1_555 1_555
Pr3A O13A 1_555 1_555
N3A C61A 1_555 1_555
C3A C2A 1_555 1_555
H1A C3A 1_555 1_555
C4A C3A 1_555 1_555
H2A C4A 1_555 1_555
O5A Pr1A 1_555 1_555
C5A C4A 1_555 1_555
C6A C5A 1_555 1_555
H3A C6A 1_555 1_555
O7A C35A 1_555 1_555
C7A C6A 1_555 1_555
O8A C35A 1_555 1_555
C8A C7A 1_555 1_555
H4A C8A 1_555 1_555
C9A C8A 1_555 1_555
H5A C9A 1_555 1_555
C10A C5A 1_555 1_555
C11A C2A 1_555 1_555
H6A C11A 1_555 1_555
O15A Pr3A 1_555 1_555
O17A C54A 1_555 1_555
C18A O5A 1_555 1_555
O18A C54A 1_555 1_555
O19A Pr2A 1_555 1_555
C19A C18A 1_555 1_555
C20A C19A 1_555 1_555
H10A C20A 1_555 1_555
O20A Pr2A 1_555 1_555
O21A Pr3A 1_555 1_555
C21A C20A 1_555 1_555
C22A C21A 1_555 1_555
H11A C22A 1_555 1_555
O22A Pr1A 1_555 1_555
H12A O22A 1_555 1_555
H13A O22A 1_555 1_555
C23A C22A 1_555 1_555
H14A C23A 1_555 1_555
C24A C23A 1_555 1_555
C25A C24A 1_555 1_555
H15A C25A 1_555 1_555
C26A C21A 1_555 1_555
C27A C26A 1_555 1_555
H16A C27A 1_555 1_555
C28A C19A 1_555 1_555
H17A C28A 1_555 1_555
C35A C24A 1_555 1_555
C54A C7A 1_555 1_555
C55A O19A 1_555 1_555
H30A C55A 1_555 1_555
C56A N1A 1_555 1_555
H31A C56A 1_555 1_555
H32A C56A 1_555 1_555
H33A C56A 1_555 1_555
C57A N1A 1_555 1_555
H34A C57A 1_555 1_555
H35A C57A 1_555 1_555
H36A C57A 1_555 1_555
C58A O20A 1_555 1_555
H37A C58A 1_555 1_555
C59A N2A 1_555 1_555
H38A C59A 1_555 1_555
H39A C59A 1_555 1_555
H40A C59A 1_555 1_555
C60A N2A 1_555 1_555
H41A C60A 1_555 1_555
H42A C60A 1_555 1_555
H43A C60A 1_555 1_555
C61A O21A 1_555 1_555
H44A C61A 1_555 1_555
C62A N3A 1_555 1_555
H45A C62A 1_555 1_555
H46A C62A 1_555 1_555
H47A C62A 1_555 1_555
C63A N3A 1_555 1_555
H48A C63A 1_555 1_555
H49A C63A 1_555 1_555
H50A C63A 1_555 1_555
Pr1_2 O7 1_555 1_555
Pr1A_2 O9A 1_555 1_555
Pr1A_3 O6A 1_555 1_555
Pr1A_4 O3A 1_555 1_555
Pr2_2 O17 1_555 1_555
Pr2A_2 O14A 1_555 1_555
Pr2A_3 O6A 1_555 1_555
Pr2A_4 O4A 1_555 1_555
Pr3_2 O8 1_555 1_555
Pr3_3 O18 1_555 1_555
Pr3_4 O16 1_555 1_555
Pr3A_2 O18A 1_555 1_555
Pr3A_3 O10A 1_555 1_555
Pr3A_4 O8A 1_555 1_555
O3A_2 Pr1A 1_555 1_555
O4A_2 Pr2A 1_555 1_555
O6A_2 Pr1A 1_555 1_555
O7_2 Pr1 1_555 1_555
O7A_2 Pr1A 1_555 1_555
O8_2 Pr3 1_555 1_555
O8A_2 Pr3A 1_555 1_555
O9A_2 Pr1A 1_555 1_555
O10A_2 Pr3A 1_555 1_555
O11A_2 Pr2A 1_555 1_555
O14A_2 Pr2A 1_555 1_555
O16_2 Pr3 1_555 1_555
O17_2 Pr2 1_555 1_555
O17A_2 Pr2A 1_555 1_555
O18_2 Pr3 1_555 1_555
O18A_2 Pr3A 1_555 1_555
Pr2 O6 1_555 1_555
O4 C12 1_555 1_555
C9 C10 1_555 1_555
C10 C11 1_555 1_555
O11 C29 1_555 1_555
O13 C42 1_555 1_555
O15 C18 1_555 1_555
C16 C17 1_555 1_555
C16 C15A 1_555 1_555
C25 C26 1_555 1_555
C27 C28 1_555 1_555
C33 C33A 1_555 1_555
C40 C41 1_555 1_555
C40 C39A 1_555 1_555
C46 C47 1_555 1_555
C46 C45A 1_555 1_555
C52 C52A 1_555 1_555
C14A C15A 1_555 1_555
C16A C17A 1_555 1_555
O11A Pr2A_3 1_555 1_555
C31A C32A 1_555 1_555
C33A C34A 1_555 1_555
C38A C39A 1_555 1_555
C40A C41A 1_555 1_555
C44A C45A 1_555 1_555
C46A C47A 1_555 1_555
O16A Pr3A 1_555 1_555
C50A C51A 1_555 1_555
C52A C53A 1_555 1_555
Pr2A O6A_2 1_555 1_555
O7A Pr1A_3 1_555 1_555
C9A C10A 1_555 1_555
C10A C11A 1_555 1_555
O15A C18A 1_555 1_555
O17A Pr2A_3 1_555 1_555
C25A C26A 1_555 1_555
C27A C28A 1_555 1_555

#END
