
#######################################################################
#
#                 Cambridge Crystallographic Data Centre
#                                CCDC 
#
#######################################################################
#
# If this CIF has been generated from an entry in the Cambridge 
# Structural Database, then it will include bibliographic, chemical, 
# crystal, experimental, refinement or atomic coordinate data resulting 
# from the CCDC's data processing and validation procedures.
#
#######################################################################

data_FOMWOV
_symmetry_cell_setting           monoclinic
_symmetry_space_group_name_H-M   'C 2/c'
_symmetry_Int_Tables_number      15
_space_group_name_Hall           '-C 2yn'
loop_
_symmetry_equiv_pos_site_id
_symmetry_equiv_pos_as_xyz
1 x,y,z
2 -x,y,1/2-z
3 1/2+x,1/2+y,z
4 1/2-x,1/2+y,1/2-z
5 -x,-y,-z
6 x,-y,1/2+z
7 1/2-x,1/2-y,-z
8 1/2+x,1/2-y,1/2+z
_cell_length_a                   38.596(8)
_cell_length_b                   15.279(3)
_cell_length_c                   23.600(5)
_cell_angle_alpha                90
_cell_angle_beta                 101.29(3)
_cell_angle_gamma                90
_cell_volume                     13647.8
loop_
_atom_site_label
_atom_site_type_symbol
_atom_site_fract_x
_atom_site_fract_y
_atom_site_fract_z
N4 N 0.1689(4) 0.5949(12) 0.7211(5)
H17 H 0.1797 0.6004 0.6908
H18 H 0.1774 0.5478 0.7422
C46 C 0.1721(4) 0.6830(11) 0.7598(7)
H19 H 0.1502 0.6937 0.7719
H20 H 0.1775 0.7317 0.7373
H21 H 0.1906 0.6760 0.7932
C47 C 0.1281(7) 0.591(2) 0.7017(12)
H22 H 0.1191 0.5418 0.7196
H23 H 0.1221 0.5849 0.6604
H24 H 0.1179 0.6439 0.7130
N5 N 0.2190(6) 0.0189(11) 0.1451(7)
C48 C 0.1961(5) -0.0033(14) 0.0884(9)
C49 C 0.2011(6) 0.0920(18) 0.1650(8)
O19 O 0.2761(4) -0.0098(10) 0.2146(6)
C50 C 0.2553(6) -0.0428(17) 0.1808(10)
O20 O 0.1027(3) 0.5906(7) 0.9486(3)
N6 N 0.0965(4) 0.4590(14) 0.9838(10)
C51 C 0.1305(6) 0.4671(17) 1.0223(10)
C52 C 0.0849(6) 0.5258(18) 0.9322(10)
C53 C 0.0952(8) 0.3647(19) 0.9543(12)
Zn1 Zn 0.256031(15) 0.87902(5) 0.37174(3)
Zn2 Zn 0.186819(15) 0.99616(5) 0.30468(3)
C1 C 0.20455(15) 0.7681(4) 0.2122(2)
C2 C 0.22564(14) 0.6967(4) 0.2087(2)
H1 H 0.2463 0.6891 0.2360
C3 C 0.21646(15) 0.6362(4) 0.1650(2)
C4 C 0.18606(15) 0.6485(4) 0.1246(3)
H2 H 0.1793 0.6078 0.0952
C5 C 0.16590(16) 0.7203(5) 0.1277(3)
C6 C 0.17420(15) 0.7800(5) 0.1704(3)
H3 H 0.1598 0.8284 0.1717
C7 C 0.21391(15) 0.8328(4) 0.2605(3)
C8 C 0.23834(17) 0.5565(4) 0.1630(3)
C9 C 0.13757(19) 0.7909(5) 0.0381(3)
C10 C 0.10614(16) 0.8102(4) -0.0056(3)
C11 C 0.10838(19) 0.8676(5) -0.0483(3)
H4 H 0.1297 0.8947 -0.0499
C12 C 0.0777(2) 0.8860(5) -0.0906(3)
H5 H 0.0791 0.9251 -0.1203
C13 C 0.04616(18) 0.8463(5) -0.0881(3)
C14 C 0.01518(19) 0.8611(5) -0.1330(3)
C15 C -0.01907(19) 0.7609(7) -0.0842(3)
C16 C 0.01206(17) 0.7450(6) -0.0393(3)
C17 C 0.01065(18) 0.6891(7) 0.0052(3)
H6 H -0.0104 0.6614 0.0078
C18 C 0.0411(2) 0.6736(7) 0.0470(3)
H7 H 0.0398 0.6363 0.0776
C19 C 0.07219(17) 0.7112(5) 0.0441(3)
C20 C 0.10351(19) 0.6895(6) 0.0884(3)
C21 C 0.07485(16) 0.7694(5) 0.0000(3)
C22 C 0.04397(16) 0.7878(5) -0.0427(3)
C23 C -0.04383(15) 0.8145(5) -0.1801(3)
C24 C -0.04172(16) 0.7557(5) -0.2234(3)
H8 H -0.0225 0.7181 -0.2202
C25 C -0.06838(15) 0.7532(4) -0.2713(3)
C26 C -0.09611(15) 0.8123(5) -0.2746(3)
H9 H -0.1145 0.8110 -0.3066
C27 C -0.09690(15) 0.8718(5) -0.2322(3)
C28 C -0.07017(16) 0.8740(5) -0.1841(3)
H10 H -0.0702 0.9152 -0.1551
C29 C -0.0668(2) 0.6911(5) -0.3185(3)
C30 C -0.1267(2) 0.9385(7) -0.2394(4)
C31 C 0.16767(12) 0.8696(4) 0.4540(2)
C32 C 0.13454(14) 0.9025(4) 0.4554(3)
H11 H 0.1241 0.9438 0.4284
C33 C 0.11724(13) 0.8730(5) 0.4977(3)
C34 C 0.13239(14) 0.8143(4) 0.5384(3)
H12 H 0.1203 0.7960 0.5667
C35 C 0.16572(13) 0.7817(4) 0.5378(2)
C36 C 0.18301(13) 0.8113(4) 0.4951(2)
H13 H 0.2056 0.7908 0.4946
C37 C 0.18668(14) 0.9014(4) 0.4086(2)
C38 C 0.18316(14) 0.7195(4) 0.5818(3)
C39 C 0.05400(16) 0.8763(5) 0.4597(3)
C40 C 0.01998(15) 0.9168(4) 0.4593(3)
C41 C -0.00882(17) 0.8897(5) 0.4202(3)
H14 H -0.0067 0.8466 0.3933
C42 C 0.04246(15) 1.0710(5) 0.5786(3)
H15 H 0.0622 1.0878 0.6058
C43 C 0.04578(14) 1.0106(4) 0.5390(3)
C44 C 0.08136(15) 0.9736(5) 0.5386(3)
C45 C 0.01651(13) 0.9812(4) 0.4990(3)
N1 N 0.13421(14) 0.7355(4) 0.0833(2)
N2 N -0.01504(13) 0.8143(4) -0.1293(2)
N3 N 0.08242(12) 0.9092(4) 0.4998(2)
O1 O 0.24125(10) 0.8207(3) 0.29768(16)
O2 O 0.19257(10) 0.8947(3) 0.26049(17)
O3 O 0.22394(10) 0.4899(3) 0.13819(19)
O4 O 0.27044(11) 0.5640(3) 0.1863(2)
O5 O -0.04005(15) 0.6538(4) -0.3221(3)
O6 O -0.09545(14) 0.6864(4) -0.3558(2)
H16 H -0.0931 0.6509 -0.3809
O7 O -0.15213(12) 0.9221(3) -0.2786(2)
O8 O -0.1244(2) 1.0018(6) -0.2094(4)
O9 O 0.10388(13) 0.6392(5) 0.1270(2)
O10 O 0.16563(14) 0.8231(4) 0.0363(2)
O11 O 0.01544(15) 0.9119(4) -0.1718(2)
O12 O -0.04707(14) 0.7283(5) -0.0828(2)
O13 O 0.21646(10) 0.8702(3) 0.40931(19)
O14 O 0.17253(10) 0.9573(3) 0.37370(18)
O15 O 0.21411(9) 0.6985(3) 0.57949(16)
O16 O 0.16765(12) 0.6913(4) 0.6185(2)
O17 O 0.10763(11) 1.0003(4) 0.5692(2)
O18 O 0.05796(12) 0.8199(4) 0.4268(3)
C31D C -0.16767(12) 1.1304(4) 0.5460(2)
C32D C -0.13454(14) 1.0975(4) 0.5446(3)
H11D H -0.1241 1.0562 0.5716
C33D C -0.11724(13) 1.1270(5) 0.5023(3)
C34D C -0.13239(14) 1.1857(4) 0.4616(3)
H12D H -0.1203 1.2040 0.4333
C35D C -0.16572(13) 1.2183(4) 0.4622(2)
C36D C -0.18301(13) 1.1887(4) 0.5049(2)
H13D H -0.2056 1.2092 0.5054
C37D C -0.18668(14) 1.0986(4) 0.5914(2)
C38D C -0.18316(14) 1.2805(4) 0.4182(3)
C39D C -0.05400(16) 1.1237(5) 0.5403(3)
C40D C -0.01998(15) 1.0832(4) 0.5407(3)
C41D C 0.00882(17) 1.1103(5) 0.5798(3)
H14D H 0.0067 1.1534 0.6067
C42D C -0.04246(15) 0.9290(5) 0.4214(3)
H15D H -0.0622 0.9122 0.3942
C43D C -0.04578(14) 0.9894(4) 0.4610(3)
C44D C -0.08136(15) 1.0264(5) 0.4614(3)
C45D C -0.01651(13) 1.0188(4) 0.5010(3)
N3D N -0.08242(12) 1.0908(4) 0.5002(2)
O13D O -0.21646(10) 1.1298(3) 0.59069(19)
O14D O -0.17253(10) 1.0427(3) 0.62630(18)
O15D O -0.21411(9) 1.3015(3) 0.42051(16)
O16D O -0.16765(12) 1.3087(4) 0.3815(2)
O17D O -0.10763(11) 0.9997(4) 0.4308(2)
O18D O -0.05796(12) 1.1801(4) 0.5732(3)
Zn1D Zn -0.256031(15) 1.12098(5) -0.37174(3)
Zn2D Zn -0.186819(15) 1.00384(5) -0.30468(3)
C1D C -0.20455(15) 1.2319(4) -0.2122(2)
C2D C -0.22564(14) 1.3033(4) -0.2087(2)
H1D H -0.2463 1.3109 -0.2360
C3D C -0.21646(15) 1.3638(4) -0.1650(2)
C4D C -0.18606(15) 1.3515(4) -0.1246(3)
H2D H -0.1793 1.3922 -0.0952
C5D C -0.16590(16) 1.2797(5) -0.1277(3)
C6D C -0.17420(15) 1.2200(5) -0.1704(3)
H3D H -0.1598 1.1716 -0.1717
C7D C -0.21391(15) 1.1672(4) -0.2605(3)
C8D C -0.23834(17) 1.4435(4) -0.1630(3)
C9D C -0.13757(19) 1.2091(5) -0.0381(3)
C10D C -0.10614(16) 1.1898(4) 0.0056(3)
C11D C -0.10838(19) 1.1324(5) 0.0483(3)
H4D H -0.1297 1.1053 0.0499
C12D C -0.0777(2) 1.1140(5) 0.0906(3)
H5D H -0.0791 1.0749 0.1203
C13D C -0.04616(18) 1.1537(5) 0.0881(3)
C14D C -0.01518(19) 1.1389(5) 0.1330(3)
C15D C 0.01907(19) 1.2391(7) 0.0842(3)
C16D C -0.01206(17) 1.2550(6) 0.0393(3)
C17D C -0.01065(18) 1.3109(7) -0.0052(3)
H6D H 0.0104 1.3386 -0.0078
C18D C -0.0411(2) 1.3264(7) -0.0470(3)
H7D H -0.0398 1.3637 -0.0776
C19D C -0.07219(17) 1.2888(5) -0.0441(3)
C20D C -0.10351(19) 1.3105(6) -0.0884(3)
C21D C -0.07485(16) 1.2306(5) 0.0000(3)
C22D C -0.04397(16) 1.2122(5) 0.0427(3)
C23D C 0.04383(15) 1.1855(5) 0.1801(3)
C24D C 0.04172(16) 1.2443(5) 0.2234(3)
H8D H 0.0225 1.2819 0.2202
C25D C 0.06838(15) 1.2468(4) 0.2713(3)
C26D C 0.09611(15) 1.1877(5) 0.2746(3)
H9D H 0.1145 1.1890 0.3066
C27D C 0.09690(15) 1.1282(5) 0.2322(3)
C28D C 0.07017(16) 1.1260(5) 0.1841(3)
H10D H 0.0702 1.0848 0.1551
C29D C 0.0668(2) 1.3089(5) 0.3185(3)
C30D C 0.1267(2) 1.0615(7) 0.2394(4)
N1D N -0.13421(14) 1.2645(4) -0.0833(2)
N2D N 0.01504(13) 1.1857(4) 0.1293(2)
O1D O -0.24125(10) 1.1793(3) -0.29768(16)
O2D O -0.19257(10) 1.1053(3) -0.26049(17)
O3D O -0.22394(10) 1.5101(3) -0.13819(19)
O4D O -0.27044(11) 1.4360(3) -0.1863(2)
O5D O 0.04005(15) 1.3462(4) 0.3221(3)
O6D O 0.09545(14) 1.3136(4) 0.3558(2)
H16D H 0.0931 1.3491 0.3809
O7D O 0.15213(12) 1.0779(3) 0.2786(2)
O8D O 0.1244(2) 0.9982(6) 0.2094(4)
O9D O -0.10388(13) 1.3608(5) -0.1270(2)
O10D O -0.16563(14) 1.1769(4) -0.0363(2)
O11D O -0.01544(15) 1.0881(4) 0.1718(2)
O12D O 0.04707(14) 1.2717(5) 0.0828(2)
Zn1B Zn -0.243969(15) 1.37902(5) 0.37174(3)
Zn1C Zn 0.243969(15) 0.37902(5) 0.12826(3)
Zn1D_2 Zn -0.256031(15) 1.12098(5) 0.62826(3)
Zn1F Zn 0.243969(15) 0.62098(5) 0.62826(3)
Zn1G Zn -0.243969(15) 1.62098(5) -0.12826(3)
Zn2C Zn 0.313181(15) 0.49616(5) 0.19532(3)
Zn2D_2 Zn -0.186819(15) 1.00384(5) 0.69532(3)
Zn2G Zn -0.313181(15) 1.50384(5) -0.19532(3)
O3C O 0.27606(10) 0.9899(3) 0.36181(19)
O3G O -0.27606(10) 1.0101(3) -0.36181(19)
O4C O 0.22956(11) 1.0640(3) 0.3137(2)
O4G O -0.22956(11) 0.9360(3) -0.3137(2)
O13D_2 O -0.21646(10) 1.1298(3) -0.40931(19)
O14D_2 O -0.17253(10) 1.0427(3) -0.37370(18)
O15B O -0.28589(9) 1.1985(3) -0.42051(16)
O15F O 0.28589(9) 0.8015(3) 0.42051(16)
loop_
_geom_bond_atom_site_label_1
_geom_bond_atom_site_label_2
_geom_bond_site_symmetry_1
_geom_bond_site_symmetry_2
Zn1 O1 1_555 1_555
Zn2 O2 1_555 1_555
C1 C2 1_555 1_555
C2 H1 1_555 1_555
C3 C2 1_555 1_555
C4 C3 1_555 1_555
H2 C4 1_555 1_555
C5 C4 1_555 1_555
C6 C1 1_555 1_555
H3 C6 1_555 1_555
C7 C1 1_555 1_555
C8 C3 1_555 1_555
C9 C10 1_555 1_555
C10 C11 1_555 1_555
C11 H4 1_555 1_555
C12 C11 1_555 1_555
H5 C12 1_555 1_555
C13 C12 1_555 1_555
C14 C13 1_555 1_555
C15 C16 1_555 1_555
C16 C17 1_555 1_555
C17 H6 1_555 1_555
C18 C17 1_555 1_555
H7 C18 1_555 1_555
C19 C18 1_555 1_555
C20 C19 1_555 1_555
C21 C10 1_555 1_555
C22 C13 1_555 1_555
C23 C24 1_555 1_555
C24 H8 1_555 1_555
C25 C24 1_555 1_555
C26 C25 1_555 1_555
H9 C26 1_555 1_555
C27 C26 1_555 1_555
C28 C23 1_555 1_555
H10 C28 1_555 1_555
C29 C25 1_555 1_555
C30 C27 1_555 1_555
C31 C32 1_555 1_555
C32 H11 1_555 1_555
C33 C32 1_555 1_555
C34 C33 1_555 1_555
H12 C34 1_555 1_555
C35 C34 1_555 1_555
C36 C31 1_555 1_555
H13 C36 1_555 1_555
C37 C31 1_555 1_555
C38 C35 1_555 1_555
C39 C40 1_555 1_555
C40 C41 1_555 1_555
C41 H14 1_555 1_555
C42 H15 1_555 1_555
C43 C42 1_555 1_555
C44 C43 1_555 1_555
C45 C40 1_555 1_555
N1 C5 1_555 1_555
N2 C14 1_555 1_555
N3 C33 1_555 1_555
O1 C7 1_555 1_555
O2 C7 1_555 1_555
O3 C8 1_555 1_555
O4 C8 1_555 1_555
O5 C29 1_555 1_555
O6 C29 1_555 1_555
H16 O6 1_555 1_555
O7 C30 1_555 1_555
O8 C30 1_555 1_555
O9 C20 1_555 1_555
O10 C9 1_555 1_555
O11 C14 1_555 1_555
O12 C15 1_555 1_555
O13 Zn1 1_555 1_555
O14 Zn2 1_555 1_555
O15 C38 1_555 1_555
O16 C38 1_555 1_555
O17 C44 1_555 1_555
O18 C39 1_555 1_555
N4 H17 1_555 1_555
H18 N4 1_555 1_555
C46 N4 1_555 1_555
H19 C46 1_555 1_555
H20 C46 1_555 1_555
H21 C46 1_555 1_555
C47 N4 1_555 1_555
H22 C47 1_555 1_555
H23 C47 1_555 1_555
H24 C47 1_555 1_555
N5 C48 1_555 1_555
C49 N5 1_555 1_555
O19 C50 1_555 1_555
C50 N5 1_555 1_555
O20 C52 1_555 1_555
N6 C51 1_555 1_555
C52 N6 1_555 1_555
C53 N6 1_555 1_555
C31D C32D 1_555 1_555
C32D H11D 1_555 1_555
C33D C32D 1_555 1_555
C34D C33D 1_555 1_555
H12D C34D 1_555 1_555
C35D C34D 1_555 1_555
C36D C31D 1_555 1_555
H13D C36D 1_555 1_555
C37D C31D 1_555 1_555
C38D C35D 1_555 1_555
C39D C40D 1_555 1_555
C40D C41D 1_555 1_555
C41D C42 1_555 1_555
H14D C41D 1_555 1_555
C42D C41 1_555 1_555
H15D C42D 1_555 1_555
C43D C42D 1_555 1_555
C44D C43D 1_555 1_555
C45D C45 1_555 1_555
N3D C33D 1_555 1_555
O13D C37D 1_555 1_555
O14D C37D 1_555 1_555
O15D C38D 1_555 1_555
O16D C38D 1_555 1_555
O17D C44D 1_555 1_555
O18D C39D 1_555 1_555
Zn1D O1D 1_555 1_555
Zn2D O7 1_555 1_555
C1D C2D 1_555 1_555
C2D H1D 1_555 1_555
C3D C2D 1_555 1_555
C4D C3D 1_555 1_555
H2D C4D 1_555 1_555
C5D C4D 1_555 1_555
C6D C1D 1_555 1_555
H3D C6D 1_555 1_555
C7D C1D 1_555 1_555
C8D C3D 1_555 1_555
C9D C10D 1_555 1_555
C10D C11D 1_555 1_555
C11D H4D 1_555 1_555
C12D C11D 1_555 1_555
H5D C12D 1_555 1_555
C13D C12D 1_555 1_555
C14D C13D 1_555 1_555
C15D C16D 1_555 1_555
C16D C17D 1_555 1_555
C17D H6D 1_555 1_555
C18D C17D 1_555 1_555
H7D C18D 1_555 1_555
C19D C18D 1_555 1_555
C20D C19D 1_555 1_555
C21D C10D 1_555 1_555
C22D C13D 1_555 1_555
C23D C24D 1_555 1_555
C24D H8D 1_555 1_555
C25D C24D 1_555 1_555
C26D C25D 1_555 1_555
H9D C26D 1_555 1_555
C27D C26D 1_555 1_555
C28D C23D 1_555 1_555
H10D C28D 1_555 1_555
C29D C25D 1_555 1_555
C30D C27D 1_555 1_555
N1D C5D 1_555 1_555
N2D C14D 1_555 1_555
O1D C7D 1_555 1_555
O2D Zn2D 1_555 1_555
O3D C8D 1_555 1_555
O4D C8D 1_555 1_555
O5D C29D 1_555 1_555
O6D C29D 1_555 1_555
H16D O6D 1_555 1_555
O7D Zn2 1_555 1_555
O8D C30D 1_555 1_555
O9D C20D 1_555 1_555
O10D C9D 1_555 1_555
O11D C14D 1_555 1_555
O12D C15D 1_555 1_555
Zn1B O15D 1_555 1_555
Zn1C O3 1_555 1_555
Zn1D_2 O13D 1_555 1_555
Zn1F O15 1_555 1_555
Zn1G O3D 1_555 1_555
Zn2C O4 1_555 1_555
Zn2D_2 O14D 1_555 1_555
Zn2G O4D 1_555 1_555
O3C Zn1 1_555 1_555
O3G Zn1D 1_555 1_555
O4C Zn2 1_555 1_555
O4G Zn2D 1_555 1_555
O13D_2 Zn1D 1_555 1_555
O14D_2 Zn2D 1_555 1_555
O15B Zn1D 1_555 1_555
O15F Zn1 1_555 1_555
C5 C6 1_555 1_555
C9 N1 1_555 1_555
C15 N2 1_555 1_555
C16 C22 1_555 1_555
C19 C21 1_555 1_555
C20 N1 1_555 1_555
C21 C22 1_555 1_555
C23 N2 1_555 1_555
C27 C28 1_555 1_555
C35 C36 1_555 1_555
C37 O13 1_555 1_555
C37 O14 1_555 1_555
C39 N3 1_555 1_555
C43 C45 1_555 1_555
C44 N3 1_555 1_555
C35D C36D 1_555 1_555
C39D N3D 1_555 1_555
C40D C45D 1_555 1_555
C43D C45D 1_555 1_555
C44D N3D 1_555 1_555
C5D C6D 1_555 1_555
C7D O2D 1_555 1_555
C9D N1D 1_555 1_555
C15D N2D 1_555 1_555
C16D C22D 1_555 1_555
C19D C21D 1_555 1_555
C20D N1D 1_555 1_555
C21D C22D 1_555 1_555
C23D N2D 1_555 1_555
C27D C28D 1_555 1_555
C30D O7D 1_555 1_555

#END
