
#######################################################################
#
#                 Cambridge Crystallographic Data Centre
#                                CCDC 
#
#######################################################################
#
# If this CIF has been generated from an entry in the Cambridge 
# Structural Database, then it will include bibliographic, chemical, 
# crystal, experimental, refinement or atomic coordinate data resulting 
# from the CCDC's data processing and validation procedures.
#
#######################################################################

data_FOSTUE
_symmetry_cell_setting           rhombohedral
_symmetry_space_group_name_H-M   'R -3'
_symmetry_Int_Tables_number      148
_space_group_name_Hall           '-R 3'
loop_
_symmetry_equiv_pos_site_id
_symmetry_equiv_pos_as_xyz
1 x,y,z
2 -y,x-y,z
3 -x+y,-x,z
4 2/3+x,1/3+y,1/3+z
5 2/3-y,1/3+x-y,1/3+z
6 2/3-x+y,1/3-x,1/3+z
7 1/3+x,2/3+y,2/3+z
8 1/3-y,2/3+x-y,2/3+z
9 1/3-x+y,2/3-x,2/3+z
10 -x,-y,-z
11 y,-x+y,-z
12 x-y,x,-z
13 1/3-x,2/3-y,2/3-z
14 1/3+y,2/3-x+y,2/3-z
15 1/3+x-y,2/3+x,2/3-z
16 2/3-x,1/3-y,1/3-z
17 2/3+y,1/3-x+y,1/3-z
18 2/3+x-y,1/3+x,1/3-z
_cell_length_a                   44.1252(8)
_cell_length_b                   44.1252(8)
_cell_length_c                   42.2961(9)
_cell_angle_alpha                90
_cell_angle_beta                 90
_cell_angle_gamma                120
_cell_volume                     71318.8
loop_
_atom_site_label
_atom_site_type_symbol
_atom_site_fract_x
_atom_site_fract_y
_atom_site_fract_z
O17 O 0.7906(5) 0.9273(5) 0.9870(5)
O18 O 0.7671(7) 0.9068(5) 1.0076(5)
O19 O 0.7255(5) 0.0797(5) 0.0022(4)
O20 O 0.8529(4) 0.0590(4) 0.8592(4)
O21 O 0.8016(6) 0.0381(5) 0.8095(6)
O22 O 0.6837(6) 0.9559(7) 0.0001(6)
O23 O 0.9231(6) 0.1077(5) 0.8711(5)
O24 O 0.8729(6) 0.0285(6) 0.0570(6)
O25 O 0.9082(7) 0.2423(7) 0.9948(6)
O26 O 0.9564(6) 0.2680(7) 0.6813(6)
O27 O 0.0245(5) 0.9964(5) 0.7840(5)
O28 O 1.0000 1.0000 0.8671(5)
C73 C 0.9976(5) 0.9677(2) 0.8695(5)
C74 C 0.9620(5) 0.9448(7) 0.8701(7)
C73A C 1.0323(2) 1.0299(5) 0.8695(5)
C74A C 1.0552(7) 1.0172(9) 0.8701(7)
C73B C 0.9701(5) 1.0024(5) 0.8695(5)
C74B C 0.9828(9) 1.0380(5) 0.8701(7)
In1 In 0.801380(11) 0.040429(12) 0.959054(10)
O1 O 0.82457(10) 0.07384(11) 0.91413(9)
O2 O 0.82316(11) 0.09836(11) 0.95823(10)
O3 O 0.77823(10) -0.00029(11) 0.99811(9)
O4 O 0.79318(11) 0.05293(11) 1.00926(9)
O5 O 0.82779(10) 0.01057(10) 0.94289(9)
O6 O 0.85507(10) 0.05389(10) 0.97612(9)
O7 O 0.74917(20) 0.03796(12) 0.94825(9)
O8 O 0.76123(19) -0.00037(11) 0.92634(10)
C1 C 0.83202(13) 0.10193(15) 0.92934(17)
C2 C 0.78124(14) 0.02156(16) 1.01837(13)
C3 C 0.85485(14) 0.02913(16) 0.95998(13)
C4 C 0.84931(8) 0.13598(6) 0.91374(7)
C5 C 0.77181(15) 0.01249(15) 1.05155(13)
C6 C 0.88460(13) 0.02306(13) 0.95972(12)
C7 C 0.86029(9) 0.16558(7) 0.93243(6)
C8 C 0.85441(9) 0.13938(5) 0.88122(7)
C9 C 0.76025(17) -0.02118(17) 1.06228(15)
C10 C 0.77547(19) 0.03815(19) 1.07287(15)
C11 C 0.88172(15) -0.00596(15) 0.94391(13)
C12 C 0.91601(14) 0.04631(15) 0.97499(13)
H1 H 0.8569 0.1633 0.9542
C13 C 0.87636(8) 0.19857(7) 0.91859(5)
C14 C 0.87048(8) 0.17237(5) 0.86738(6)
H2 H 0.8471 0.1196 0.8687
H3 H 0.7587 -0.0381 1.0482
C15 C 0.75099(19) -0.03023(18) 1.09336(15)
C16 C 0.76647(19) 0.02907(18) 1.10404(15)
H4 H 0.7839 0.0611 1.0662
H5 H 0.8612 -0.0213 0.9334
C17 C 0.90923(14) -0.01154(14) 0.94407(13)
C18 C 0.94342(14) 0.04039(14) 0.97381(13)
H6 H 0.9181 0.0656 0.9858
H7 H 0.8837 0.2184 0.9311
C19 C 0.88146(5) 0.20196(5) 0.88606(5)
H8 H 0.8739 0.1746 0.8456
H9 H 0.7427 -0.0531 1.1000
C20 C 0.7541(2) -0.00489(19) 1.11468(13)
H10 H 0.7687 0.0461 1.1183
H11 H 0.9067 -0.0315 0.9342
C21 C 0.94149(13) 0.01159(13) 0.95851(12)
H12 H 0.9643 0.0562 0.9836
C22 C 0.90016(6) 0.23783(5) 0.87137(5)
C23 C 0.7438(2) -0.01355(17) 1.14920(14)
C24 C 0.97184(13) 0.00614(12) 0.95708(12)
C25 C 0.89170(8) 0.24250(6) 0.84078(6)
C26 C 0.92677(8) 0.26586(6) 0.88768(6)
C27 C 0.74996(18) -0.03761(17) 1.16433(14)
C28 C 0.7289(2) 0.00304(19) 1.16438(15)
C29 C 1.00567(13) 0.03337(12) 0.95756(12)
H13 H 0.8739 0.2238 0.8299
C30 C 0.90988(10) 0.27519(7) 0.82650(7)
C31 C 0.94495(10) 0.29855(6) 0.87339(8)
H14 H 0.9324 0.2627 0.9081
H15 H 0.7609 -0.0480 1.1538
C32 C 0.7395(2) -0.04611(18) 1.19592(15)
C33 C 0.7185(2) -0.00482(18) 1.19603(14)
H16 H 0.7257 0.0196 1.1537
H17 H 1.0096 0.0561 0.9582
C34 C 0.93650(10) 0.30322(6) 0.84280(8)
C35 C 0.9025(2) 0.27993(19) 0.79279(16)
C36 C 0.97238(14) 0.32888(14) 0.89147(13)
C37 C 0.7238(2) -0.02952(19) 1.21122(15)
C38 C 0.74628(15) -0.07121(13) 1.21356(14)
C39 C 0.70185(19) 0.01260(19) 1.21304(13)
H18 H 0.9486 0.3251 0.8332
C40 C 0.90864(18) 0.31127(18) 0.78104(17)
C41 C 0.8898(2) 0.25177(19) 0.77246(16)
C42 C 0.99856(16) 0.32719(13) 0.90829(15)
C43 C 0.97131(15) 0.35983(17) 0.89083(15)
H19 H 0.7167 -0.0352 1.2321
C44 C 0.73764(18) -0.07673(18) 1.24545(15)
C45 C 0.75881(14) -0.09067(14) 1.19834(10)
C46 C 0.67509(19) -0.00654(17) 1.23467(15)
C47 C 0.7121(2) 0.04657(18) 1.20765(14)
H20 H 0.9182 0.3307 0.7943
C48 C 0.90112(17) 0.31505(19) 0.75028(15)
C49 C 0.8845(2) 0.2555(2) 0.7420(2)
H21 H 0.8849 0.2300 0.7800
H22 H 0.9993 0.3065 0.9087
C50 C 1.02367(14) 0.35645(16) 0.92446(14)
C51 C 0.99643(17) 0.38909(13) 0.90701(16)
H23 H 0.9538 0.3610 0.8796
H24 H 0.7293 -0.0637 1.2556
C52 C 0.7415(2) -0.1017(2) 1.26214(11)
C53 C 0.76270(13) -0.11565(13) 1.21503(13)
H25 H 0.7646 -0.0870 1.1770
H26 H 0.6676 -0.0300 1.2383
C54 C 0.65976(18) 0.00975(25) 1.25072(15)
C55 C 0.69714(18) 0.06306(25) 1.22412(15)
H27 H 0.7294 0.0591 1.1927
H28 H 0.9051 0.3366 0.7429
C56 C 0.88761(17) 0.2864(2) 0.73047(15)
H29 H 0.8785 0.2370 0.7281
H30 H 1.0412 0.3553 0.9357
C57 C 1.02261(14) 0.38740(13) 0.92382(14)
H31 H 0.9957 0.4098 0.9066
H32 H 0.7357 -0.1054 1.2835
C58 C 0.75406(16) -0.12117(14) 1.24693(13)
H33 H 0.7711 -0.1287 1.2048
H34 H 0.6416 -0.0031 1.2648
C59 C 0.67123(16) 0.04495(21) 1.24595(13)
H35 H 0.7048 0.0865 1.2203
C60 C 0.87998(19) 0.2892(2) 0.69660(16)
C61 C 1.0479(3) 0.41734(18) 0.94142(18)
C62 C 0.7577(3) -0.1507(3) 1.2643(2)
C63 C 0.65607(17) 0.06335(23) 1.26314(12)
O9 O 0.86344(17) 0.26172(17) 0.68051(11)
O10 O 0.88779(12) 0.31838(14) 0.68463(10)
O11 O 1.04044(18) 0.4404(2) 0.95087(19)
O12 O 1.0778(2) 0.42435(15) 0.94644(15)
O13 O 0.77198(18) -0.16391(18) 1.25420(16)
O14 O 0.7478(2) -0.1526(2) 1.2929(2)
In2 In 0.859978(12) 0.288257(13) 0.637824(12)
O15 O 0.84286(12) 0.32739(13) 0.62941(11)
O16 O 0.81203(16) 0.28426(15) 0.66133(15)
C64 C 0.81587(16) 0.30988(16) 0.64550(17)
C65 C 0.78615(13) 0.31708(16) 0.64547(15)
C66 C 0.75522(16) 0.29412(14) 0.66089(14)
C67 C 0.78816(12) 0.34455(14) 0.62773(15)
H36 H 0.7539 0.2757 0.6728
C68 C 0.72629(13) 0.29863(14) 0.65857(15)
C69 C 0.75924(16) 0.34905(13) 0.62542(14)
H37 H 0.8089 0.3599 0.6174
H38 H 0.7056 0.2833 0.6689
C70 C 0.72830(13) 0.32609(15) 0.64083(15)
H39 H 0.7606 0.3674 0.6135
C71 C 0.6964(2) 0.3306(2) 0.6378(2)
C72 C 0.6632(2) 0.3008(2) 0.63794(19)
H40 H 0.6610 0.2788 0.6381
C29A C 0.96663(12) -0.02770(18) 0.95756(12)
C24B C 1.03430(18) 0.02816(13) 0.95708(12)
C24A C 0.99386(12) -0.03430(18) 0.95708(12)
H17A H 0.9439 -0.0465 0.9582
C21B C 1.07010(18) 0.05851(13) 0.95851(12)
C29B C 1.02770(18) -0.00567(13) 0.95756(12)
C21A C 0.98841(13) -0.07010(18) 0.95851(12)
C17B C 1.07923(20) 0.09077(14) 0.94407(13)
C18B C 1.09697(20) 0.05658(14) 0.97381(13)
H17B H 1.0465 -0.0096 0.9582
C17A C 1.01154(14) -0.07923(20) 0.94407(13)
C18A C 0.95961(14) -0.09697(20) 0.97381(13)
C11B C 1.11232(21) 0.11828(15) 0.94391(13)
H11B H 1.0618 0.0933 0.9342
H12B H 1.0919 0.0357 0.9836
C12B C 1.13030(21) 0.08399(14) 0.97499(13)
C11A C 1.00596(15) -0.11232(21) 0.94391(13)
H11A H 1.0315 -0.0618 0.9342
H12A H 0.9438 -0.0919 0.9836
C12A C 0.95369(15) -0.13030(21) 0.97499(13)
C6B C 1.13846(18) 0.11540(13) 0.95972(12)
H5B H 1.1175 0.1388 0.9334
H6B H 1.1475 0.0819 0.9858
C6A C 0.97694(13) -0.13846(18) 0.95972(12)
H5A H 1.0213 -0.1175 0.9334
H6A H 0.9344 -0.1475 0.9858
C3B C 1.17428(21) 0.14515(14) 0.95998(13)
C3A C 0.97087(16) -0.17428(21) 0.95998(13)
O7D O 0.62871(12) 0.04454(23) 1.28158(9)
O8D O 0.66704(11) 0.09493(22) 1.25967(10)
O5B O 1.18278(14) 0.17221(10) 0.94289(9)
O6B O 1.19882(14) 0.14493(10) 0.97612(9)
O5A O 0.98943(10) -0.18278(14) 0.94289(9)
O6A O 0.94611(10) -0.19882(14) 0.97612(9)
In2E In 1.094946(18) 0.473355(12) 0.971157(12)
In2H In 0.761612(18) -0.193311(12) 1.304491(12)
In1D In 0.626238(12) 0.094284(16) 1.292387(10)
In1B In 1.239049(16) 0.198620(11) 0.959054(10)
In1A In 0.959571(12) -0.239049(16) 0.959054(10)
O11G O 0.8929(2) 0.26671(27) 0.61754(19)
O12G O 0.90898(15) 0.32012(25) 0.61311(15)
O13D O 0.83058(18) 0.26922(25) 0.58753(16)
O14D O 0.8193(2) 0.2337(3) 0.6262(2)
O1A O 0.92616(11) -0.24927(15) 0.91413(9)
O2A O 0.90164(11) -0.27520(16) 0.95823(10)
O3A O 1.00029(11) -0.22148(15) 0.99811(9)
O4A O 0.94707(11) -0.25975(16) 1.00926(9)
O7A O 0.96204(12) -0.28879(23) 0.94825(9)
O8A O 1.00037(11) -0.23840(22) 0.92634(10)
C1A C 0.89807(15) -0.26991(20) 0.92934(17)
C2A C 0.97844(16) -0.24032(21) 1.01837(13)
C4A C 0.86402(6) -0.28667(10) 0.91374(7)
C5A C 0.98751(15) -0.24068(21) 1.05155(13)
C7A C 0.83442(7) -0.30529(11) 0.93243(6)
C8A C 0.86062(5) -0.28497(10) 0.88122(7)
C9A C 1.02118(17) -0.21857(24) 1.06228(15)
C10A C 0.96185(19) -0.26268(27) 1.07287(15)
H1A H 0.8367 -0.3064 0.9542
C13A C 0.80143(7) -0.32221(11) 0.91859(5)
C14A C 0.82763(5) -0.30189(9) 0.86738(6)
H2A H 0.8804 -0.2725 0.8687
H3A H 1.0381 -0.2032 1.0482
C15A C 1.03023(18) -0.21878(26) 1.09336(15)
C16A C 0.97093(18) -0.26260(26) 1.10404(15)
H4A H 0.9389 -0.2772 1.0662
H7A H 0.7816 -0.3347 0.9311
C19A C 0.79804(5) -0.32050(7) 0.88606(5)
H8A H 0.8254 -0.3007 0.8456
H9A H 1.0531 -0.2042 1.1000
C20A C 1.00489(19) -0.24101(28) 1.11468(13)
H10A H 0.9539 -0.2774 1.1183
C22A C 0.76217(5) -0.33767(8) 0.87137(5)
C23A C 1.01355(17) -0.24265(26) 1.14920(14)
C72A C 0.6992(2) 0.3624(3) 0.63794(19)
C25A C 0.75750(6) -0.35080(10) 0.84078(6)
C26A C 0.73414(6) -0.33909(10) 0.88768(6)
C27A C 1.03761(17) -0.21243(25) 1.16433(14)
C28A C 0.99696(19) -0.27414(28) 1.16438(15)
C71B C 0.6342(3) 0.3036(2) 0.6378(2)
C71A C 0.6694(2) 0.3658(3) 0.6378(2)
H40A H 0.7212 0.3822 0.6381
H13A H 0.7762 -0.3499 0.8299
C30A C 0.72481(7) -0.36531(12) 0.82650(7)
C31A C 0.70145(6) -0.35360(12) 0.87339(8)
H14A H 0.7373 -0.3303 0.9081
H15A H 1.0480 -0.1911 1.1538
C32A C 1.04611(18) -0.21439(27) 1.19592(15)
C33A C 1.00482(18) -0.27668(27) 1.19603(14)
H16A H 0.9804 -0.2939 1.1537
C70B C 0.59779(20) 0.27170(13) 0.64083(15)
C72B C 0.6376(3) 0.3368(2) 0.63794(19)
C70A C 0.67391(15) 0.40221(20) 0.64083(15)
C34A C 0.69678(6) -0.36672(12) 0.84280(8)
C35A C 0.72007(19) -0.37743(28) 0.79279(16)
C36A C 0.67112(14) -0.35650(20) 0.89147(13)
C37A C 1.02952(19) -0.24668(28) 1.21122(15)
C38A C 1.07121(13) -0.18251(20) 1.21356(14)
C39A C 0.98740(19) -0.31075(27) 1.21304(13)
C68B C 0.57234(19) 0.27371(13) 0.65857(15)
C69B C 0.58981(21) 0.24076(16) 0.62542(14)
H40B H 0.6178 0.3390 0.6381
C68A C 0.70137(14) 0.42766(19) 0.65857(15)
C69A C 0.65095(13) 0.41019(21) 0.62542(14)
H18A H 0.6749 -0.3765 0.8332
C40A C 0.68873(18) -0.40263(25) 0.78104(17)
C41A C 0.74823(19) -0.36197(28) 0.77246(16)
C42A C 0.67281(13) -0.32863(21) 0.90829(15)
C43A C 0.64017(17) -0.38852(23) 0.89083(15)
H19A H 1.0352 -0.2481 1.2321
C44A C 1.07673(18) -0.18563(25) 1.24545(15)
C45A C 1.09067(14) -0.15052(20) 1.19834(10)
C46A C 1.00654(17) -0.31837(25) 1.23467(15)
C47A C 0.95343(18) -0.33447(27) 1.20765(14)
C66B C 0.53890(21) 0.24478(16) 0.66089(14)
H38B H 0.5777 0.2944 0.6689
H39B H 0.6068 0.2394 0.6135
C67B C 0.55639(18) 0.21184(12) 0.62773(15)
C66A C 0.70588(14) 0.46110(21) 0.66089(14)
H38A H 0.7167 0.4223 0.6689
H39A H 0.6326 0.3932 0.6135
C67A C 0.65545(14) 0.44361(18) 0.62773(15)
H20A H 0.6693 -0.4125 0.7943
C48A C 0.68495(19) -0.41393(25) 0.75028(15)
C49A C 0.7445(2) -0.3710(3) 0.7420(2)
H21A H 0.7700 -0.3451 0.7800
H22A H 0.6935 -0.3072 0.9087
C50A C 0.64355(16) -0.33278(21) 0.92446(14)
C51A C 0.61091(13) -0.39266(21) 0.90701(16)
H23A H 0.6390 -0.4072 0.8796
H24A H 1.0637 -0.2070 1.2556
C52A C 1.1017(2) -0.1568(3) 1.26214(11)
C53A C 1.11565(13) -0.12165(18) 1.21503(13)
H25A H 1.0870 -0.1484 1.1770
H26A H 1.0300 -0.3024 1.2383
C54A C 0.99025(25) -0.34999(31) 1.25072(15)
C55A C 0.93694(25) -0.36592(31) 1.22412(15)
H27A H 0.9409 -0.3297 1.1927
C65B C 0.53093(21) 0.21385(13) 0.64547(15)
H36B H 0.5218 0.2461 0.6728
H37B H 0.5510 0.1911 0.6174
C65A C 0.68292(16) 0.46907(21) 0.64547(15)
H36A H 0.7243 0.4782 0.6728
H37A H 0.6401 0.4490 0.6174
H28A H 0.6634 -0.4315 0.7429
C56A C 0.7136(2) -0.39879(26) 0.73047(15)
H29A H 0.7630 -0.3585 0.7281
H30A H 0.6447 -0.3141 0.9357
C57A C 0.61260(13) -0.36479(19) 0.92382(14)
H31A H 0.5902 -0.4141 0.9066
H32A H 1.1054 -0.1589 1.2835
C58A C 1.12117(14) -0.12477(21) 1.24693(13)
H33A H 1.1287 -0.1002 1.2048
H34A H 1.0031 -0.3553 1.2648
C59A C 0.95505(21) -0.37372(26) 1.24595(13)
H35A H 0.9135 -0.3817 1.2203
C64B C 0.49401(23) 0.18413(16) 0.64550(17)
C64A C 0.69012(16) 0.50599(23) 0.64550(17)
C60A C 0.7108(2) -0.40922(28) 0.69660(16)
C61A C 0.58266(18) -0.36944(35) 0.94142(18)
C62A C 1.1507(3) -0.0916(4) 1.2643(2)
C63A C 0.93665(23) -0.40728(29) 1.26314(12)
O15B O 0.48453(18) 0.15714(12) 0.62941(11)
O16B O 0.47223(22) 0.18797(16) 0.66133(15)
O15A O 0.67261(13) 0.51547(18) 0.62941(11)
O16A O 0.71574(15) 0.52777(22) 0.66133(15)
O9A O 0.73828(17) -0.39828(24) 0.68051(11)
O10A O 0.68162(14) -0.43059(18) 0.68463(10)
O11A O 0.5596(2) -0.39996(27) 0.95087(19)
O12A O 0.57565(15) -0.34655(25) 0.94644(15)
O13A O 1.16391(18) -0.06411(25) 1.25420(16)
O14A O 1.1526(2) -0.0996(3) 1.2929(2)
O7E O 0.95546(23) -0.41584(20) 1.28158(9)
O8E O 0.90507(22) -0.42790(19) 1.25967(10)
In2B In 0.428279(18) 0.140022(12) 0.637824(12)
In2A In 0.711743(13) 0.571721(18) 0.637824(12)
In2A_2 In 0.711743(13) -0.428279(18) 0.637824(12)
In2C In 0.526645(12) -0.378410(13) 0.971157(12)
In2F In 1.193311(12) -0.045076(13) 1.304491(12)
In1E In 0.905716(16) -0.468047(11) 1.292387(10)
O9B O 0.39828(24) 0.13656(17) 0.68051(11)
O10B O 0.43059(18) 0.11221(12) 0.68463(10)
O11F O 0.37377(18) 0.1071(2) 0.61754(19)
O12F O 0.4111(2) 0.09102(15) 0.61311(15)
O13C O 0.43865(18) 0.16942(18) 0.58753(16)
O14C O 0.4145(2) 0.1807(2) 0.6262(2)
O11H O 0.73329(27) -0.37377(18) 0.61754(19)
O12H O 0.67988(25) -0.4111(2) 0.61311(15)
O13E O 0.73078(25) -0.43865(18) 0.58753(16)
O14E O 0.7663(3) -0.4145(2) 0.6262(2)
O15A_2 O 0.67261(13) -0.48453(18) 0.62941(11)
O16A_2 O 0.71574(15) -0.47223(22) 0.66133(15)
C60B C 0.40922(28) 0.12002(19) 0.69660(16)
C56B C 0.39879(26) 0.11239(17) 0.73047(15)
C48B C 0.41393(25) 0.09888(17) 0.75028(15)
C49B C 0.3710(3) 0.1155(2) 0.7420(2)
C40B C 0.40263(25) 0.09136(18) 0.78104(17)
H28B H 0.4315 0.0949 0.7429
H29B H 0.3585 0.1215 0.7281
C41B C 0.36197(28) 0.1102(2) 0.77246(16)
C35B C 0.37743(28) 0.0975(2) 0.79279(16)
H20B H 0.4125 0.0818 0.7943
H21B H 0.3451 0.1151 0.7800
C30B C 0.36531(12) 0.09012(10) 0.82650(7)
C25B C 0.35080(10) 0.10830(8) 0.84078(6)
C34B C 0.36672(12) 0.06350(10) 0.84280(8)
C22B C 0.33767(8) 0.09984(6) 0.87137(5)
H13B H 0.3499 0.1261 0.8299
H18B H 0.3765 0.0514 0.8332
C31B C 0.35360(12) 0.05505(10) 0.87339(8)
C19B C 0.32050(7) 0.11854(5) 0.88606(5)
C26B C 0.33909(10) 0.07323(8) 0.88768(6)
C36B C 0.35650(20) 0.02762(14) 0.89147(13)
C13B C 0.32221(11) 0.12364(8) 0.91859(5)
C14B C 0.30189(9) 0.12952(8) 0.86738(6)
H14B H 0.3303 0.0676 0.9081
C42B C 0.32863(21) 0.00144(16) 0.90829(15)
C43B C 0.38852(23) 0.02869(15) 0.89083(15)
C7B C 0.30529(11) 0.13971(9) 0.93243(6)
H7B H 0.3347 0.1163 0.9311
H8B H 0.3007 0.1261 0.8456
C8B C 0.28497(10) 0.14559(9) 0.88122(7)
H22B H 0.3072 0.0007 0.9087
C50B C 0.33278(21) -0.02367(14) 0.92446(14)
C51B C 0.39266(21) 0.00357(17) 0.90701(16)
H23B H 0.4072 0.0462 0.8796
C4B C 0.28667(10) 0.15069(8) 0.91374(7)
H1B H 0.3064 0.1431 0.9542
H2B H 0.2725 0.1529 0.8687
H30B H 0.3141 -0.0412 0.9357
C57B C 0.36479(19) -0.02261(14) 0.92382(14)
H31B H 0.4141 0.0043 0.9066
C1B C 0.26991(20) 0.16798(13) 0.92934(17)
C61B C 0.36944(35) -0.0479(3) 0.94142(18)
O1B O 0.24927(15) 0.17543(10) 0.91413(9)
O2B O 0.27520(16) 0.17684(11) 0.95823(10)
O11B O 0.39996(27) -0.04044(18) 0.95087(19)
O12B O 0.34655(25) -0.0778(2) 0.94644(15)
In1B_2 In 0.239049(16) 0.198620(11) 0.959054(10)
In2D In 0.378410(13) -0.094946(18) 0.971157(12)
O3B O 0.22148(15) 0.22177(10) 0.99811(9)
O4B O 0.25975(16) 0.20682(11) 1.00926(9)
O7B O 0.28879(23) 0.25083(20) 0.94825(9)
O8B O 0.23840(22) 0.23877(19) 0.92634(10)
O5B_2 O 0.18278(14) 0.17221(10) 0.94289(9)
O6B_2 O 0.19882(14) 0.14493(10) 0.97612(9)
C2B C 0.24032(21) 0.21876(14) 1.01837(13)
C5B C 0.24068(21) 0.22819(15) 1.05155(13)
C9B C 0.21857(24) 0.23975(17) 1.06228(15)
C10B C 0.26268(27) 0.22453(19) 1.07287(15)
H3B H 0.2032 0.2413 1.0482
C15B C 0.21878(26) 0.24901(19) 1.09336(15)
C16B C 0.26260(26) 0.23353(19) 1.10404(15)
H4B H 0.2772 0.2161 1.0662
H9B H 0.2042 0.2573 1.1000
C20B C 0.24101(28) 0.2459(2) 1.11468(13)
H10B H 0.2774 0.2313 1.1183
C23B C 0.24265(26) 0.2562(2) 1.14920(14)
C27B C 0.21243(25) 0.25004(18) 1.16433(14)
C28B C 0.27414(28) 0.2711(2) 1.16438(15)
H15B H 0.1911 0.2391 1.1538
C32B C 0.21439(27) 0.2605(2) 1.19592(15)
C33B C 0.27668(27) 0.2815(2) 1.19603(14)
H16B H 0.2939 0.2743 1.1537
C37B C 0.24668(28) 0.2762(2) 1.21122(15)
C38B C 0.18251(20) 0.25372(15) 1.21356(14)
C39B C 0.31075(27) 0.29815(19) 1.21304(13)
H19B H 0.2481 0.2833 1.2321
C44B C 0.18563(25) 0.26236(18) 1.24545(15)
C45B C 0.15052(20) 0.24119(14) 1.19834(10)
C46B C 0.31837(25) 0.32491(19) 1.23467(15)
C47B C 0.33447(27) 0.2879(2) 1.20765(14)
H24B H 0.2070 0.2707 1.2556
C52B C 0.1568(3) 0.2585(2) 1.26214(11)
C53B C 0.12165(18) 0.23730(13) 1.21503(13)
H25B H 0.1484 0.2354 1.1770
H26B H 0.3024 0.3324 1.2383
C54B C 0.34999(31) 0.34024(18) 1.25072(15)
C55B C 0.36592(31) 0.30286(18) 1.22412(15)
H27B H 0.3297 0.2706 1.1927
H32B H 0.1589 0.2643 1.2835
C58B C 0.12477(21) 0.24594(16) 1.24693(13)
H33B H 0.1002 0.2289 1.2048
H34B H 0.3553 0.3584 1.2648
C59B C 0.37372(26) 0.32877(16) 1.24595(13)
H35B H 0.3817 0.2952 1.2203
C62B C 0.0916(4) 0.2423(3) 1.2643(2)
C63B C 0.40728(29) 0.34393(17) 1.26314(12)
O13B O 0.06411(25) 0.22802(18) 1.25420(16)
O14B O 0.0996(3) 0.2522(2) 1.2929(2)
O7C O 0.41584(20) 0.37129(12) 1.28158(9)
O8C O 0.42790(19) 0.33296(11) 1.25967(10)
In2G In 0.045076(13) 0.238388(18) 1.304491(12)
In1C In 0.468047(11) 0.373762(12) 1.292387(10)
loop_
_geom_bond_atom_site_label_1
_geom_bond_atom_site_label_2
_geom_bond_site_symmetry_1
_geom_bond_site_symmetry_2
In1 O1 1_555 1_555
O1 C1 1_555 1_555
O2 In1 1_555 1_555
O3 In1 1_555 1_555
O4 In1 1_555 1_555
O5 In1 1_555 1_555
O6 In1 1_555 1_555
O7 In1 1_555 1_555
O8 In1 1_555 1_555
C1 O2 1_555 1_555
C2 O3 1_555 1_555
C3 O5 1_555 1_555
C4 C1 1_555 1_555
C5 C2 1_555 1_555
C6 C3 1_555 1_555
C7 C4 1_555 1_555
C8 C4 1_555 1_555
C9 C5 1_555 1_555
C10 C5 1_555 1_555
C11 C6 1_555 1_555
C12 C6 1_555 1_555
H1 C7 1_555 1_555
C13 C7 1_555 1_555
C14 C8 1_555 1_555
H2 C8 1_555 1_555
H3 C9 1_555 1_555
C15 C9 1_555 1_555
C16 C10 1_555 1_555
H4 C10 1_555 1_555
H5 C11 1_555 1_555
C17 C11 1_555 1_555
C18 C12 1_555 1_555
H6 C12 1_555 1_555
H7 C13 1_555 1_555
C19 C13 1_555 1_555
H8 C14 1_555 1_555
H9 C15 1_555 1_555
C20 C15 1_555 1_555
H10 C16 1_555 1_555
H11 C17 1_555 1_555
C21 C17 1_555 1_555
H12 C18 1_555 1_555
C22 C19 1_555 1_555
C23 C20 1_555 1_555
C24 C21 1_555 1_555
C25 C22 1_555 1_555
C26 C22 1_555 1_555
C27 C23 1_555 1_555
C28 C23 1_555 1_555
C29 C24 1_555 1_555
H13 C25 1_555 1_555
C30 C25 1_555 1_555
C31 C26 1_555 1_555
H14 C26 1_555 1_555
H15 C27 1_555 1_555
C32 C27 1_555 1_555
C33 C28 1_555 1_555
H16 C28 1_555 1_555
H17 C29 1_555 1_555
C34 C30 1_555 1_555
C35 C30 1_555 1_555
C36 C31 1_555 1_555
C37 C32 1_555 1_555
C38 C32 1_555 1_555
C39 C33 1_555 1_555
H18 C34 1_555 1_555
C40 C35 1_555 1_555
C41 C35 1_555 1_555
C42 C36 1_555 1_555
C43 C36 1_555 1_555
H19 C37 1_555 1_555
C44 C38 1_555 1_555
C45 C38 1_555 1_555
C46 C39 1_555 1_555
C47 C39 1_555 1_555
H20 C40 1_555 1_555
C48 C40 1_555 1_555
C49 C41 1_555 1_555
H21 C41 1_555 1_555
H22 C42 1_555 1_555
C50 C42 1_555 1_555
C51 C43 1_555 1_555
H23 C43 1_555 1_555
H24 C44 1_555 1_555
C52 C44 1_555 1_555
C53 C45 1_555 1_555
H25 C45 1_555 1_555
H26 C46 1_555 1_555
C54 C46 1_555 1_555
C55 C47 1_555 1_555
H27 C47 1_555 1_555
H28 C48 1_555 1_555
C56 C48 1_555 1_555
H29 C49 1_555 1_555
H30 C50 1_555 1_555
C57 C50 1_555 1_555
H31 C51 1_555 1_555
H32 C52 1_555 1_555
C58 C52 1_555 1_555
H33 C53 1_555 1_555
H34 C54 1_555 1_555
C59 C54 1_555 1_555
H35 C55 1_555 1_555
C60 C56 1_555 1_555
C61 C57 1_555 1_555
C62 C58 1_555 1_555
C63 C59 1_555 1_555
O9 C60 1_555 1_555
O10 C60 1_555 1_555
O11 C61 1_555 1_555
O12 C61 1_555 1_555
O13 C62 1_555 1_555
O14 C62 1_555 1_555
In2 O9 1_555 1_555
O15 In2 1_555 1_555
O16 In2 1_555 1_555
C64 O15 1_555 1_555
C65 C64 1_555 1_555
C66 C65 1_555 1_555
C67 C65 1_555 1_555
H36 C66 1_555 1_555
C68 C66 1_555 1_555
C69 C67 1_555 1_555
H37 C67 1_555 1_555
H38 C68 1_555 1_555
C70 C68 1_555 1_555
H39 C69 1_555 1_555
C71 C70 1_555 1_555
C72 C71 1_555 1_555
H40 C72 1_555 1_555
O28 C73 1_555 1_555
C73 C74 1_555 1_555
C29A C24 1_555 1_555
C24B C29 1_555 1_555
C24A C29A 1_555 1_555
H17A C29A 1_555 1_555
C21B C24B 1_555 1_555
C29B C24B 1_555 1_555
C21A C24A 1_555 1_555
C17B C21B 1_555 1_555
C18B C21B 1_555 1_555
H17B C29B 1_555 1_555
C17A C21A 1_555 1_555
C18A C21A 1_555 1_555
C11B C17B 1_555 1_555
H11B C17B 1_555 1_555
H12B C18B 1_555 1_555
C12B C18B 1_555 1_555
C11A C17A 1_555 1_555
H11A C17A 1_555 1_555
H12A C18A 1_555 1_555
C12A C18A 1_555 1_555
C6B C11B 1_555 1_555
H5B C11B 1_555 1_555
H6B C12B 1_555 1_555
C6A C11A 1_555 1_555
H5A C11A 1_555 1_555
H6A C12A 1_555 1_555
C3B C6B 1_555 1_555
C3A C6A 1_555 1_555
O7D C63 1_555 1_555
O8D C63 1_555 1_555
O5B C3B 1_555 1_555
O6B C3B 1_555 1_555
O5A C3A 1_555 1_555
O6A C3A 1_555 1_555
In2E O11 1_555 1_555
In2H O13 1_555 1_555
In1D O7D 1_555 1_555
In1B O5B 1_555 1_555
In1A O5A 1_555 1_555
O11G In2 1_555 1_555
O12G In2 1_555 1_555
O13D In2 1_555 1_555
O14D In2 1_555 1_555
O1A In1A 1_555 1_555
O2A In1A 1_555 1_555
O3A In1A 1_555 1_555
O4A In1A 1_555 1_555
O7A In1A 1_555 1_555
O8A In1A 1_555 1_555
C1A O1A 1_555 1_555
C2A O3A 1_555 1_555
C4A C1A 1_555 1_555
C5A C2A 1_555 1_555
C7A C4A 1_555 1_555
C8A C4A 1_555 1_555
C9A C5A 1_555 1_555
C10A C5A 1_555 1_555
H1A C7A 1_555 1_555
C13A C7A 1_555 1_555
C14A C8A 1_555 1_555
H2A C8A 1_555 1_555
H3A C9A 1_555 1_555
C15A C9A 1_555 1_555
C16A C10A 1_555 1_555
H4A C10A 1_555 1_555
H7A C13A 1_555 1_555
C19A C13A 1_555 1_555
H8A C14A 1_555 1_555
H9A C15A 1_555 1_555
C20A C15A 1_555 1_555
H10A C16A 1_555 1_555
C22A C19A 1_555 1_555
C23A C20A 1_555 1_555
C72A C71 1_555 1_555
C25A C22A 1_555 1_555
C26A C22A 1_555 1_555
C27A C23A 1_555 1_555
C28A C23A 1_555 1_555
C71B C72 1_555 1_555
C71A C72A 1_555 1_555
H40A C72A 1_555 1_555
H13A C25A 1_555 1_555
C30A C25A 1_555 1_555
C31A C26A 1_555 1_555
H14A C26A 1_555 1_555
H15A C27A 1_555 1_555
C32A C27A 1_555 1_555
C33A C28A 1_555 1_555
H16A C28A 1_555 1_555
C70B C71B 1_555 1_555
C72B C71B 1_555 1_555
C70A C71A 1_555 1_555
C34A C30A 1_555 1_555
C35A C30A 1_555 1_555
C36A C31A 1_555 1_555
C37A C32A 1_555 1_555
C38A C32A 1_555 1_555
C39A C33A 1_555 1_555
C68B C70B 1_555 1_555
C69B C70B 1_555 1_555
H40B C72B 1_555 1_555
C68A C70A 1_555 1_555
C69A C70A 1_555 1_555
H18A C34A 1_555 1_555
C40A C35A 1_555 1_555
C41A C35A 1_555 1_555
C42A C36A 1_555 1_555
C43A C36A 1_555 1_555
H19A C37A 1_555 1_555
C44A C38A 1_555 1_555
C45A C38A 1_555 1_555
C46A C39A 1_555 1_555
C47A C39A 1_555 1_555
C66B C68B 1_555 1_555
H38B C68B 1_555 1_555
H39B C69B 1_555 1_555
C67B C69B 1_555 1_555
C66A C68A 1_555 1_555
H38A C68A 1_555 1_555
H39A C69A 1_555 1_555
C67A C69A 1_555 1_555
H20A C40A 1_555 1_555
C48A C40A 1_555 1_555
C49A C41A 1_555 1_555
H21A C41A 1_555 1_555
H22A C42A 1_555 1_555
C50A C42A 1_555 1_555
C51A C43A 1_555 1_555
H23A C43A 1_555 1_555
H24A C44A 1_555 1_555
C52A C44A 1_555 1_555
C53A C45A 1_555 1_555
H25A C45A 1_555 1_555
H26A C46A 1_555 1_555
C54A C46A 1_555 1_555
C55A C47A 1_555 1_555
H27A C47A 1_555 1_555
C65B C66B 1_555 1_555
H36B C66B 1_555 1_555
H37B C67B 1_555 1_555
C65A C66A 1_555 1_555
H36A C66A 1_555 1_555
H37A C67A 1_555 1_555
H28A C48A 1_555 1_555
C56A C48A 1_555 1_555
H29A C49A 1_555 1_555
H30A C50A 1_555 1_555
C57A C50A 1_555 1_555
H31A C51A 1_555 1_555
H32A C52A 1_555 1_555
C58A C52A 1_555 1_555
H33A C53A 1_555 1_555
H34A C54A 1_555 1_555
C59A C54A 1_555 1_555
H35A C55A 1_555 1_555
C64B C65B 1_555 1_555
C64A C65A 1_555 1_555
C60A C56A 1_555 1_555
C61A C57A 1_555 1_555
C62A C58A 1_555 1_555
C63A C59A 1_555 1_555
O15B C64B 1_555 1_555
O16B C64B 1_555 1_555
O15A C64A 1_555 1_555
O16A C64A 1_555 1_555
O9A C60A 1_555 1_555
O10A C60A 1_555 1_555
O11A C61A 1_555 1_555
O12A C61A 1_555 1_555
O13A C62A 1_555 1_555
O14A C62A 1_555 1_555
O7E C63A 1_555 1_555
O8E C63A 1_555 1_555
In2B O15B 1_555 1_555
In2A O15A 1_555 1_555
In2A_2 O9A 1_555 1_555
In2C O11A 1_555 1_555
In2F O13A 1_555 1_555
In1E O7E 1_555 1_555
O9B In2B 1_555 1_555
O10B In2B 1_555 1_555
O11F In2B 1_555 1_555
O12F In2B 1_555 1_555
O13C In2B 1_555 1_555
O14C In2B 1_555 1_555
O11H In2A_2 1_555 1_555
O12H In2A_2 1_555 1_555
O13E In2A_2 1_555 1_555
O14E In2A_2 1_555 1_555
O15A_2 In2A_2 1_555 1_555
O16A_2 In2A_2 1_555 1_555
C60B O9B 1_555 1_555
C56B C60B 1_555 1_555
C48B C56B 1_555 1_555
C49B C56B 1_555 1_555
C40B C48B 1_555 1_555
H28B C48B 1_555 1_555
H29B C49B 1_555 1_555
C41B C49B 1_555 1_555
C35B C40B 1_555 1_555
H20B C40B 1_555 1_555
H21B C41B 1_555 1_555
C30B C35B 1_555 1_555
C25B C30B 1_555 1_555
C34B C30B 1_555 1_555
C22B C25B 1_555 1_555
H13B C25B 1_555 1_555
H18B C34B 1_555 1_555
C31B C34B 1_555 1_555
C19B C22B 1_555 1_555
C26B C22B 1_555 1_555
C36B C31B 1_555 1_555
C13B C19B 1_555 1_555
C14B C19B 1_555 1_555
H14B C26B 1_555 1_555
C42B C36B 1_555 1_555
C43B C36B 1_555 1_555
C7B C13B 1_555 1_555
H7B C13B 1_555 1_555
H8B C14B 1_555 1_555
C8B C14B 1_555 1_555
H22B C42B 1_555 1_555
C50B C42B 1_555 1_555
C51B C43B 1_555 1_555
H23B C43B 1_555 1_555
C4B C7B 1_555 1_555
H1B C7B 1_555 1_555
H2B C8B 1_555 1_555
H30B C50B 1_555 1_555
C57B C50B 1_555 1_555
H31B C51B 1_555 1_555
C1B C4B 1_555 1_555
C61B C57B 1_555 1_555
O1B C1B 1_555 1_555
O2B C1B 1_555 1_555
O11B C61B 1_555 1_555
O12B C61B 1_555 1_555
In1B_2 O1B 1_555 1_555
In2D O11B 1_555 1_555
O3B In1B_2 1_555 1_555
O4B In1B_2 1_555 1_555
O7B In1B_2 1_555 1_555
O8B In1B_2 1_555 1_555
O5B_2 In1B_2 1_555 1_555
O6B_2 In1B_2 1_555 1_555
C2B O3B 1_555 1_555
C5B C2B 1_555 1_555
C9B C5B 1_555 1_555
C10B C5B 1_555 1_555
H3B C9B 1_555 1_555
C15B C9B 1_555 1_555
C16B C10B 1_555 1_555
H4B C10B 1_555 1_555
H9B C15B 1_555 1_555
C20B C15B 1_555 1_555
H10B C16B 1_555 1_555
C23B C20B 1_555 1_555
C27B C23B 1_555 1_555
C28B C23B 1_555 1_555
H15B C27B 1_555 1_555
C32B C27B 1_555 1_555
C33B C28B 1_555 1_555
H16B C28B 1_555 1_555
C37B C32B 1_555 1_555
C38B C32B 1_555 1_555
C39B C33B 1_555 1_555
H19B C37B 1_555 1_555
C44B C38B 1_555 1_555
C45B C38B 1_555 1_555
C46B C39B 1_555 1_555
C47B C39B 1_555 1_555
H24B C44B 1_555 1_555
C52B C44B 1_555 1_555
C53B C45B 1_555 1_555
H25B C45B 1_555 1_555
H26B C46B 1_555 1_555
C54B C46B 1_555 1_555
C55B C47B 1_555 1_555
H27B C47B 1_555 1_555
H32B C52B 1_555 1_555
C58B C52B 1_555 1_555
H33B C53B 1_555 1_555
H34B C54B 1_555 1_555
C59B C54B 1_555 1_555
H35B C55B 1_555 1_555
C62B C58B 1_555 1_555
C63B C59B 1_555 1_555
O13B C62B 1_555 1_555
O14B C62B 1_555 1_555
O7C C63B 1_555 1_555
O8C C63B 1_555 1_555
In2G O13B 1_555 1_555
In1C O7C 1_555 1_555
C73A O28 1_555 1_555
C74A C73A 1_555 1_555
C73B O28 1_555 1_555
C74B C73B 1_555 1_555
O4 C2 1_555 1_555
O6 C3 1_555 1_555
C14 C19 1_555 1_555
C16 C20 1_555 1_555
C18 C21 1_555 1_555
C31 C34 1_555 1_555
C33 C37 1_555 1_555
C49 C56 1_555 1_555
C51 C57 1_555 1_555
C53 C58 1_555 1_555
C55 C59 1_555 1_555
O10 In2 1_555 1_555
O12 In2E 1_555 1_555
O14 In2H 1_555 1_555
O16 C64 1_555 1_555
C69 C70 1_555 1_555
C24A C29B 1_555 1_555
C12B C6B 1_555 1_555
C12A C6A 1_555 1_555
O8D In1D 1_555 1_555
O6B In1B 1_555 1_555
O6A In1A 1_555 1_555
O2A C1A 1_555 1_555
O4A C2A 1_555 1_555
C14A C19A 1_555 1_555
C16A C20A 1_555 1_555
C71A C72B 1_555 1_555
C31A C34A 1_555 1_555
C33A C37A 1_555 1_555
C67B C65B 1_555 1_555
C67A C65A 1_555 1_555
C49A C56A 1_555 1_555
C51A C57A 1_555 1_555
C53A C58A 1_555 1_555
C55A C59A 1_555 1_555
O16B In2B 1_555 1_555
O16A In2A 1_555 1_555
O10A In2A_2 1_555 1_555
O12A In2C 1_555 1_555
O14A In2F 1_555 1_555
O8E In1E 1_555 1_555
O10B C60B 1_555 1_555
C41B C35B 1_555 1_555
C31B C26B 1_555 1_555
C8B C4B 1_555 1_555
C51B C57B 1_555 1_555
O2B In1B_2 1_555 1_555
O12B In2D 1_555 1_555
O4B C2B 1_555 1_555
C16B C20B 1_555 1_555
C33B C37B 1_555 1_555
C53B C58B 1_555 1_555
C55B C59B 1_555 1_555
O14B In2G 1_555 1_555
O8C In1C 1_555 1_555

#END
