
#######################################################################
#
#                 Cambridge Crystallographic Data Centre
#                                CCDC 
#
#######################################################################
#
# If this CIF has been generated from an entry in the Cambridge 
# Structural Database, then it will include bibliographic, chemical, 
# crystal, experimental, refinement or atomic coordinate data resulting 
# from the CCDC's data processing and validation procedures.
#
#######################################################################

data_FOSTOY
_symmetry_cell_setting           rhombohedral
_symmetry_space_group_name_H-M   'R -3'
_symmetry_Int_Tables_number      148
_space_group_name_Hall           '-R 3'
loop_
_symmetry_equiv_pos_site_id
_symmetry_equiv_pos_as_xyz
1 x,y,z
2 -y,x-y,z
3 -x+y,-x,z
4 2/3+x,1/3+y,1/3+z
5 2/3-y,1/3+x-y,1/3+z
6 2/3-x+y,1/3-x,1/3+z
7 1/3+x,2/3+y,2/3+z
8 1/3-y,2/3+x-y,2/3+z
9 1/3-x+y,2/3-x,2/3+z
10 -x,-y,-z
11 y,-x+y,-z
12 x-y,x,-z
13 1/3-x,2/3-y,2/3-z
14 1/3+y,2/3-x+y,2/3-z
15 1/3+x-y,2/3+x,2/3-z
16 2/3-x,1/3-y,1/3-z
17 2/3+y,1/3-x+y,1/3-z
18 2/3+x-y,1/3+x,1/3-z
_cell_length_a                   45.597(6)
_cell_length_b                   45.597(6)
_cell_length_c                   40.718(8)
_cell_angle_alpha                90
_cell_angle_beta                 90
_cell_angle_gamma                120
_cell_volume                     73314.5
loop_
_atom_site_label
_atom_site_type_symbol
_atom_site_fract_x
_atom_site_fract_y
_atom_site_fract_z
C73 C 1.00567(13) 0.78972(19) 0.6805(2)
C74 C 1.03119(13) 0.78164(14) 0.67754(18)
H24 H 1.0259 0.7591 0.6783
C75 C 1.06460(13) 0.80720(13) 0.67339(11)
C76 C 1.07250(14) 0.84084(13) 0.67220(17)
H25 H 1.0948 0.8579 0.6694
C77 C 1.04698(18) 0.84892(17) 0.6752(2)
N1 N 1.01357(16) 0.8234(2) 0.67932(18)
C78 C 1.09311(14) 0.80201(15) 0.66891(13)
C79 C 1.0896(2) 0.77716(19) 0.64688(19)
H26 H 1.0695 0.7648 0.6353
C80 C 1.1161(2) 0.7708(2) 0.6422(2)
H27 H 1.1138 0.7542 0.6275
C81 C 1.1462(2) 0.7893(3) 0.6596(2)
H28 H 1.1639 0.7851 0.6565
C82 C 1.14968(17) 0.8142(3) 0.6816(2)
H29 H 1.1698 0.8266 0.6932
C83 C 1.12315(14) 0.8205(2) 0.68627(18)
H30 H 1.1255 0.8371 0.7010
O17 O 0.9001(3) 0.8438(4) 0.6926(4)
C84 C 0.98950(19) 0.83705(14) 0.6861(3)
C85 C 0.9786(3) 0.84519(19) 0.6574(2)
H31 H 0.9905 0.8484 0.6379
C86 C 0.9499(3) 0.8486(2) 0.6579(2)
C87 C 0.9322(3) 0.8438(2) 0.6870(3)
C88 C 0.9431(3) 0.83565(19) 0.7156(2)
C89 C 0.9717(3) 0.83228(16) 0.7152(2)
H32 H 0.9790 0.8268 0.7344
C90 C 0.96982(14) 0.76379(15) 0.6862(3)
C91 C 0.9623(2) 0.74415(18) 0.7144(3)
H33 H 0.9790 0.7491 0.7300
C92 C 0.9298(3) 0.71709(17) 0.7193(3)
H34 H 0.9247 0.7040 0.7382
C93 C 0.90477(18) 0.70965(14) 0.6959(3)
H35 H 0.8830 0.6915 0.6992
C94 C 0.9123(2) 0.72928(17) 0.6677(3)
H36 H 0.8956 0.7243 0.6521
C95 C 0.9448(2) 0.75635(17) 0.66283(19)
H37 H 0.9498 0.7695 0.6440
C96 C 1.0548(2) 0.88353(17) 0.6839(4)
C97 C 1.05873(19) 0.9047(2) 0.7101(3)
H38 H 1.0570 0.8970 0.7315
C98 C 1.0652(3) 0.93746(16) 0.7043(4)
H39 H 1.0679 0.9516 0.7219
C99 C 1.0677(3) 0.9490(2) 0.6723(5)
H40 H 1.0721 0.9710 0.6684
C100 C 1.0638(3) 0.9279(4) 0.6460(4)
H41 H 1.0655 0.9356 0.6246
C101 C 1.0573(3) 0.8951(3) 0.6518(3)
H42 H 1.0546 0.8809 0.6343
C102 C 0.92931(19) 0.8306(3) 0.7494(2)
C103 C 0.9273(3) 0.8063(3) 0.7712(3)
H43 H 0.9334 0.7906 0.7645
C104 C 0.9161(3) 0.8054(4) 0.8032(3)
H44 H 0.9147 0.7891 0.8178
C105 C 0.9070(3) 0.8289(5) 0.8133(2)
H45 H 0.8996 0.8283 0.8346
C106 C 0.9091(3) 0.8532(4) 0.7914(4)
H46 H 0.9030 0.8690 0.7981
C107 C 0.9202(2) 0.8541(4) 0.7594(3)
H47 H 0.9216 0.8704 0.7448
C108 C 0.9381(4) 0.8609(6) 0.6300(5)
C109 C 0.9297(5) 0.8863(5) 0.6280(4)
H48 H 0.9347 0.9013 0.6454
C110 C 0.9140(5) 0.8893(5) 0.6000(6)
H49 H 0.9084 0.9062 0.5987
C111 C 0.9066(5) 0.8669(7) 0.5740(4)
H50 H 0.8961 0.8689 0.5553
C112 C 0.9150(5) 0.8415(6) 0.5760(5)
H51 H 0.9100 0.8265 0.5586
C113 C 0.9307(5) 0.8385(5) 0.6040(7)
H52 H 0.9363 0.8215 0.6054
O18 O 0.1667 0.8333 0.8333
In1 In 0.240656(17) 1.064410(17) 0.457801(16)
O1 O 0.2614(2) 1.0745(2) 0.50587(15)
O2 O 0.2307(2) 1.0228(3) 0.4944(2)
O3 O 0.1950(2) 1.0744(3) 0.4818(3)
O4 O 0.18677(15) 1.0381(2) 0.4477(2)
O5 O 0.23835(19) 1.02558(36) 0.42075(17)
O6 O 0.28661(17) 1.05941(32) 0.44200(16)
O7 O 0.27212(37) 1.12068(18) 0.4581(2)
O8 O 0.2473(4) 1.0985(2) 0.4126(2)
C1 C 0.2534(7) 1.0516(11) 0.5161(4)
C2 C 0.1735(4) 1.0519(4) 0.4636(3)
C3 C 0.2537(4) 1.0384(3) 0.5362(8)
C4 C 0.1414(4) 1.0440(3) 0.4638(3)
C5 C 0.2770(4) 1.0585(4) 0.5691(4)
C6 C 0.2439(5) 1.0105(9) 0.5538(3)
C7 C 0.1265(3) 1.0606(3) 0.4789(3)
C8 C 0.1214(3) 1.0164(3) 0.4438(3)
H1 H 0.2900 1.0817 0.5656
C9 C 0.2823(3) 1.0490(4) 0.6015(3)
C10 C 0.2423(3) 0.9922(3) 0.5842(5)
H2 H 0.2313 0.9932 0.5389
C11 C 0.0905(3) 1.0470(3) 0.4737(3)
C12 C 0.0858(4) 1.0036(3) 0.4396(3)
H3 H 0.2977 1.0651 0.6159
C13 C 0.2637(3) 1.0154(4) 0.6104(3)
H4 H 0.2294 0.9688 0.5865
H5 H 0.0801 1.0575 0.4842
C14 C 0.0717(3) 1.0203(3) 0.4549(3)
H6 H 0.0727 0.9845 0.4268
C15 C 0.2683(3) 1.0083(3) 0.6459(3)
C16 C 0.0334(3) 1.0117(4) 0.4549(2)
C17 C 0.2412(3) 0.9848(3) 0.6634(3)
C18 C 0.3006(3) 1.0231(3) 0.6617(3)
C19 C 0.0117(3) 0.9772(3) 0.4547(3)
H7 H 0.2200 0.9750 0.6536
C20 C 0.2433(3) 0.9748(3) 0.6950(3)
C21 C 0.3036(3) 1.0132(3) 0.6935(2)
H8 H 0.3197 1.0394 0.6507
H9 H 0.0196 0.9621 0.4543
C22 C 0.2749(3) 0.9896(3) 0.7091(2)
C23 C 0.2144(2) 0.95054(17) 0.7136(2)
C24 C 0.3379(3) 1.0281(3) 0.7088(2)
H10 H 0.2768 0.9833 0.7303
C25 C 0.1821(3) 0.94339(19) 0.70448(15)
C26 C 0.21846(17) 0.9324(3) 0.7389(3)
C27 C 0.3450(3) 1.0065(3) 0.7285(3)
C28 C 0.3632(3) 1.0602(3) 0.7043(3)
H11 H 0.1794 0.9555 0.6876
C29 C 0.15389(17) 0.9181(2) 0.7206(2)
C30 C 0.1903(2) 0.9071(2) 0.7550(2)
H12 H 0.3284 0.9839 0.7313
C31 C 0.3761(3) 1.0185(3) 0.7435(3)
C32 C 0.3936(3) 1.0715(3) 0.7215(3)
H13 H 0.3606 1.0746 0.6900
H14 H 0.1323 0.9133 0.7145
C33 C 0.15797(19) 0.89991(17) 0.7458(2)
H15 H 0.3805 1.0040 0.7559
C34 C 0.4005(2) 1.0521(3) 0.7401(3)
H16 H 0.4100 1.0943 0.7197
C35 C 0.1238(4) 0.8713(3) 0.7634(4)
C36 C 0.4333(2) 1.0646(2) 0.7573(3)
O9 O 0.0962(2) 0.8624(2) 0.75095(19)
O10 O 0.12985(17) 0.86215(18) 0.78906(19)
In2 In 0.069166(15) 0.828802(15) 0.794546(14)
O11 O 0.0346(2) 0.79617(17) 0.83641(16)
O12 O 0.09048(19) 0.8242(2) 0.84359(17)
O13 O 0.03035(16) 0.84499(16) 0.78176(18)
O14 O 0.07242(18) 0.87573(15) 0.81692(15)
O15 O 0.03723(38) 0.78363(19) 0.76027(17)
O16 O 0.0775(8) 0.7847(4) 0.7876(3)
C37 C 0.0620(4) 0.8053(3) 0.8532(3)
C38 C 0.0466(3) 0.8696(3) 0.7988(3)
C39 C 0.0547(2) 0.7898(2) 0.88851(15)
C40 C 0.0361(2) 0.8967(2) 0.8030(2)
C41 C 0.0261(2) 0.7598(2) 0.8978(2)
C42 C 0.08011(19) 0.80806(18) 0.9113(2)
C43 C 0.0518(3) 0.9222(3) 0.8262(3)
C44 C 0.0098(2) 0.89472(19) 0.7840(2)
C45 C 0.02292(17) 0.74797(19) 0.9298(2)
C46 C 0.07696(18) 0.7963(2) 0.94329(19)
C47 C 0.0412(4) 0.9458(3) 0.8305(3)
C48 C -0.0007(3) 0.9183(3) 0.7882(3)
C49 C 0.0484(2) 0.7662(2) 0.95254(16)
C50 C 0.0150(4) 0.9438(3) 0.8115(4)
C51 C 0.0469(3) 0.7517(3) 0.9855(2)
C52 C 0.0085(4) 0.9725(3) 0.8111(4)
C53 C 0.0166(3) 0.7275(2) 1.0007(2)
C54 C 0.0765(2) 0.7619(2) 1.0028(2)
C55 C -0.0263(4) 0.9668(5) 0.8146(5)
H17 H -0.0040 0.7194 0.9899
C56 C 0.0177(2) 0.7157(2) 1.0321(2)
C57 C 0.0782(3) 0.7516(3) 1.0331(3)
H18 H 0.0967 0.7771 0.9926
C58 C 0.0481(3) 0.7274(2) 1.0490(2)
C59 C -0.0153(2) 0.6902(2) 1.04839(17)
C60 C 0.1110(3) 0.7637(2) 1.0515(3)
H19 H 0.0486 0.7196 1.0699
C61 C -0.0428(3) 0.69544(19) 1.0498(2)
C62 C -0.01773(19) 0.6611(3) 1.0620(2)
C63 C 0.1148(3) 0.7697(3) 1.0851(3)
C64 C 0.1410(3) 0.7711(3) 1.0333(2)
C65 C -0.0727(2) 0.6716(3) 1.0648(2)
C66 C -0.0476(2) 0.63726(18) 1.0770(2)
H20 H 0.0964 0.7650 1.0985
C67 C 0.1479(4) 0.7833(3) 1.0983(3)
C68 C 0.1709(3) 0.7836(3) 1.0481(3)
H21 H 0.1394 0.7671 1.0108
C69 C -0.07512(17) 0.6425(2) 1.07841(19)
H22 H 0.1509 0.7867 1.1208
C70 C 0.1757(3) 0.7917(2) 1.0788(4)
H23 H 0.1893 0.7867 1.0356
C71 C -0.1084(2) 0.6166(3) 1.0966(2)
C72 C 0.2089(3) 0.8083(3) 1.0957(2)
C19A C 0.0228(3) 1.0345(4) 0.4547(3)
C16B C -0.0217(5) 0.9666(3) 0.4549(2)
C16A C -0.0117(4) 1.0217(5) 0.4549(2)
H9A H 0.0379 1.0575 0.4543
C14B C -0.0514(4) 0.9283(3) 0.4549(3)
C19B C -0.0345(4) 0.9883(3) 0.4547(3)
C14A C -0.0203(3) 1.0514(4) 0.4549(3)
C11B C -0.0435(4) 0.9095(3) 0.4737(3)
C12B C -0.0822(5) 0.9142(4) 0.4396(3)
H9B H -0.0575 0.9804 0.4543
C11A C -0.0470(3) 1.0435(4) 0.4737(3)
C12A C -0.0036(3) 1.0822(5) 0.4396(3)
C7B C -0.0659(4) 0.8735(3) 0.4789(3)
H5B H -0.0226 0.9199 0.4842
C8B C -0.1050(4) 0.8786(3) 0.4438(3)
H6B H -0.0882 0.9273 0.4268
C7A C -0.0606(3) 1.0659(4) 0.4789(3)
H5A H -0.0575 1.0226 0.4842
C8A C -0.0164(3) 1.1050(4) 0.4438(3)
H6A H 0.0155 1.0882 0.4268
C4B C -0.0974(5) 0.8586(4) 0.4638(3)
C4A C -0.0440(3) 1.0974(5) 0.4638(3)
C2B C -0.1216(6) 0.8265(4) 0.4636(3)
C2A C -0.0519(4) 1.1216(6) 0.4636(3)
O5E O 0.45390(41) 1.09498(19) 0.75408(17)
O6E O 0.43947(36) 1.04672(17) 0.77533(16)
O3B O -0.1206(4) 0.8050(2) 0.4818(3)
O4B O -0.14867(25) 0.81323(15) 0.4477(2)
O3A O -0.0744(3) 1.1206(4) 0.4818(3)
O4A O -0.0381(2) 1.14867(25) 0.4477(2)
In1E In 0.490421(24) 1.092677(17) 0.791134(16)
In1B In -0.176246(24) 0.759344(17) 0.457801(16)
In1A In -0.064410(17) 1.176246(24) 0.457801(16)
O1B O -0.1869(3) 0.7386(2) 0.50587(15)
O2B O -0.2079(4) 0.7693(2) 0.4944(2)
O5B O -0.21277(41) 0.76165(19) 0.42075(17)
O6B O -0.22720(36) 0.71339(17) 0.44200(16)
O7B O -0.15144(41) 0.72788(37) 0.4581(2)
O8B O -0.1488(4) 0.7527(4) 0.4126(2)
O1A O -0.0745(2) 1.1869(3) 0.50587(15)
O2A O -0.0228(3) 1.2079(4) 0.4944(2)
O5A O -0.02558(36) 1.21277(41) 0.42075(17)
O6A O -0.05941(32) 1.22720(36) 0.44200(16)
O7A O -0.12068(18) 1.15144(41) 0.4581(2)
O8A O -0.0985(2) 1.1488(4) 0.4126(2)
C1B C -0.2018(13) 0.7466(7) 0.5161(4)
C1A C -0.0516(11) 1.2018(13) 0.5161(4)
C3B C -0.2153(5) 0.7463(4) 0.5362(8)
C3A C -0.0384(3) 1.2153(5) 0.5362(8)
C5B C -0.2185(6) 0.7230(4) 0.5691(4)
C6B C -0.2334(10) 0.7561(5) 0.5538(3)
C5A C -0.0585(4) 1.2185(6) 0.5691(4)
C6A C -0.0105(9) 1.2334(10) 0.5538(3)
H1B H -0.2083 0.7100 0.5656
C9B C -0.2333(5) 0.7177(3) 0.6015(3)
C10B C -0.2501(4) 0.7577(3) 0.5842(5)
H2B H -0.2381 0.7687 0.5389
H1A H -0.0817 1.2083 0.5656
C9A C -0.0490(4) 1.2333(5) 0.6015(3)
C10A C 0.0078(3) 1.2501(4) 0.5842(5)
H2A H 0.0068 1.2381 0.5389
H3B H -0.2326 0.7023 0.6159
C13B C -0.2483(5) 0.7363(3) 0.6104(3)
H4B H -0.2606 0.7706 0.5865
H3A H -0.0651 1.2326 0.6159
C13A C -0.0154(4) 1.2483(5) 0.6104(3)
H4A H 0.0312 1.2606 0.5865
C15B C -0.2600(4) 0.7317(3) 0.6459(3)
C15A C -0.0083(3) 1.2600(4) 0.6459(3)
C55A C 0.0332(5) 1.0069(6) 0.8146(5)
C17B C -0.2564(4) 0.7588(3) 0.6634(3)
C18B C -0.2775(4) 0.6994(3) 0.6617(3)
C17A C 0.0152(3) 1.2564(4) 0.6634(3)
C18A C -0.0231(3) 1.2775(4) 0.6617(3)
C52B C -0.0360(5) 0.9915(4) 0.8111(4)
C52A C 0.0275(3) 1.0360(5) 0.8111(4)
H7B H -0.2450 0.7800 0.6536
C20B C -0.2685(4) 0.7567(3) 0.6950(3)
C21B C -0.2904(4) 0.6964(3) 0.6935(2)
H8B H -0.2803 0.6803 0.6507
H7A H 0.0250 1.2450 0.6536
C20A C 0.0252(3) 1.2685(4) 0.6950(3)
C21A C -0.0132(3) 1.2904(4) 0.6935(2)
H8A H -0.0394 1.2803 0.6507
C50B C -0.0712(5) 0.9850(4) 0.8115(4)
C55B C -0.0069(6) 1.0263(4) 0.8146(5)
C50A C 0.0562(3) 1.0712(5) 0.8115(4)
C22B C -0.2853(4) 0.7251(3) 0.7091(2)
C23B C -0.26386(26) 0.7856(2) 0.7136(2)
C24B C -0.3098(4) 0.6621(3) 0.7088(2)
C22A C 0.0104(3) 1.2853(4) 0.7091(2)
C23A C 0.04946(17) 1.26386(26) 0.7136(2)
C24A C -0.0281(3) 1.3098(4) 0.7088(2)
C47B C -0.0954(5) 0.9588(4) 0.8305(3)
C48B C -0.0810(4) 1.0007(3) 0.7882(3)
C47A C 0.0542(3) 1.0954(5) 0.8305(3)
C48A C 0.0817(3) 1.0810(4) 0.7882(3)
H10B H -0.2935 0.7232 0.7303
C25B C -0.23871(36) 0.8179(3) 0.70448(15)
C26B C -0.28606(34) 0.78154(17) 0.7389(3)
C27B C -0.3385(4) 0.6550(3) 0.7285(3)
C28B C -0.3030(4) 0.6368(3) 0.7043(3)
H10A H 0.0167 1.2935 0.7303
C25A C 0.05661(19) 1.23871(36) 0.70448(15)
C26A C 0.0676(3) 1.28606(34) 0.7389(3)
C27A C -0.0065(3) 1.3385(4) 0.7285(3)
C28A C -0.0602(3) 1.3030(4) 0.7043(3)
C43B C -0.1296(4) 0.9482(3) 0.8262(3)
C44B C -0.11508(28) 0.9902(2) 0.7840(2)
C43A C 0.0778(3) 1.1296(4) 0.8262(3)
C44A C 0.10528(19) 1.11508(28) 0.7840(2)
H11B H -0.2239 0.8206 0.6876
C29B C -0.23579(26) 0.84611(17) 0.7206(2)
C30B C -0.2832(3) 0.8097(2) 0.7550(2)
H12B H -0.3445 0.6716 0.7313
C31B C -0.3576(4) 0.6239(3) 0.7435(3)
C32B C -0.3221(4) 0.6064(3) 0.7215(3)
H13B H -0.2860 0.6394 0.6900
H11A H 0.0445 1.2239 0.6876
C29A C 0.0819(2) 1.23579(26) 0.7206(2)
C30A C 0.0929(2) 1.2832(3) 0.7550(2)
H12A H 0.0161 1.3445 0.7313
C31A C -0.0185(3) 1.3576(4) 0.7435(3)
C32A C -0.0715(3) 1.3221(4) 0.7215(3)
H13A H -0.0746 1.2860 0.6900
C40B C -0.1394(3) 0.9639(2) 0.8030(2)
C40A C 0.1033(2) 1.1394(3) 0.8030(2)
H14B H -0.2190 0.8677 0.7145
C33B C -0.25806(25) 0.84203(19) 0.7458(2)
H15B H -0.3765 0.6195 0.7559
C34B C -0.3484(4) 0.5995(2) 0.7401(3)
H16B H -0.3157 0.5900 0.7197
H14A H 0.0867 1.2190 0.7145
C33A C 0.10009(17) 1.25806(25) 0.7458(2)
H15A H -0.0040 1.3765 0.7559
C34A C -0.0521(3) 1.3484(4) 0.7401(3)
H16A H -0.0943 1.3157 0.7197
C38B C -0.1770(4) 0.9534(3) 0.7988(3)
C38A C 0.1304(3) 1.1770(4) 0.7988(3)
C35B C -0.2525(5) 0.8762(4) 0.7634(4)
C36B C -0.3687(3) 0.5667(2) 0.7573(3)
C35A C 0.1287(3) 1.2525(5) 0.7634(4)
C36A C -0.0646(2) 1.3687(3) 0.7573(3)
O15D O -0.11696(19) 0.58693(42) 1.09360(17)
O16D O -0.1180(4) 0.6261(9) 1.1209(3)
O7G O 0.21265(18) 0.81811(41) 1.1248(2)
O8G O 0.2348(2) 0.8155(4) 1.0793(2)
O13B O -0.18536(23) 0.96965(16) 0.78176(18)
O14B O -0.19669(23) 0.92758(18) 0.81692(15)
O13A O 0.15501(16) 1.18536(23) 0.78176(18)
O14A O 0.12427(15) 1.19669(23) 0.81692(15)
O9B O -0.2338(3) 0.9038(2) 0.75095(19)
O10B O -0.26770(25) 0.87015(17) 0.78906(19)
O5D O -0.35891(36) 0.54610(41) 0.75408(17)
O6D O -0.39274(32) 0.56053(36) 0.77533(16)
O9A O 0.1376(2) 1.2338(3) 0.75095(19)
O10A O 0.13785(18) 1.26770(25) 0.78906(19)
O5C O -0.09498(19) 1.35891(36) 0.75408(17)
O6C O -0.04672(17) 1.39274(32) 0.77533(16)
In2D In -0.162135(15) 0.573697(21) 1.127879(14)
In1G In 0.268923(17) 0.842913(24) 1.124468(16)
In2B In -0.240364(21) 0.930834(15) 0.794546(14)
In2A In 0.171198(15) 1.240364(21) 0.794546(14)
In1D In -0.397743(17) 0.509579(24) 0.791134(16)
In1C In -0.092677(17) 1.397743(17) 0.791134(16)
O11B O -0.23843(26) 0.9654(2) 0.83641(16)
O12B O -0.26628(28) 0.90952(19) 0.84359(17)
O15B O -0.25360(42) 0.96277(38) 0.76027(17)
O16B O -0.2928(9) 0.9225(8) 0.7876(3)
O11A O 0.20383(17) 1.23843(26) 0.83641(16)
O12A O 0.1758(2) 1.26628(28) 0.84359(17)
O15A O 0.21637(19) 1.25360(42) 0.76027(17)
O16A O 0.2153(4) 1.2928(9) 0.7876(3)
C37B C -0.2567(5) 0.9380(4) 0.8532(3)
C37A C 0.1947(3) 1.2567(5) 0.8532(3)
C39B C -0.2649(3) 0.9453(2) 0.88851(15)
C39A C 0.2102(2) 1.2649(3) 0.88851(15)
C41B C -0.2663(3) 0.9739(2) 0.8978(2)
C42B C -0.27205(26) 0.91989(19) 0.9113(2)
C41A C 0.2402(2) 1.2663(3) 0.8978(2)
C42A C 0.19194(18) 1.27205(26) 0.9113(2)
C45B C -0.27495(25) 0.97708(17) 0.9298(2)
C46B C -0.28066(27) 0.92304(18) 0.94329(19)
C45A C 0.25203(19) 1.27495(25) 0.9298(2)
C46A C 0.2037(2) 1.28066(27) 0.94329(19)
C49B C -0.2822(3) 0.9516(2) 0.95254(16)
C49A C 0.2338(2) 1.2822(3) 0.95254(16)
C51B C -0.2952(4) 0.9531(3) 0.9855(2)
C51A C 0.2483(3) 1.2952(4) 0.9855(2)
C53B C -0.2891(4) 0.9834(3) 1.0007(2)
C54B C -0.3146(3) 0.9235(2) 1.0028(2)
C53A C 0.2725(2) 1.2891(4) 1.0007(2)
C54A C 0.2381(2) 1.3146(3) 1.0028(2)
H17B H -0.2766 1.0040 0.9899
C56B C -0.3020(3) 0.9823(2) 1.0321(2)
C57B C -0.3266(4) 0.9218(3) 1.0331(3)
H18B H -0.3196 0.9033 0.9926
C56A C 0.2843(2) 1.3020(3) 1.0321(2)
H17A H 0.2806 1.2766 0.9899
C57A C 0.2484(3) 1.3266(4) 1.0331(3)
H18A H 0.2229 1.3196 0.9926
C58B C -0.3207(4) 0.9519(3) 1.0490(2)
C59B C -0.2945(3) 1.0153(2) 1.04839(17)
C60B C -0.3473(4) 0.8890(3) 1.0515(3)
C59A C 0.3098(2) 1.2945(3) 1.04839(17)
C58A C 0.2726(2) 1.3207(4) 1.0490(2)
C60A C 0.2363(2) 1.3473(4) 1.0515(3)
H19B H -0.3290 0.9514 1.0699
C61B C -0.26176(36) 1.0428(3) 1.0498(2)
C62B C -0.32117(36) 1.01773(19) 1.0620(2)
C63B C -0.3451(4) 0.8852(3) 1.0851(3)
C64B C -0.3699(4) 0.8590(3) 1.0333(2)
C61A C 0.30456(19) 1.26176(36) 1.0498(2)
C62A C 0.3389(3) 1.32117(36) 1.0620(2)
H19A H 0.2804 1.3290 1.0699
C63A C 0.2303(3) 1.3451(4) 1.0851(3)
C64A C 0.2289(3) 1.3699(4) 1.0333(2)
C65B C -0.2557(4) 1.0727(2) 1.0648(2)
C66B C -0.31514(27) 1.0476(2) 1.0770(2)
H20B H -0.3314 0.9036 1.0985
C67B C -0.3646(5) 0.8521(4) 1.0983(3)
C68B C -0.3873(4) 0.8291(3) 1.0481(3)
H21B H -0.3723 0.8606 1.0108
C65A C 0.3284(3) 1.2557(4) 1.0648(2)
C66A C 0.36274(18) 1.31514(27) 1.0770(2)
H20A H 0.2350 1.3314 1.0985
C67A C 0.2167(3) 1.3646(5) 1.0983(3)
C68A C 0.2164(3) 1.3873(4) 1.0481(3)
H21A H 0.2329 1.3723 1.0108
C69B C -0.28238(26) 1.07512(17) 1.07841(19)
H22B H -0.3642 0.8491 1.1208
C70B C -0.3840(4) 0.8243(3) 1.0788(4)
H23B H -0.4026 0.8107 1.0356
C69A C 0.3575(2) 1.28238(26) 1.07841(19)
H22A H 0.2133 1.3642 1.1208
C70A C 0.2083(2) 1.3840(4) 1.0788(4)
H23A H 0.2133 1.4026 1.0356
C71B C -0.2750(4) 1.1084(2) 1.0966(2)
C72B C -0.4006(4) 0.7911(3) 1.0957(2)
C71A C 0.3834(3) 1.2750(4) 1.0966(2)
C72A C 0.1917(3) 1.4006(4) 1.0957(2)
O15C O -0.29610(38) 1.11696(19) 1.09360(17)
O16C O -0.2558(8) 1.1180(4) 1.1209(3)
O7F O -0.39455(37) 0.78735(18) 1.1248(2)
O8F O -0.4194(4) 0.7652(2) 1.0793(2)
O15E O 0.41307(42) 1.29610(38) 1.09360(17)
O16E O 0.3739(9) 1.2558(8) 1.1209(3)
O7H O 0.18189(41) 1.39455(37) 1.1248(2)
O8H O 0.1845(4) 1.4194(4) 1.0793(2)
In2C In -0.264167(15) 1.162135(15) 1.127879(14)
In1F In -0.426011(17) 0.731077(17) 1.124468(16)
In2E In 0.426303(21) 1.264167(15) 1.127879(14)
In1H In 0.157087(24) 1.426011(17) 1.124468(16)
C114? C 0.1899(3) 0.9041(3) 0.7513(5)
C115? C 0.0473(4) 0.9540(5) 0.8151(5)
C116? C 0.0575(4) 0.9301(3) 0.8124(6)
C117? C 0.0213(4) 0.9487(4) 0.7937(5)
C118? C 0.0036(6) 0.9203(4) 0.7739(5)
C119? C 0.0103(5) 0.9741(5) 0.7899(5)
C120? C -0.0253(4) 0.9654(4) 0.7949(4)
C121? C 0.1781(3) 1.0582(5) 0.4580(5)
C122? C 0.1382(8) 1.0249(16) 0.456(2)
C123? C 0.0774(4) 0.7754(7) 0.9342(6)
C124? C 0.0823(5) 0.7902(8) 0.9033(7)
C125? C 0.0199(3) 0.7617(5) 0.9357(4)
C126? C 0.0229(3) 0.7723(5) 0.9032(4)
C127? C -0.0281(7) 0.6976(7) 1.0762(5)
C128? C -0.0564(6) 0.6739(3) 1.0934(5)
C129? C -0.0643(5) 0.6329(4) 1.0506(4)
C130? C -0.0376(4) 0.6593(3) 1.0339(4)
O19? O -0.1267(3) 0.6284(3) 1.1050(3)
C131? C 0.4349(2) 1.06357(19) 0.7538(2)
loop_
_geom_bond_atom_site_label_1
_geom_bond_atom_site_label_2
_geom_bond_site_symmetry_1
_geom_bond_site_symmetry_2
In1 O1 1_555 1_555
O1 C1 1_555 1_555
O2 In1 1_555 1_555
O3 In1 1_555 1_555
O4 In1 1_555 1_555
O5 In1 1_555 1_555
O6 In1 1_555 1_555
O7 In1 1_555 1_555
O8 In1 1_555 1_555
C1 O2 1_555 1_555
C2 O3 1_555 1_555
C3 C1 1_555 1_555
C4 C2 1_555 1_555
C5 C3 1_555 1_555
C6 C3 1_555 1_555
C7 C4 1_555 1_555
C8 C4 1_555 1_555
H1 C5 1_555 1_555
C9 C5 1_555 1_555
C10 C6 1_555 1_555
H2 C6 1_555 1_555
C11 C7 1_555 1_555
C12 C8 1_555 1_555
H3 C9 1_555 1_555
C13 C9 1_555 1_555
H4 C10 1_555 1_555
H5 C11 1_555 1_555
C14 C11 1_555 1_555
H6 C12 1_555 1_555
C15 C13 1_555 1_555
C16 C14 1_555 1_555
C17 C15 1_555 1_555
C18 C15 1_555 1_555
C19 C16 1_555 1_555
H7 C17 1_555 1_555
C20 C17 1_555 1_555
C21 C18 1_555 1_555
H8 C18 1_555 1_555
H9 C19 1_555 1_555
C22 C20 1_555 1_555
C23 C20 1_555 1_555
C24 C21 1_555 1_555
H10 C22 1_555 1_555
C25 C23 1_555 1_555
C26 C23 1_555 1_555
C27 C24 1_555 1_555
C28 C24 1_555 1_555
H11 C25 1_555 1_555
C29 C25 1_555 1_555
C30 C26 1_555 1_555
H12 C27 1_555 1_555
C31 C27 1_555 1_555
C32 C28 1_555 1_555
H13 C28 1_555 1_555
H14 C29 1_555 1_555
C33 C29 1_555 1_555
H15 C31 1_555 1_555
C34 C31 1_555 1_555
H16 C32 1_555 1_555
C35 C33 1_555 1_555
C36 C34 1_555 1_555
O9 C35 1_555 1_555
O10 C35 1_555 1_555
In2 O9 1_555 1_555
O11 In2 1_555 1_555
O12 In2 1_555 1_555
O13 In2 1_555 1_555
O14 In2 1_555 1_555
O15 In2 1_555 1_555
O16 In2 1_555 1_555
C37 O11 1_555 1_555
C38 O13 1_555 1_555
C39 C37 1_555 1_555
C40 C38 1_555 1_555
C41 C39 1_555 1_555
C42 C39 1_555 1_555
C43 C40 1_555 1_555
C44 C40 1_555 1_555
C45 C41 1_555 1_555
C46 C42 1_555 1_555
C47 C43 1_555 1_555
C48 C44 1_555 1_555
C49 C45 1_555 1_555
C50 C47 1_555 1_555
C51 C49 1_555 1_555
C52 C50 1_555 1_555
C53 C51 1_555 1_555
C54 C51 1_555 1_555
C55 C52 1_555 1_555
H17 C53 1_555 1_555
C56 C53 1_555 1_555
C57 C54 1_555 1_555
H18 C54 1_555 1_555
C58 C56 1_555 1_555
C59 C56 1_555 1_555
C60 C57 1_555 1_555
H19 C58 1_555 1_555
C61 C59 1_555 1_555
C62 C59 1_555 1_555
C63 C60 1_555 1_555
C64 C60 1_555 1_555
C65 C61 1_555 1_555
C66 C62 1_555 1_555
H20 C63 1_555 1_555
C67 C63 1_555 1_555
C68 C64 1_555 1_555
H21 C64 1_555 1_555
C69 C65 1_555 1_555
H22 C67 1_555 1_555
C70 C67 1_555 1_555
H23 C68 1_555 1_555
C71 C69 1_555 1_555
C72 C70 1_555 1_555
C73 C74 1_555 1_555
C74 H24 1_555 1_555
C75 C74 1_555 1_555
C76 C75 1_555 1_555
H25 C76 1_555 1_555
C77 C76 1_555 1_555
N1 C73 1_555 1_555
C78 C75 1_555 1_555
C79 C78 1_555 1_555
H26 C79 1_555 1_555
C80 C79 1_555 1_555
H27 C80 1_555 1_555
C81 C80 1_555 1_555
H28 C81 1_555 1_555
C82 C81 1_555 1_555
H29 C82 1_555 1_555
C83 C78 1_555 1_555
H30 C83 1_555 1_555
O17 C87 1_555 1_555
C84 N1 1_555 1_555
C85 C84 1_555 1_555
H31 C85 1_555 1_555
C86 C85 1_555 1_555
C87 C86 1_555 1_555
C88 C87 1_555 1_555
C89 C84 1_555 1_555
H32 C89 1_555 1_555
C90 C73 1_555 1_555
C91 C90 1_555 1_555
H33 C91 1_555 1_555
C92 C91 1_555 1_555
H34 C92 1_555 1_555
C93 C92 1_555 1_555
H35 C93 1_555 1_555
C94 C93 1_555 1_555
H36 C94 1_555 1_555
C95 C90 1_555 1_555
H37 C95 1_555 1_555
C96 C77 1_555 1_555
C97 C96 1_555 1_555
H38 C97 1_555 1_555
C98 C97 1_555 1_555
H39 C98 1_555 1_555
C99 C98 1_555 1_555
H40 C99 1_555 1_555
C100 C99 1_555 1_555
H41 C100 1_555 1_555
C101 C96 1_555 1_555
H42 C101 1_555 1_555
C102 C88 1_555 1_555
C103 C102 1_555 1_555
H43 C103 1_555 1_555
C104 C103 1_555 1_555
H44 C104 1_555 1_555
C105 C104 1_555 1_555
H45 C105 1_555 1_555
C106 C105 1_555 1_555
H46 C106 1_555 1_555
C107 C102 1_555 1_555
H47 C107 1_555 1_555
C108 C86 1_555 1_555
C109 C108 1_555 1_555
H48 C109 1_555 1_555
C110 C109 1_555 1_555
H49 C110 1_555 1_555
C111 C110 1_555 1_555
H50 C111 1_555 1_555
C112 C111 1_555 1_555
H51 C112 1_555 1_555
C113 C108 1_555 1_555
H52 C113 1_555 1_555
C19A C16 1_555 1_555
C16B C19 1_555 1_555
C16A C19A 1_555 1_555
H9A C19A 1_555 1_555
C14B C16B 1_555 1_555
C19B C16B 1_555 1_555
C14A C16A 1_555 1_555
C11B C14B 1_555 1_555
C12B C14B 1_555 1_555
H9B C19B 1_555 1_555
C11A C14A 1_555 1_555
C12A C14A 1_555 1_555
C7B C11B 1_555 1_555
H5B C11B 1_555 1_555
C8B C12B 1_555 1_555
H6B C12B 1_555 1_555
C7A C11A 1_555 1_555
H5A C11A 1_555 1_555
C8A C12A 1_555 1_555
H6A C12A 1_555 1_555
C4B C7B 1_555 1_555
C4A C7A 1_555 1_555
C2B C4B 1_555 1_555
C2A C4A 1_555 1_555
O5E C36 1_555 1_555
O6E C36 1_555 1_555
O3B C2B 1_555 1_555
O4B C2B 1_555 1_555
O3A C2A 1_555 1_555
O4A C2A 1_555 1_555
In1E O5E 1_555 1_555
In1B O3B 1_555 1_555
In1A O3A 1_555 1_555
O1B In1B 1_555 1_555
O2B In1B 1_555 1_555
O5B In1B 1_555 1_555
O6B In1B 1_555 1_555
O7B In1B 1_555 1_555
O8B In1B 1_555 1_555
O1A In1A 1_555 1_555
O2A In1A 1_555 1_555
O5A In1A 1_555 1_555
O6A In1A 1_555 1_555
O7A In1A 1_555 1_555
O8A In1A 1_555 1_555
C1B O1B 1_555 1_555
C1A O1A 1_555 1_555
C3B C1B 1_555 1_555
C3A C1A 1_555 1_555
C5B C3B 1_555 1_555
C6B C3B 1_555 1_555
C5A C3A 1_555 1_555
C6A C3A 1_555 1_555
H1B C5B 1_555 1_555
C9B C5B 1_555 1_555
C10B C6B 1_555 1_555
H2B C6B 1_555 1_555
H1A C5A 1_555 1_555
C9A C5A 1_555 1_555
C10A C6A 1_555 1_555
H2A C6A 1_555 1_555
H3B C9B 1_555 1_555
C13B C9B 1_555 1_555
H4B C10B 1_555 1_555
H3A C9A 1_555 1_555
C13A C9A 1_555 1_555
H4A C10A 1_555 1_555
C15B C13B 1_555 1_555
C15A C13A 1_555 1_555
C55A C52 1_555 1_555
C17B C15B 1_555 1_555
C18B C15B 1_555 1_555
C17A C15A 1_555 1_555
C18A C15A 1_555 1_555
C52B C55 1_555 1_555
C52A C55A 1_555 1_555
H7B C17B 1_555 1_555
C20B C17B 1_555 1_555
C21B C18B 1_555 1_555
H8B C18B 1_555 1_555
H7A C17A 1_555 1_555
C20A C17A 1_555 1_555
C21A C18A 1_555 1_555
H8A C18A 1_555 1_555
C50B C52B 1_555 1_555
C55B C52B 1_555 1_555
C50A C52A 1_555 1_555
C22B C20B 1_555 1_555
C23B C20B 1_555 1_555
C24B C21B 1_555 1_555
C22A C20A 1_555 1_555
C23A C20A 1_555 1_555
C24A C21A 1_555 1_555
C47B C50B 1_555 1_555
C48B C50B 1_555 1_555
C47A C50A 1_555 1_555
C48A C50A 1_555 1_555
H10B C22B 1_555 1_555
C25B C23B 1_555 1_555
C26B C23B 1_555 1_555
C27B C24B 1_555 1_555
C28B C24B 1_555 1_555
H10A C22A 1_555 1_555
C25A C23A 1_555 1_555
C26A C23A 1_555 1_555
C27A C24A 1_555 1_555
C28A C24A 1_555 1_555
C43B C47B 1_555 1_555
C44B C48B 1_555 1_555
C43A C47A 1_555 1_555
C44A C48A 1_555 1_555
H11B C25B 1_555 1_555
C29B C25B 1_555 1_555
C30B C26B 1_555 1_555
H12B C27B 1_555 1_555
C31B C27B 1_555 1_555
C32B C28B 1_555 1_555
H13B C28B 1_555 1_555
H11A C25A 1_555 1_555
C29A C25A 1_555 1_555
C30A C26A 1_555 1_555
H12A C27A 1_555 1_555
C31A C27A 1_555 1_555
C32A C28A 1_555 1_555
H13A C28A 1_555 1_555
C40B C43B 1_555 1_555
C40A C43A 1_555 1_555
H14B C29B 1_555 1_555
C33B C29B 1_555 1_555
H15B C31B 1_555 1_555
C34B C31B 1_555 1_555
H16B C32B 1_555 1_555
H14A C29A 1_555 1_555
C33A C29A 1_555 1_555
H15A C31A 1_555 1_555
C34A C31A 1_555 1_555
H16A C32A 1_555 1_555
C38B C40B 1_555 1_555
C38A C40A 1_555 1_555
C35B C33B 1_555 1_555
C36B C34B 1_555 1_555
C35A C33A 1_555 1_555
C36A C34A 1_555 1_555
O15D C71 1_555 1_555
O16D C71 1_555 1_555
O7G C72 1_555 1_555
O8G C72 1_555 1_555
O13B C38B 1_555 1_555
O14B C38B 1_555 1_555
O13A C38A 1_555 1_555
O14A C38A 1_555 1_555
O9B C35B 1_555 1_555
O10B C35B 1_555 1_555
O5D C36B 1_555 1_555
O6D C36B 1_555 1_555
O9A C35A 1_555 1_555
O10A C35A 1_555 1_555
O5C C36A 1_555 1_555
O6C C36A 1_555 1_555
In2D O15D 1_555 1_555
In1G O7G 1_555 1_555
In2B O13B 1_555 1_555
In2A O13A 1_555 1_555
In1D O5D 1_555 1_555
In1C O5C 1_555 1_555
O11B In2B 1_555 1_555
O12B In2B 1_555 1_555
O15B In2B 1_555 1_555
O16B In2B 1_555 1_555
O11A In2A 1_555 1_555
O12A In2A 1_555 1_555
O15A In2A 1_555 1_555
O16A In2A 1_555 1_555
C37B O11B 1_555 1_555
C37A O11A 1_555 1_555
C39B C37B 1_555 1_555
C39A C37A 1_555 1_555
C41B C39B 1_555 1_555
C42B C39B 1_555 1_555
C41A C39A 1_555 1_555
C42A C39A 1_555 1_555
C45B C41B 1_555 1_555
C46B C42B 1_555 1_555
C45A C41A 1_555 1_555
C46A C42A 1_555 1_555
C49B C45B 1_555 1_555
C49A C45A 1_555 1_555
C51B C49B 1_555 1_555
C51A C49A 1_555 1_555
C53B C51B 1_555 1_555
C54B C51B 1_555 1_555
C53A C51A 1_555 1_555
C54A C51A 1_555 1_555
H17B C53B 1_555 1_555
C56B C53B 1_555 1_555
C57B C54B 1_555 1_555
H18B C54B 1_555 1_555
C56A C53A 1_555 1_555
H17A C53A 1_555 1_555
C57A C54A 1_555 1_555
H18A C54A 1_555 1_555
C58B C56B 1_555 1_555
C59B C56B 1_555 1_555
C60B C57B 1_555 1_555
C59A C56A 1_555 1_555
C58A C56A 1_555 1_555
C60A C57A 1_555 1_555
H19B C58B 1_555 1_555
C61B C59B 1_555 1_555
C62B C59B 1_555 1_555
C63B C60B 1_555 1_555
C64B C60B 1_555 1_555
C61A C59A 1_555 1_555
C62A C59A 1_555 1_555
H19A C58A 1_555 1_555
C63A C60A 1_555 1_555
C64A C60A 1_555 1_555
C65B C61B 1_555 1_555
C66B C62B 1_555 1_555
H20B C63B 1_555 1_555
C67B C63B 1_555 1_555
C68B C64B 1_555 1_555
H21B C64B 1_555 1_555
C65A C61A 1_555 1_555
C66A C62A 1_555 1_555
H20A C63A 1_555 1_555
C67A C63A 1_555 1_555
C68A C64A 1_555 1_555
H21A C64A 1_555 1_555
C69B C65B 1_555 1_555
H22B C67B 1_555 1_555
C70B C67B 1_555 1_555
H23B C68B 1_555 1_555
C69A C65A 1_555 1_555
H22A C67A 1_555 1_555
C70A C67A 1_555 1_555
H23A C68A 1_555 1_555
C71B C69B 1_555 1_555
C72B C70B 1_555 1_555
C71A C69A 1_555 1_555
C72A C70A 1_555 1_555
O15C C71B 1_555 1_555
O16C C71B 1_555 1_555
O7F C72B 1_555 1_555
O8F C72B 1_555 1_555
O15E C71A 1_555 1_555
O16E C71A 1_555 1_555
O7H C72A 1_555 1_555
O8H C72A 1_555 1_555
In2C O15C 1_555 1_555
In1F O7F 1_555 1_555
In2E O15E 1_555 1_555
In1H O7H 1_555 1_555
O4 C2 1_555 1_555
C10 C13 1_555 1_555
C12 C14 1_555 1_555
C21 C22 1_555 1_555
C30 C33 1_555 1_555
C32 C34 1_555 1_555
O10 In2 1_555 1_555
O12 C37 1_555 1_555
O14 C38 1_555 1_555
C46 C49 1_555 1_555
C48 C50 1_555 1_555
C57 C58 1_555 1_555
C66 C69 1_555 1_555
C68 C70 1_555 1_555
C77 N1 1_555 1_555
C82 C83 1_555 1_555
C88 C89 1_555 1_555
C94 C95 1_555 1_555
C100 C101 1_555 1_555
C106 C107 1_555 1_555
C112 C113 1_555 1_555
C16A C19B 1_555 1_555
C8B C4B 1_555 1_555
C8A C4A 1_555 1_555
O6E In1E 1_555 1_555
O4B In1B 1_555 1_555
O4A In1A 1_555 1_555
O2B C1B 1_555 1_555
O2A C1A 1_555 1_555
C10B C13B 1_555 1_555
C10A C13A 1_555 1_555
C52A C55B 1_555 1_555
C21B C22B 1_555 1_555
C21A C22A 1_555 1_555
C44B C40B 1_555 1_555
C44A C40A 1_555 1_555
C30B C33B 1_555 1_555
C32B C34B 1_555 1_555
C30A C33A 1_555 1_555
C32A C34A 1_555 1_555
O16D In2D 1_555 1_555
O8G In1G 1_555 1_555
O14B In2B 1_555 1_555
O14A In2A 1_555 1_555
O9B In2B 1_555 1_555
O10B In2B 1_555 1_555
O6D In1D 1_555 1_555
O9A In2A 1_555 1_555
O10A In2A 1_555 1_555
O6C In1C 1_555 1_555
O12B C37B 1_555 1_555
O12A C37A 1_555 1_555
C46B C49B 1_555 1_555
C46A C49A 1_555 1_555
C57B C58B 1_555 1_555
C57A C58A 1_555 1_555
C66B C69B 1_555 1_555
C68B C70B 1_555 1_555
C66A C69A 1_555 1_555
C68A C70A 1_555 1_555
O16C In2C 1_555 1_555
O8F In1F 1_555 1_555
O16E In2E 1_555 1_555
O8H In1H 1_555 1_555

#END
