
#######################################################################
#
#                 Cambridge Crystallographic Data Centre
#                                CCDC 
#
#######################################################################
#
# If this CIF has been generated from an entry in the Cambridge 
# Structural Database, then it will include bibliographic, chemical, 
# crystal, experimental, refinement or atomic coordinate data resulting 
# from the CCDC's data processing and validation procedures.
#
#######################################################################

data_FUMHEC
_symmetry_cell_setting           triclinic
_symmetry_space_group_name_H-M   'P -1'
_symmetry_Int_Tables_number      2
_space_group_name_Hall           '-P 1'
loop_
_symmetry_equiv_pos_site_id
_symmetry_equiv_pos_as_xyz
1 x,y,z
2 -x,-y,-z
_cell_length_a                   10.744(5)
_cell_length_b                   11.971(5)
_cell_length_c                   13.304(5)
_cell_angle_alpha                91.512(5)
_cell_angle_beta                 111.418(5)
_cell_angle_gamma                106.334(5)
_cell_volume                     1512.61
loop_
_atom_site_label
_atom_site_type_symbol
_atom_site_fract_x
_atom_site_fract_y
_atom_site_fract_z
Co1 Co 0.5000 1.0000 1.0000
Co2 Co 1.0000 1.0000 1.0000
N1 N 0.7577(5) 1.0551(4) 0.6793(3)
O1 O 0.5962(3) 0.8699(3) 0.9779(3)
O2 O 0.8189(3) 0.9824(3) 1.0259(3)
N2 N 0.1963(5) 0.9297(4) 0.6699(3)
N3 N 0.3469(4) 0.9305(4) 0.8351(3)
N4 N 0.7638(5) 1.2976(4) 0.9282(4)
N5 N 0.8752(4) 0.8282(4) 0.9183(3)
C1 C -0.0366(6) 0.8828(5) 0.5220(4)
C2 C 0.7181(5) 0.8893(4) 0.9815(4)
C3 C 0.7479(5) 0.7947(5) 0.9233(4)
C4 C 0.2530(5) 0.9769(4) 0.7757(4)
H1 H 0.2283 1.0357 0.8034
N6 N 0.9127(5) 1.0614(5) 0.8454(3)
N7 N 0.6113(4) 1.1336(3) 0.9319(3)
C5 C 0.8545(12) 0.5742(8) 0.7333(6)
C6 C 0.7799(6) 1.0199(6) 0.7774(4)
H2 H 0.7092 0.9715 0.7956
C7 C 0.0939(6) 0.9644(5) 0.5821(4)
C8 C 0.9913(6) 1.4091(5) 0.9295(5)
H3 H 0.9831 1.3463 0.8823
C9 C 0.8838(5) 1.4032(4) 0.9660(4)
C10 C 0.7223(5) 1.2211(4) 0.9896(4)
H4 H 0.7675 1.2293 1.0650
C11 C 1.1105(6) 1.5074(5) 0.9625(5)
C12 C 0.6253(6) 1.0244(5) 0.5869(4)
C13 C 0.2585(7) 0.8450(5) 0.6616(4)
H5 H 0.2408 0.7969 0.5986
C14 C 0.5490(6) 0.9084(6) 0.5485(4)
C15 C 0.8842(6) 1.1286(6) 0.6862(4)
H6 H 0.9018 1.1691 0.6316
C16 C 0.4199(6) 0.8849(6) 0.4583(4)
H7 H 0.3648 0.8074 0.4291
O3 O 0.9797(8) 0.6103(6) 0.7443(5)
C17 C 0.9800(6) 1.1313(5) 0.7881(4)
H8 H 1.0754 1.1736 0.8147
C18 C 0.6508(6) 0.6865(5) 0.8745(5)
H9 H 0.5646 0.6634 0.8817
C19 C -0.1300(6) 0.9211(5) 0.4383(4)
H10 H -0.2180 0.8689 0.3955
C20 C 0.8109(8) 0.6473(6) 0.8040(5)
C21 C 0.9064(6) 0.7561(6) 0.8588(4)
H11 H 0.9941 0.7796 0.8542
C22 C 0.5782(6) 1.1570(5) 0.8258(5)
H12 H 0.5022 1.1104 0.7654
C23 C 0.6728(7) 1.2576(5) 0.8227(4)
H13 H 0.6751 1.2922 0.7613
C24 C 0.3496(6) 0.8463(5) 0.7630(4)
H14 H 0.4061 0.7977 0.7821
O4 O 0.7579(9) 0.4840(5) 0.6742(6)
C25 C 1.2259(7) 1.5116(6) 0.9255(6)
H15 H 1.2279 1.4331 0.9116
H16 H 1.3141 1.5575 0.9812
H17 H 1.2105 1.5467 0.8598
C26 C 0.6855(7) 0.6122(6) 0.8135(5)
H18 H 0.6219 0.5384 0.7795
C27 C 0.5943(9) 0.8050(7) 0.5949(6)
H19 H 0.6942 0.8232 0.6163
H20 H 0.5468 0.7365 0.5404
H21 H 0.5707 0.7900 0.6573
C28 C -0.0835(8) 0.7561(7) 0.5414(7)
H22 H -0.0216 0.7162 0.5321
H23 H -0.1778 0.7174 0.4902
H24 H -0.0807 0.7548 0.6143
N1A N 0.2423(5) 0.9449(4) 0.3207(3)
N6A N 0.0873(5) 0.9386(5) 0.1546(3)
C6A C 0.2201(6) 0.9801(6) 0.2226(4)
H2A H 0.2908 1.0285 0.2044
C12A C 0.3747(6) 0.9756(5) 0.4131(4)
C14A C 0.4510(6) 1.0916(6) 0.4515(4)
C15A C 0.1158(6) 0.8714(6) 0.3138(4)
H6A H 0.0982 0.8309 0.3684
C16A C 0.5801(6) 1.1151(6) 0.5417(4)
H7A H 0.6352 1.1926 0.5709
C17A C 0.0200(6) 0.8687(5) 0.2119(4)
H8A H -0.0754 0.8264 0.1853
C27A C 0.4057(9) 1.1950(7) 0.4051(6)
H19A H 0.3058 1.1768 0.3837
H20A H 0.4532 1.2635 0.4596
H21A H 0.4293 1.2100 0.3427
N2A N -0.1963(5) 1.0703(4) 0.3301(3)
N3A N -0.3469(4) 1.0695(4) 0.1649(3)
C1A C 0.0366(6) 1.1172(5) 0.4780(4)
C4A C -0.2530(5) 1.0231(4) 0.2243(4)
H1A H -0.2283 0.9643 0.1966
C7A C -0.0939(6) 1.0356(5) 0.4179(4)
C13A C -0.2585(7) 1.1550(5) 0.3384(4)
H5A H -0.2408 1.2031 0.4014
C19A C 0.1300(6) 1.0789(5) 0.5617(4)
H10A H 0.2180 1.1311 0.6045
C24A C -0.3496(6) 1.1537(5) 0.2370(4)
H14A H -0.4061 1.2023 0.2179
C28A C 0.0835(8) 1.2439(7) 0.4586(7)
H22A H 0.0216 1.2838 0.4679
H23A H 0.1778 1.2826 0.5098
H24A H 0.0807 1.2452 0.3857
N4A N 1.2362(5) 1.7024(4) 1.0718(4)
N7A N 1.3887(4) 1.8664(3) 1.0681(3)
C8A C 1.0087(6) 1.5909(5) 1.0705(5)
H3A H 1.0169 1.6537 1.1177
C9A C 1.1162(5) 1.5968(4) 1.0340(4)
C10A C 1.2777(5) 1.7789(4) 1.0104(4)
H4A H 1.2325 1.7707 0.9350
C11A C 0.8895(6) 1.4926(5) 1.0375(5)
C22A C 1.4218(6) 1.8430(5) 1.1742(5)
H12A H 1.4978 1.8896 1.2346
C23A C 1.3272(7) 1.7424(5) 1.1773(4)
H13A H 1.3249 1.7078 1.2387
C25A C 0.7741(7) 1.4884(6) 1.0745(6)
H15A H 0.7721 1.5669 1.0884
H16A H 0.6859 1.4425 1.0188
H17A H 0.7895 1.4533 1.1402
O1A O 0.4038(3) 1.1301(3) 1.0221(3)
O2A O 0.1811(3) 1.0176(3) 0.9741(3)
N5A N 0.1248(4) 1.1718(4) 1.0817(3)
C2A C 0.2819(5) 1.1107(4) 1.0185(4)
C3A C 0.2521(5) 1.2053(5) 1.0767(4)
C5A C 0.1455(12) 1.4258(8) 1.2667(6)
O3A O 0.0203(8) 1.3897(6) 1.2557(5)
C18A C 0.3492(6) 1.3135(5) 1.1255(5)
H9A H 0.4354 1.3366 1.1183
C20A C 0.1891(8) 1.3527(6) 1.1960(5)
C21A C 0.0936(6) 1.2439(6) 1.1412(4)
H11A H 0.0059 1.2204 1.1458
O4A O 0.2421(9) 1.5160(5) 1.3258(6)
C26A C 0.3145(7) 1.3878(6) 1.1865(5)
H18A H 0.3781 1.4616 1.2205
Co1_2 Co -0.5000 1.0000 0.0000
Co1_3 Co 1.5000 2.0000 1.0000
Co2_2 Co 0.0000 1.0000 0.0000
Co2_3 Co 0.0000 1.0000 1.0000
O2A_2 O 1.1811(3) 1.0176(3) 0.9741(3)
N3A_2 N 0.6531(4) 1.0695(4) 1.1649(3)
N5A_2 N 1.1248(4) 1.1718(4) 1.0817(3)
N6A_2 N 1.0873(5) 0.9386(5) 1.1546(3)
N7A_2 N 0.3887(4) 0.8664(3) 1.0681(3)
O5 O 0.8396(11) 0.3674(6) 0.5411(6)
H25 H 0.8943 0.3396 0.5231
H26 H 0.8010 0.4043 0.4913
O6 O 1.1138(10) 0.5221(10) 0.6371(8)
H27 H 1.1596 0.5584 0.7018
H28 H 1.1704 0.5083 0.6112
O7 O 0.6779(18) 0.7288(15) 1.1671(11)
H29 H 0.6646 0.6820 1.1123
H30 H 0.6014 0.7418 1.1596
O8 O 0.6523(15) 0.543(2) 1.2819(13)
H31 H 0.6528 0.5210 1.3424
H32 H 0.7327 0.5899 1.2915
loop_
_geom_bond_atom_site_label_1
_geom_bond_atom_site_label_2
_geom_bond_site_symmetry_1
_geom_bond_site_symmetry_2
Co1 O1 1_555 1_555
Co2 O2 1_555 1_555
N1 C6 1_555 1_555
O1 C2 1_555 1_555
O2 C2 1_555 1_555
N2 C4 1_555 1_555
N3 Co1 1_555 1_555
N4 C9 1_555 1_555
N5 Co2 1_555 1_555
C1 C7 1_555 1_555
C2 C3 1_555 1_555
C3 N5 1_555 1_555
C4 N3 1_555 1_555
H1 C4 1_555 1_555
N6 Co2 1_555 1_555
N7 Co1 1_555 1_555
C5 O3 1_555 1_555
C6 N6 1_555 1_555
H2 C6 1_555 1_555
C7 N2 1_555 1_555
C8 H3 1_555 1_555
C9 C8 1_555 1_555
C10 N4 1_555 1_555
H4 C10 1_555 1_555
C11 C8 1_555 1_555
C12 N1 1_555 1_555
C13 N2 1_555 1_555
H5 C13 1_555 1_555
C14 C12 1_555 1_555
C15 N1 1_555 1_555
H6 C15 1_555 1_555
C16 C14 1_555 1_555
H7 C16 1_555 1_555
C17 N6 1_555 1_555
H8 C17 1_555 1_555
C18 C3 1_555 1_555
H9 C18 1_555 1_555
C19 C1 1_555 1_555
H10 C19 1_555 1_555
C20 C5 1_555 1_555
C21 N5 1_555 1_555
H11 C21 1_555 1_555
C22 N7 1_555 1_555
H12 C22 1_555 1_555
C23 N4 1_555 1_555
H13 C23 1_555 1_555
C24 N3 1_555 1_555
H14 C24 1_555 1_555
O4 C5 1_555 1_555
C25 C11 1_555 1_555
H15 C25 1_555 1_555
H16 C25 1_555 1_555
H17 C25 1_555 1_555
C26 C18 1_555 1_555
H18 C26 1_555 1_555
C27 C14 1_555 1_555
H19 C27 1_555 1_555
H20 C27 1_555 1_555
H21 C27 1_555 1_555
C28 C1 1_555 1_555
H22 C28 1_555 1_555
H23 C28 1_555 1_555
H24 C28 1_555 1_555
O5 H25 1_555 1_555
H26 O5 1_555 1_555
O6 H27 1_555 1_555
H28 O6 1_555 1_555
O7 H29 1_555 1_555
H30 O7 1_555 1_555
O8 H31 1_555 1_555
H32 O8 1_555 1_555
N1A C6A 1_555 1_555
N6A C6A 1_555 1_555
C6A H2A 1_555 1_555
C12A C16 1_555 1_555
C14A C12A 1_555 1_555
C15A N1A 1_555 1_555
H6A C15A 1_555 1_555
C16A C12 1_555 1_555
H7A C16A 1_555 1_555
C17A N6A 1_555 1_555
H8A C17A 1_555 1_555
C27A C14A 1_555 1_555
H19A C27A 1_555 1_555
H20A C27A 1_555 1_555
H21A C27A 1_555 1_555
N2A C4A 1_555 1_555
N3A C4A 1_555 1_555
C1A C7A 1_555 1_555
C4A H1A 1_555 1_555
C7A C19 1_555 1_555
C13A N2A 1_555 1_555
H5A C13A 1_555 1_555
C19A C7 1_555 1_555
H10A C19A 1_555 1_555
C24A N3A 1_555 1_555
H14A C24A 1_555 1_555
C28A C1A 1_555 1_555
H22A C28A 1_555 1_555
H23A C28A 1_555 1_555
H24A C28A 1_555 1_555
N4A C9A 1_555 1_555
N7A C10A 1_555 1_555
C8A H3A 1_555 1_555
C9A C11 1_555 1_555
C10A N4A 1_555 1_555
H4A C10A 1_555 1_555
C11A C9 1_555 1_555
C22A N7A 1_555 1_555
H12A C22A 1_555 1_555
C23A N4A 1_555 1_555
H13A C23A 1_555 1_555
C25A C11A 1_555 1_555
H15A C25A 1_555 1_555
H16A C25A 1_555 1_555
H17A C25A 1_555 1_555
O1A Co1 1_555 1_555
O2A C2A 1_555 1_555
N5A C3A 1_555 1_555
C2A O1A 1_555 1_555
C3A C2A 1_555 1_555
C5A O3A 1_555 1_555
C18A C3A 1_555 1_555
H9A C18A 1_555 1_555
C20A C5A 1_555 1_555
C21A N5A 1_555 1_555
H11A C21A 1_555 1_555
O4A C5A 1_555 1_555
C26A C18A 1_555 1_555
H18A C26A 1_555 1_555
Co1_2 N3A 1_555 1_555
Co1_3 N7A 1_555 1_555
Co2_2 N6A 1_555 1_555
Co2_3 O2A 1_555 1_555
O2A_2 Co2 1_555 1_555
N3A_2 Co1 1_555 1_555
N5A_2 Co2 1_555 1_555
N6A_2 Co2 1_555 1_555
N7A_2 Co1 1_555 1_555
N7 C10 1_555 1_555
C13 C24 1_555 1_555
C15 C17 1_555 1_555
C20 C21 1_555 1_555
C20 C26 1_555 1_555
C22 C23 1_555 1_555
N1A C12A 1_555 1_555
C14A C16A 1_555 1_555
C15A C17A 1_555 1_555
N2A C7A 1_555 1_555
C1A C19A 1_555 1_555
C13A C24A 1_555 1_555
C8A C9A 1_555 1_555
C8A C11A 1_555 1_555
C22A C23A 1_555 1_555
N5A Co2_3 1_555 1_555
C20A C21A 1_555 1_555
C20A C26A 1_555 1_555

#END
