
#######################################################################
#
#                 Cambridge Crystallographic Data Centre
#                                CCDC 
#
#######################################################################
#
# If this CIF has been generated from an entry in the Cambridge 
# Structural Database, then it will include bibliographic, chemical, 
# crystal, experimental, refinement or atomic coordinate data resulting 
# from the CCDC's data processing and validation procedures.
#
#######################################################################

data_FUMJAA
_symmetry_cell_setting           monoclinic
_symmetry_space_group_name_H-M   'P 21/n'
_symmetry_Int_Tables_number      14
_space_group_name_Hall           '-P 2yn'
loop_
_symmetry_equiv_pos_site_id
_symmetry_equiv_pos_as_xyz
1 x,y,z
2 1/2-x,1/2+y,1/2-z
3 -x,-y,-z
4 1/2+x,1/2-y,1/2+z
_cell_length_a                   10.241(5)
_cell_length_b                   13.769(5)
_cell_length_c                   13.326(5)
_cell_angle_alpha                90
_cell_angle_beta                 90.768(5)
_cell_angle_gamma                90
_cell_volume                     1878.91
loop_
_atom_site_label
_atom_site_type_symbol
_atom_site_fract_x
_atom_site_fract_y
_atom_site_fract_z
Cd1 Cd 0.144035(14) 0.424117(11) 1.061834(10)
O1 O 0.62268(15) 0.54692(12) 0.92271(12)
O2 O 0.71302(15) 0.65649(13) 0.82574(13)
O3 O 0.01745(15) 0.64862(13) 0.85162(13)
O4 O 0.43765(18) 0.83245(13) 0.57318(13)
O5 O 0.12753(18) 0.54545(14) 0.94673(14)
O6 O 0.23048(18) 0.79380(15) 0.55910(13)
O7 O 0.11448(18) 0.55287(13) 1.17493(14)
H1 H 0.0646 0.5956 1.1483
H2 H 0.0796 0.5313 1.2283
C1 C 0.3497(2) 0.73074(15) 0.69893(15)
C2 C 0.2462(2) 0.64335(15) 0.83316(15)
C3 C 0.4811(2) 0.64542(15) 0.82233(15)
C4 C 0.1216(2) 0.61041(16) 0.88138(16)
C5 C 0.2373(2) 0.70098(16) 0.74706(15)
H3 H 0.1559 0.7194 0.7220
C6 C 0.6141(2) 0.61455(16) 0.85938(15)
C7 C 0.3681(2) 0.61487(15) 0.86970(15)
H4 H 0.3741 0.5752 0.9261
C8 C 0.4711(2) 0.70474(15) 0.73775(16)
H5 H 0.5464 0.7271 0.7071
C9 C 0.3378(2) 0.79026(16) 0.60425(16)
Cd1A Cd 0.355965(14) 0.924117(11) 0.438166(10)
Cd1B Cd -0.144035(14) 0.575883(11) 0.938166(10)
Cd1B_2 Cd 0.855965(14) 0.575883(11) 0.938166(10)
O1B O 0.37732(15) 0.45308(12) 1.07729(12)
O2B O 0.28698(15) 0.34351(13) 1.17426(13)
O3B O -0.01745(15) 0.35138(13) 1.14838(13)
O4A O 0.06235(18) 0.33245(13) 0.92682(13)
O5B O -0.12753(18) 0.45455(14) 1.05327(14)
O6A O 0.26952(18) 0.29380(15) 0.94090(13)
N1 N 0.2025(2) 0.89924(16) 0.92491(17)
N2 N 0.4109(3) 0.91129(18) 0.91576(19)
H6 H 0.4927 0.9064 0.9304
C10 C 0.3305(4) 0.8277(3) 1.0696(3)
H7 H 0.2907 0.8652 1.1216
H8 H 0.4218 0.8197 1.0846
H9 H 0.2895 0.7651 1.0656
C11 C 0.0711(3) 0.8748(2) 0.9592(3)
H10 H 0.0748 0.8140 0.9959
H11 H 0.0143 0.8653 0.9012
C12 C 0.2311(3) 0.9463(2) 0.8364(2)
H12 H 0.1709 0.9688 0.7889
C13 C 0.3608(3) 0.9535(2) 0.8315(2)
H13 H 0.4079 0.9820 0.7801
C14 C 0.3144(3) 0.8788(2) 0.9721(2)
C15 C 0.0125(3) 0.9524(2) 1.0260(3)
H14 H -0.0692 0.9284 1.0523
H15 H 0.0713 0.9636 1.0826
N1B N -0.2025(2) 1.10076(16) 1.07509(17)
N2B N -0.4109(3) 1.08871(18) 1.08424(19)
H6B H -0.4927 1.0936 1.0696
C10B C -0.3305(4) 1.1723(3) 0.9304(3)
H7B H -0.2907 1.1348 0.8784
H8B H -0.4218 1.1803 0.9154
H9B H -0.2895 1.2349 0.9344
C11B C -0.0711(3) 1.1252(2) 1.0408(3)
H10B H -0.0748 1.1860 1.0041
H11B H -0.0143 1.1347 1.0988
C12B C -0.2311(3) 1.0537(2) 1.1636(2)
H12B H -0.1709 1.0312 1.2111
C13B C -0.3608(3) 1.0465(2) 1.1685(2)
H13B H -0.4079 1.0180 1.2199
C14B C -0.3144(3) 1.1212(2) 1.0279(2)
C15B C -0.0125(3) 1.0476(2) 0.9740(3)
H14B H 0.0692 1.0716 0.9477
H15B H -0.0713 1.0364 0.9174
O8 O 0.1941(2) 0.16195(14) 0.22765(16)
H16 H 0.2251 0.2174 0.2131
H17 H 0.1230 0.1490 0.2569
O9 O 0.9913(2) 0.11902(16) 0.35204(17)
H18 H 1.0297 0.0715 0.3805
H19 H 0.9252 0.1493 0.3739
O10 O 0.6732(2) 0.88180(19) 0.95509(18)
H20 H 0.6837 0.8313 0.9910
H21 H 0.7133 0.8749 0.9001
loop_
_geom_bond_atom_site_label_1
_geom_bond_atom_site_label_2
_geom_bond_site_symmetry_1
_geom_bond_site_symmetry_2
Cd1 O5 1_555 1_555
O1 C6 1_555 1_555
O2 C6 1_555 1_555
O3 C4 1_555 1_555
O4 C9 1_555 1_555
O5 C4 1_555 1_555
O6 C9 1_555 1_555
O7 Cd1 1_555 1_555
H1 O7 1_555 1_555
H2 O7 1_555 1_555
C1 C5 1_555 1_555
C2 C4 1_555 1_555
C3 C6 1_555 1_555
C5 C2 1_555 1_555
H3 C5 1_555 1_555
C7 C2 1_555 1_555
H4 C7 1_555 1_555
C8 C1 1_555 1_555
H5 C8 1_555 1_555
C9 C1 1_555 1_555
N1 C11 1_555 1_555
N2 H6 1_555 1_555
C10 H7 1_555 1_555
H8 C10 1_555 1_555
H9 C10 1_555 1_555
C11 H10 1_555 1_555
H11 C11 1_555 1_555
C12 N1 1_555 1_555
H12 C12 1_555 1_555
C13 N2 1_555 1_555
H13 C13 1_555 1_555
C14 N1 1_555 1_555
C15 C11 1_555 1_555
H14 C15 1_555 1_555
H15 C15 1_555 1_555
O8 H16 1_555 1_555
H17 O8 1_555 1_555
O9 H18 1_555 1_555
H19 O9 1_555 1_555
O10 H20 1_555 1_555
H21 O10 1_555 1_555
Cd1A O4 1_555 1_555
Cd1B O3 1_555 1_555
Cd1B_2 O1 1_555 1_555
O1B Cd1 1_555 1_555
O2B Cd1 1_555 1_555
O3B Cd1 1_555 1_555
O4A Cd1 1_555 1_555
O5B Cd1 1_555 1_555
O6A Cd1 1_555 1_555
N1B C11B 1_555 1_555
N2B H6B 1_555 1_555
C10B H7B 1_555 1_555
H8B C10B 1_555 1_555
H9B C10B 1_555 1_555
C11B H10B 1_555 1_555
H11B C11B 1_555 1_555
C12B N1B 1_555 1_555
H12B C12B 1_555 1_555
C13B N2B 1_555 1_555
H13B C13B 1_555 1_555
C14B N1B 1_555 1_555
C15B C15 1_555 1_555
H14B C15B 1_555 1_555
H15B C15B 1_555 1_555
O2 Cd1B_2 1_555 1_555
O5 Cd1B 1_555 1_555
O6 Cd1A 1_555 1_555
C3 C7 1_555 1_555
C3 C8 1_555 1_555
N2 C14 1_555 1_555
C10 C14 1_555 1_555
C12 C13 1_555 1_555
Cd1B O5B 1_555 1_555
N2B C14B 1_555 1_555
C10B C14B 1_555 1_555
C11B C15B 1_555 1_555
C12B C13B 1_555 1_555

#END
