
#######################################################################
#
#                 Cambridge Crystallographic Data Centre
#                                CCDC 
#
#######################################################################
#
# If this CIF has been generated from an entry in the Cambridge 
# Structural Database, then it will include bibliographic, chemical, 
# crystal, experimental, refinement or atomic coordinate data resulting 
# from the CCDC's data processing and validation procedures.
#
#######################################################################

data_FURCIG
_symmetry_cell_setting           monoclinic
_symmetry_space_group_name_H-M   'P 21/c'
_symmetry_Int_Tables_number      14
_space_group_name_Hall           '-P 2ybc'
loop_
_symmetry_equiv_pos_site_id
_symmetry_equiv_pos_as_xyz
1 x,y,z
2 -x,1/2+y,1/2-z
3 -x,-y,-z
4 x,1/2-y,1/2+z
_cell_length_a                   14.30521(8)
_cell_length_b                   24.62842(10)
_cell_length_c                   12.87024(7)
_cell_angle_alpha                90
_cell_angle_beta                 113.0182(6)
_cell_angle_gamma                90
_cell_volume                     4173.35
loop_
_atom_site_label
_atom_site_type_symbol
_atom_site_fract_x
_atom_site_fract_y
_atom_site_fract_z
Mo1 Mo -0.103804(17) 0.537056(9) 0.51221(2)
Mo2 Mo 0.153828(18) 0.537980(10) 0.70661(2)
Mo3 Mo 0.061557(17) 0.604457(9) 0.453330(19)
Mo4 Mo 0.014491(19) 0.527987(9) 0.22936(2)
O1 O -0.03515(17) 0.64784(9) 0.38117(19)
O2 O 0.01343(15) 0.58514(8) 0.57358(17)
O3 O 0.09966(16) 0.57943(8) 0.33542(18)
O4 O -0.12126(17) 0.52731(8) 0.63804(19)
O5 O -0.03267(14) 0.52534(8) 0.39460(17)
O6 O -0.16096(15) 0.46757(8) 0.44396(18)
O7 O -0.19581(17) 0.58056(9) 0.4371(2)
O8 O 0.15975(18) 0.64607(9) 0.52432(19)
O9 O 0.06838(17) 0.53515(8) 0.78837(18)
O10 O 0.24306(19) 0.49130(11) 0.7754(2)
O11 O -0.0826(2) 0.57045(9) 0.1536(2)
O12 O 0.0774(2) 0.51549(11) 0.1443(2)
O13 O 0.21255(18) 0.59935(10) 0.7500(2)
Mo1B Mo 0.103804(17) 0.462944(9) 0.48779(2)
Mo2B Mo -0.153828(18) 0.462020(10) 0.29339(2)
Mo3B Mo -0.061557(17) 0.395543(9) 0.546670(19)
Mo4B Mo -0.014491(19) 0.472013(9) 0.77064(2)
O1B O 0.03515(17) 0.35216(9) 0.61883(19)
O2B O -0.01343(15) 0.41486(8) 0.42642(17)
O3B O -0.09966(16) 0.42057(8) 0.66458(18)
O4B O 0.12126(17) 0.47269(8) 0.36196(19)
O5B O 0.03267(14) 0.47466(8) 0.60540(17)
O6B O 0.16096(15) 0.53243(8) 0.55604(18)
O7B O 0.19581(17) 0.41944(9) 0.5629(2)
O8B O -0.15975(18) 0.35393(9) 0.47568(19)
O9B O -0.06838(17) 0.46485(8) 0.21163(18)
O10B O -0.24306(19) 0.50870(11) 0.2246(2)
O11B O 0.0826(2) 0.42955(9) 0.8464(2)
O12B O -0.0774(2) 0.48451(11) 0.8557(2)
O13B O -0.21255(18) 0.40065(10) 0.2500(2)
Co1 Co 0.31939(3) 0.25707(2) 0.24807(4)
Co2 Co 0.56434(3) 0.28844(2) 0.22341(4)
O14 O 0.59272(17) 0.35982(9) 0.1469(2)
H1 H 0.581(2) 0.3542(4) 0.0758(7)
H2 H 0.6561(6) 0.3700(7) 0.1808(17)
N1 N 1.43206(18) 0.23960(12) 0.4934(2)
N2 N 0.41850(19) 0.32697(11) 0.3200(2)
N3 N 0.44750(18) 0.20233(11) 0.2917(2)
N4 N 1.18748(18) 0.19682(11) 0.6972(2)
O15 O 0.23494(17) 0.18287(10) 0.1995(2)
H3 H 0.2613(16) 0.1626(6) 0.164(3)
H4 H 0.1734(6) 0.18997(13) 0.156(2)
N5 N 1.43178(17) 0.23302(10) 0.59327(19)
N6 N 1.33586(18) 0.23541(10) 0.5888(2)
N7 N 0.84770(17) 0.23164(10) 0.2681(2)
N8 N 0.54423(17) 0.21817(10) 0.3189(2)
N9 N 0.68547(18) 0.25164(10) 0.2125(2)
N10 N 1.02747(18) 0.17156(10) 0.6175(2)
N11 N 0.5617(2) 0.37094(12) 0.3892(2)
N12 N 1.33529(18) 0.24601(11) 0.4195(2)
N13 N 0.5405(2) 0.14039(11) 0.4025(2)
N14 N 0.4120(2) 0.35964(12) 0.3998(2)
C1 C 1.0017(2) 0.28685(12) 0.3539(3)
H5 H 0.9626(2) 0.31825(12) 0.3389(3)
C2 C 0.7792(2) 0.27009(12) 0.2637(2)
H6 H 0.7957(2) 0.30496(12) 0.2929(2)
C3 C 1.0942(2) 0.21282(12) 0.6391(3)
H7 H 1.0762(2) 0.24839(12) 0.6155(3)
N15 N 0.5077(2) 0.33393(11) 0.3145(2)
C4 C 0.6941(2) 0.19912(13) 0.1813(3)
H8 H 0.6400(2) 0.17610(13) 0.1431(3)
C5 C 0.7108(2) 0.17861(12) 0.4449(2)
N16 N 0.44507(19) 0.15571(11) 0.3405(2)
N17 N 0.6320(2) 0.52104(13) 0.8282(3)
C6 C 1.1067(2) 0.29011(12) 0.4079(3)
H9 H 1.1376(2) 0.32370(12) 0.4306(3)
C7 C 0.9554(2) 0.23643(12) 0.3223(2)
N18 N 0.7295(3) 0.55449(15) 0.9878(3)
C8 C 0.8705(2) 0.22390(12) 0.5417(3)
H10 H 0.9070(2) 0.25570(12) 0.5687(3)
C9 C 1.2780(2) 0.24352(11) 0.4800(2)
C10 C 1.1658(2) 0.24327(12) 0.4282(2)
C11 C 1.0138(2) 0.18991(12) 0.3439(3)
H11 H 0.9830(2) 0.15614(12) 0.3235(3)
C12 C 1.1183(2) 0.19374(12) 0.3959(3)
H12 H 1.1574(2) 0.16233(12) 0.4094(3)
C13 C 0.5996(2) 0.17936(12) 0.3876(3)
C14 C 0.9208(2) 0.17418(12) 0.5580(2)
C15 C 0.7659(2) 0.22574(12) 0.4852(3)
H13 H 0.7324(2) 0.25892(12) 0.4742(3)
C16 C 0.5014(2) 0.38558(13) 0.4408(3)
C17 C 0.5325(3) 0.42337(13) 0.5373(3)
C18 C 0.7272(3) 0.52401(15) 0.9026(3)
H14 H 0.7829(3) 0.50741(15) 0.8958(3)
C19 C 0.7930(2) 0.18610(13) 0.2145(3)
H15 H 0.8193(2) 0.15308(13) 0.2036(3)
C20 C 0.5962(3) 0.48863(14) 0.7261(3)
C21 C 0.6579(3) 0.48277(16) 0.6670(3)
H16 H 0.7199(3) 0.50080(16) 0.6899(3)
C22 C 0.8661(2) 0.12660(13) 0.5175(3)
H17 H 0.8995(2) 0.09341(13) 0.5278(3)
C23 C 0.7616(2) 0.12911(13) 0.4617(3)
H18 H 0.7248(2) 0.09733(13) 0.4352(3)
C24 C 0.6256(3) 0.44944(15) 0.5727(3)
H19 H 0.6669(3) 0.44452(15) 0.5327(3)
C25 C 0.4710(3) 0.43090(16) 0.5968(3)
H20 H 0.4080(3) 0.41392(16) 0.5726(3)
C26 C 1.1803(3) 0.14231(15) 0.7160(4)
H21 H 1.2349(3) 0.11993(15) 0.7562(4)
C27 C 0.5026(3) 0.46360(16) 0.6924(3)
H22 H 0.4617(3) 0.46851(16) 0.7328(3)
C28 C 1.0835(3) 0.12614(15) 0.6680(4)
H23 H 1.0588(3) 0.09125(15) 0.6685(4)
C29 C 0.6342(4) 0.5721(2) 0.9686(4)
H24 H 0.6152(4) 0.5941(2) 1.0158(4)
C30 C 0.5722(4) 0.5514(2) 0.8681(4)
H25 H 0.5025(4) 0.5567(2) 0.8325(4)
H26 H 0.781(4) 0.5589(18) 1.046(4)
Co1_2 Co 1.31939(3) 0.25707(2) 0.24807(4)
Co1C Co 1.31939(3) 0.24293(2) 0.74807(4)
Co2C Co 1.56434(3) 0.21156(2) 0.72341(4)
N4C N 0.18748(18) 0.30318(11) 0.1972(2)
N5C N 0.43178(17) 0.26698(10) 0.09327(19)
N6C N 0.33586(18) 0.26459(10) 0.0888(2)
N12_2 N 0.33529(18) 0.24601(11) 0.4195(2)
loop_
_geom_bond_atom_site_label_1
_geom_bond_atom_site_label_2
_geom_bond_site_symmetry_1
_geom_bond_site_symmetry_2
Mo1 O2 1_555 1_555
Mo2 O2 1_555 1_555
Mo3 O1 1_555 1_555
Mo4 O3 1_555 1_555
O2 Mo3 1_555 1_555
O3 Mo3 1_555 1_555
O4 Mo1 1_555 1_555
O5 Mo1 1_555 1_555
O6 Mo1 1_555 1_555
O7 Mo1 1_555 1_555
O8 Mo3 1_555 1_555
O9 Mo2 1_555 1_555
O10 Mo2 1_555 1_555
O11 Mo4 1_555 1_555
O12 Mo4 1_555 1_555
O13 Mo2 1_555 1_555
Co1 N2 1_555 1_555
Co2 O14 1_555 1_555
O14 H1 1_555 1_555
H2 O14 1_555 1_555
N1 N5 1_555 1_555
N2 N14 1_555 1_555
N3 Co1 1_555 1_555
N4 C3 1_555 1_555
O15 Co1 1_555 1_555
H3 O15 1_555 1_555
H4 O15 1_555 1_555
N5 N6 1_555 1_555
N6 C9 1_555 1_555
N7 C2 1_555 1_555
N8 Co2 1_555 1_555
N9 Co2 1_555 1_555
N10 C3 1_555 1_555
N11 N15 1_555 1_555
N12 N1 1_555 1_555
N13 N16 1_555 1_555
N14 C16 1_555 1_555
C1 H5 1_555 1_555
C2 N9 1_555 1_555
H6 C2 1_555 1_555
C3 H7 1_555 1_555
N15 Co2 1_555 1_555
C4 N9 1_555 1_555
H8 C4 1_555 1_555
C5 C13 1_555 1_555
N16 N3 1_555 1_555
N17 C18 1_555 1_555
C6 C1 1_555 1_555
H9 C6 1_555 1_555
C7 N7 1_555 1_555
N18 C18 1_555 1_555
C8 H10 1_555 1_555
C9 N12 1_555 1_555
C10 C6 1_555 1_555
C11 C7 1_555 1_555
H11 C11 1_555 1_555
C12 C10 1_555 1_555
H12 C12 1_555 1_555
C13 N8 1_555 1_555
C14 N10 1_555 1_555
C15 C5 1_555 1_555
H13 C15 1_555 1_555
C16 N11 1_555 1_555
C17 C16 1_555 1_555
C18 H14 1_555 1_555
C19 N7 1_555 1_555
H15 C19 1_555 1_555
C20 N17 1_555 1_555
C21 C20 1_555 1_555
H16 C21 1_555 1_555
C22 C14 1_555 1_555
H17 C22 1_555 1_555
C23 C5 1_555 1_555
H18 C23 1_555 1_555
C24 C17 1_555 1_555
H19 C24 1_555 1_555
C25 C17 1_555 1_555
H20 C25 1_555 1_555
C26 N4 1_555 1_555
H21 C26 1_555 1_555
C27 C20 1_555 1_555
H22 C27 1_555 1_555
C28 N10 1_555 1_555
H23 C28 1_555 1_555
C29 N18 1_555 1_555
H24 C29 1_555 1_555
C30 N17 1_555 1_555
H25 C30 1_555 1_555
H26 N18 1_555 1_555
Mo1B O5 1_555 1_555
Mo2B O5 1_555 1_555
Mo3B O6 1_555 1_555
Mo4B O4 1_555 1_555
O1B Mo3B 1_555 1_555
O2B Mo1B 1_555 1_555
O3B Mo3B 1_555 1_555
O4B Mo4 1_555 1_555
O5B Mo1 1_555 1_555
O6B Mo2 1_555 1_555
O7B Mo1B 1_555 1_555
O8B Mo3B 1_555 1_555
O9B Mo4 1_555 1_555
O10B Mo2B 1_555 1_555
O11B Mo4B 1_555 1_555
O12B Mo4B 1_555 1_555
O13B Mo2B 1_555 1_555
Co1_2 N12 1_555 1_555
Co1C N4 1_555 1_555
Co2C N5 1_555 1_555
N4C Co1 1_555 1_555
N5C Co2 1_555 1_555
N6C Co1 1_555 1_555
N12_2 Co1 1_555 1_555
Mo2 O5B 1_555 1_555
Mo3 O5 1_555 1_555
Mo3 O6B 1_555 1_555
Mo4 O5 1_555 1_555
O6 Mo2B 1_555 1_555
O9 Mo4B 1_555 1_555
N2 N15 1_555 1_555
N3 N8 1_555 1_555
N6 Co1C 1_555 1_555
N13 C13 1_555 1_555
C1 C7 1_555 1_555
C4 C19 1_555 1_555
C8 C14 1_555 1_555
C8 C15 1_555 1_555
C9 C10 1_555 1_555
C11 C12 1_555 1_555
C21 C24 1_555 1_555
C22 C23 1_555 1_555
C25 C27 1_555 1_555
C26 C28 1_555 1_555
C29 C30 1_555 1_555
Mo1B O4B 1_555 1_555
Mo1B O5B 1_555 1_555
Mo1B O6B 1_555 1_555
Mo2B O2B 1_555 1_555
Mo2B O9B 1_555 1_555
Mo3B O2B 1_555 1_555
Mo3B O5B 1_555 1_555
Mo4B O3B 1_555 1_555
Mo4B O5B 1_555 1_555
N5C N6C 1_555 1_555

#END
