
#######################################################################
#
#                 Cambridge Crystallographic Data Centre
#                                CCDC 
#
#######################################################################
#
# If this CIF has been generated from an entry in the Cambridge 
# Structural Database, then it will include bibliographic, chemical, 
# crystal, experimental, refinement or atomic coordinate data resulting 
# from the CCDC's data processing and validation procedures.
#
#######################################################################

data_FUSGOR
_symmetry_cell_setting           monoclinic
_symmetry_space_group_name_H-M   'P 21/m'
_symmetry_Int_Tables_number      11
_space_group_name_Hall           '-P 2yb'
loop_
_symmetry_equiv_pos_site_id
_symmetry_equiv_pos_as_xyz
1 x,y,z
2 -x,1/2+y,-z
3 -x,-y,-z
4 x,1/2-y,z
_cell_length_a                   10.1792(15)
_cell_length_b                   6.7279(9)
_cell_length_c                   12.8158(18)
_cell_angle_alpha                90
_cell_angle_beta                 111.698(4)
_cell_angle_gamma                90
_cell_volume                     815.497
loop_
_atom_site_label
_atom_site_type_symbol
_atom_site_fract_x
_atom_site_fract_y
_atom_site_fract_z
Co1 Co 0.13120(5) 0.2500 0.26600(4)
Co2 Co 0.0000 0.5000 0.0000
C1 C 0.3937(4) 0.2500 0.3416(3)
C2 C 0.5521(4) 0.2500 0.3915(3)
C3 C 0.6302(4) 0.2500 0.3228(3)
H1 H 0.5842 0.2500 0.2452
C4 C 0.7773(4) 0.2500 0.3700(3)
C5 C 0.8457(4) 0.2500 0.4864(3)
H2 H 0.9439 0.2500 0.5181
C6 C 0.7676(4) 0.2500 0.5554(3)
C7 C 0.6207(4) 0.2500 0.5080(3)
H3 H 0.5683 0.2500 0.5540
C8 C 0.8630(4) 0.2500 0.2953(3)
C9 C 0.8396(3) 0.2500 0.6793(3)
N1 N 0.8751(2) 0.4142(3) 0.74262(16)
N2 N 0.9349(2) 0.3459(3) 0.84777(17)
O1 O 0.3306(3) 0.2500 0.2363(2)
O2 O 0.3246(3) 0.2500 0.4046(2)
O3 O 0.8008(4) 0.2500 0.1924(3)
O4 O 0.9940(3) 0.2500 0.3440(2)
O5 O 0.0052(3) 0.2500 0.09537(19)
H4 H -0.061(5) 0.2500 0.108(4)
O6 O 0.2187(3) 0.4655(5) 0.0253(2)
H5 H 0.2550 0.5753 0.0288
H6 H 0.2830 0.3767 0.0339
N1C N 0.8751(2) 0.0858(3) 0.74262(16)
N2C N 0.9349(2) 0.1541(3) 0.84777(17)
O6B O -0.2187(3) 0.5345(5) -0.0253(2)
H5B H -0.2550 0.4247 -0.0288
H6B H -0.2830 0.6233 -0.0339
Co1_2 Co 1.13120(5) 0.2500 0.26600(4)
Co1A Co 0.86880(5) -0.2500 0.73400(4)
Co1A_2 Co 0.86880(5) 0.7500 0.73400(4)
Co2_2 Co 1.0000 0.5000 1.0000
Co2A Co 0.0000 0.0000 0.0000
Co2A_2 Co 1.0000 0.0000 1.0000
N1A N 0.1249(2) -0.0858(3) 0.25738(16)
N1B N 0.1249(2) 0.5858(3) 0.25738(16)
N2_2 N -0.0651(2) 0.3459(3) -0.15223(17)
N2B N 0.0651(2) 0.6541(3) 0.15223(17)
O4_2 O -0.0060(3) 0.2500 0.3440(2)
O5A O -0.0052(3) 0.7500 -0.09537(19)
O7 O 1.7064(14) 0.7500 -0.6274(10)
O8 O 1.729(2) 0.7500 -0.8280(16)
O9 O 1.444(2) 0.7500 -0.7925(18)
O10 O 1.4460(15) 0.7500 -1.0222(13)
loop_
_geom_bond_atom_site_label_1
_geom_bond_atom_site_label_2
_geom_bond_site_symmetry_1
_geom_bond_site_symmetry_2
Co1 O1 1_555 1_555
Co2 O5 1_555 1_555
C1 C2 1_555 1_555
C2 C3 1_555 1_555
C3 H1 1_555 1_555
C4 C3 1_555 1_555
C5 C4 1_555 1_555
H2 C5 1_555 1_555
C6 C5 1_555 1_555
C7 C2 1_555 1_555
H3 C7 1_555 1_555
C8 C4 1_555 1_555
C9 C6 1_555 1_555
N1 C9 1_555 1_555
N2 N1 1_555 1_555
O1 C1 1_555 1_555
O2 Co1 1_555 1_555
O3 C8 1_555 1_555
O4 C8 1_555 1_555
O5 Co1 1_555 1_555
H4 O5 1_555 1_555
O6 Co2 1_555 1_555
H5 O6 1_555 1_555
H6 O6 1_555 1_555
N1C C9 1_555 1_555
N2C N2 1_555 1_555
O6B Co2 1_555 1_555
H5B O6B 1_555 1_555
H6B O6B 1_555 1_555
Co1_2 O4 1_555 1_555
Co1A N1C 1_555 1_555
Co1A_2 N1 1_555 1_555
Co2_2 N2 1_555 1_555
Co2A O5 1_555 1_555
Co2A_2 N2C 1_555 1_555
N1A Co1 1_555 1_555
N1B Co1 1_555 1_555
N2_2 Co2 1_555 1_555
N2B Co2 1_555 1_555
O4_2 Co1 1_555 1_555
O5A Co2 1_555 1_555
C1 O2 1_555 1_555
C6 C7 1_555 1_555
N1C N2C 1_555 1_555
N1B N2B 1_555 1_555

#END
