
#######################################################################
#
#                 Cambridge Crystallographic Data Centre
#                                CCDC 
#
#######################################################################
#
# If this CIF has been generated from an entry in the Cambridge 
# Structural Database, then it will include bibliographic, chemical, 
# crystal, experimental, refinement or atomic coordinate data resulting 
# from the CCDC's data processing and validation procedures.
#
#######################################################################

data_FUTTOF
_symmetry_cell_setting           hexagonal
_symmetry_space_group_name_H-M   'P 63/m'
_symmetry_Int_Tables_number      176
_space_group_name_Hall           '-P 6c'
loop_
_symmetry_equiv_pos_site_id
_symmetry_equiv_pos_as_xyz
1 x,y,z
2 -y,x-y,z
3 -x+y,-x,z
4 -x,-y,1/2+z
5 y,-x+y,1/2+z
6 x-y,x,1/2+z
7 -x,-y,-z
8 y,-x+y,-z
9 x-y,x,-z
10 x,y,1/2-z
11 -y,x-y,1/2-z
12 -x+y,-x,1/2-z
_cell_length_a                   18.018(3)
_cell_length_b                   18.018(3)
_cell_length_c                   20.174(4)
_cell_angle_alpha                90
_cell_angle_beta                 90
_cell_angle_gamma                120
_cell_volume                     5671.99
loop_
_atom_site_label
_atom_site_type_symbol
_atom_site_fract_x
_atom_site_fract_y
_atom_site_fract_z
Zn1 Zn 0.6667 0.3333 0.58574(4)
N1 N 0.6667 0.3333 0.6860(3)
O1 O 0.6337(3) 0.4110(2) 0.54693(16)
O2 O 0.5108(3) 0.3392(3) 0.6029(2)
O3 O 0.3913(3) 0.3746(3) 0.5865(2)
H1 H 0.4142 0.3474 0.6017
C1 C 0.5585(5) 0.3940(4) 0.5621(3)
C2 C 0.5279(4) 0.4505(3) 0.5294(3)
C3 C 0.4481(4) 0.4379(3) 0.5431(2)
C4 C 0.5820(3) 0.5135(3) 0.4854(2)
H2 H 0.6374 0.5226 0.4756
C5 C 0.5854(3) 0.2607(3) 0.7121(2)
H3 H 0.5788 0.2059 0.6957
H4 H 0.5362 0.2656 0.6957
C5A C 0.7393(3) 0.3247(4) 0.7121(2)
H3A H 0.7941 0.3729 0.6957
H4A H 0.7344 0.2706 0.6957
C5B C 0.6753(4) 0.4146(3) 0.7121(2)
H3B H 0.6271 0.4212 0.6957
H4B H 0.7294 0.4638 0.6957
N1I N 0.6667 0.3333 0.8140(3)
C5I C 0.5854(3) 0.2607(3) 0.7879(2)
H3I H 0.5788 0.2059 0.8043
H4I H 0.5362 0.2656 0.8043
C5J C 0.7393(3) 0.3247(4) 0.7879(2)
H3J H 0.7941 0.3729 0.8043
H4J H 0.7344 0.2706 0.8043
C5K C 0.6753(4) 0.4146(3) 0.7879(2)
H3K H 0.6271 0.4212 0.8043
H4K H 0.7294 0.4638 0.8043
O1F O 0.3663(3) 0.5890(2) 0.45307(16)
O2F O 0.4892(3) 0.6608(3) 0.3971(2)
O3F O 0.6087(3) 0.6254(3) 0.4135(2)
H1F H 0.5858 0.6526 0.3983
C1F C 0.4415(5) 0.6060(4) 0.4379(3)
C2F C 0.4721(4) 0.5495(3) 0.4706(3)
C3F C 0.5519(4) 0.5621(3) 0.4569(2)
C4F C 0.4180(3) 0.4865(3) 0.5146(2)
H2F H 0.3626 0.4774 0.5244
O1A O 0.5890(2) 0.2227(4) 0.54693(16)
O2A O 0.6608(3) 0.1716(4) 0.6029(2)
O3A O 0.6254(3) 0.0167(4) 0.5865(2)
H1A H 0.6526 0.0668 0.6017
C1A C 0.6060(4) 0.1645(6) 0.5621(3)
C2A C 0.5495(3) 0.0774(5) 0.5294(3)
C3A C 0.5621(3) 0.0102(5) 0.5431(2)
C4A C 0.4865(3) 0.0685(4) 0.4854(2)
H2A H 0.4774 0.1148 0.4756
O1G O 0.4110(2) -0.2227(4) 0.45307(16)
O2G O 0.3392(3) -0.1716(4) 0.3971(2)
O3G O 0.3746(3) -0.0167(4) 0.4135(2)
H1G H 0.3474 -0.0668 0.3983
C1G C 0.3940(4) -0.1645(6) 0.4379(3)
C2G C 0.4505(3) -0.0774(5) 0.4706(3)
C3G C 0.4379(3) -0.0102(5) 0.4569(2)
C4G C 0.5135(3) -0.0685(4) 0.5146(2)
H2G H 0.5226 -0.1148 0.5244
O1B O 0.7773(4) 0.3663(3) 0.54693(16)
O2B O 0.8284(4) 0.4892(3) 0.6029(2)
O3B O 0.9833(4) 0.6087(3) 0.5865(2)
H1B H 0.9332 0.5858 0.6017
C1B C 0.8355(6) 0.4415(5) 0.5621(3)
C2B C 0.9226(5) 0.4721(4) 0.5294(3)
C3B C 0.9898(5) 0.5519(4) 0.5431(2)
C4B C 0.9315(4) 0.4180(3) 0.4854(2)
H2B H 0.8852 0.3626 0.4756
O1H O 1.2227(4) 0.6337(3) 0.45307(16)
O2H O 1.1716(4) 0.5108(3) 0.3971(2)
O3H O 1.0167(4) 0.3913(3) 0.4135(2)
H1H H 1.0668 0.4142 0.3983
C1H C 1.1645(6) 0.5585(5) 0.4379(3)
C2H C 1.0774(5) 0.5279(4) 0.4706(3)
C3H C 1.0102(5) 0.4481(4) 0.4569(2)
C4H C 1.0685(4) 0.5820(3) 0.5146(2)
H2H H 1.1148 0.6374 0.5244
Zn1F Zn 0.3333 0.6667 0.41426(4)
Zn1F_2 Zn 0.3333 -0.3333 0.41426(4)
Zn1F_3 Zn 1.3333 0.6667 0.41426(4)
Zn1I Zn 0.6667 0.3333 0.91426(4)
N1F N 0.3333 0.6667 0.3140(3)
O1G_2 O 0.4110(2) 0.7773(4) 0.45307(16)
O1H_2 O 0.2227(4) 0.6337(3) 0.45307(16)
loop_
_geom_bond_atom_site_label_1
_geom_bond_atom_site_label_2
_geom_bond_site_symmetry_1
_geom_bond_site_symmetry_2
Zn1 N1 1_555 1_555
N1 C5 1_555 1_555
O1 Zn1 1_555 1_555
O2 C1 1_555 1_555
O3 H1 1_555 1_555
C1 O1 1_555 1_555
C2 C1 1_555 1_555
C3 O3 1_555 1_555
C4 C2 1_555 1_555
H2 C4 1_555 1_555
C5 H3 1_555 1_555
H4 C5 1_555 1_555
C5A N1 1_555 1_555
H3A C5A 1_555 1_555
H4A C5A 1_555 1_555
C5B N1 1_555 1_555
H3B C5B 1_555 1_555
H4B C5B 1_555 1_555
N1I C5I 1_555 1_555
C5I C5 1_555 1_555
H3I C5I 1_555 1_555
H4I C5I 1_555 1_555
C5J C5A 1_555 1_555
H3J C5J 1_555 1_555
H4J C5J 1_555 1_555
C5K C5B 1_555 1_555
H3K C5K 1_555 1_555
H4K C5K 1_555 1_555
O1F C1F 1_555 1_555
O2F C1F 1_555 1_555
O3F H1F 1_555 1_555
C1F C2F 1_555 1_555
C2F C3F 1_555 1_555
C3F C4 1_555 1_555
C4F C3 1_555 1_555
H2F C4F 1_555 1_555
O1A Zn1 1_555 1_555
O2A C1A 1_555 1_555
O3A H1A 1_555 1_555
C1A O1A 1_555 1_555
C2A C1A 1_555 1_555
C3A O3A 1_555 1_555
C4A C2A 1_555 1_555
H2A C4A 1_555 1_555
O1G C1G 1_555 1_555
O2G C1G 1_555 1_555
O3G H1G 1_555 1_555
C1G C2G 1_555 1_555
C2G C3G 1_555 1_555
C3G C4A 1_555 1_555
C4G C3A 1_555 1_555
H2G C4G 1_555 1_555
O1B Zn1 1_555 1_555
O2B C1B 1_555 1_555
O3B H1B 1_555 1_555
C1B O1B 1_555 1_555
C2B C1B 1_555 1_555
C3B O3B 1_555 1_555
C4B C2B 1_555 1_555
H2B C4B 1_555 1_555
O1H C1H 1_555 1_555
O2H C1H 1_555 1_555
O3H H1H 1_555 1_555
C1H C2H 1_555 1_555
C2H C3H 1_555 1_555
C3H C4B 1_555 1_555
C4H C3B 1_555 1_555
H2H C4H 1_555 1_555
Zn1F O1F 1_555 1_555
Zn1F_2 O1G 1_555 1_555
Zn1F_3 O1H 1_555 1_555
Zn1I N1I 1_555 1_555
N1F Zn1F 1_555 1_555
O1G_2 Zn1F 1_555 1_555
O1H_2 Zn1F 1_555 1_555
C2 C3 1_555 1_555
N1I C5J 1_555 1_555
N1I C5K 1_555 1_555
O3F C3F 1_555 1_555
C2F C4F 1_555 1_555
C2A C3A 1_555 1_555
O3G C3G 1_555 1_555
C2G C4G 1_555 1_555
C2B C3B 1_555 1_555
O3H C3H 1_555 1_555
C2H C4H 1_555 1_555

#END
