
#######################################################################
#
#                 Cambridge Crystallographic Data Centre
#                                CCDC 
#
#######################################################################
#
# If this CIF has been generated from an entry in the Cambridge 
# Structural Database, then it will include bibliographic, chemical, 
# crystal, experimental, refinement or atomic coordinate data resulting 
# from the CCDC's data processing and validation procedures.
#
#######################################################################

data_FUTZOL
_symmetry_cell_setting           monoclinic
_symmetry_space_group_name_H-M   'P 21/n'
_symmetry_Int_Tables_number      14
_space_group_name_Hall           '-P 2yn'
loop_
_symmetry_equiv_pos_site_id
_symmetry_equiv_pos_as_xyz
1 x,y,z
2 1/2-x,1/2+y,1/2-z
3 -x,-y,-z
4 1/2+x,1/2-y,1/2+z
_cell_length_a                   23.31(2)
_cell_length_b                   18.952(18)
_cell_length_c                   26.57(2)
_cell_angle_alpha                90
_cell_angle_beta                 94.757(14)
_cell_angle_gamma                90
_cell_volume                     11697.4
loop_
_atom_site_label
_atom_site_type_symbol
_atom_site_fract_x
_atom_site_fract_y
_atom_site_fract_z
Zn1 Zn 0.95932(7) 1.27808(9) 0.19323(6)
Zn2 Zn 1.03422(7) 1.26088(9) 0.31804(6)
Zn3 Zn 0.86825(7) 0.77568(9) 0.31884(7)
Zn4 Zn 1.12953(7) 0.76305(9) 0.17881(6)
Zn5 Zn 0.72263(8) 0.40989(9) 0.50160(6)
O1 O 0.9222(4) 1.2241(5) 0.1390(4)
O2 O 0.9227(5) 1.3088(6) 0.0798(4)
O3 O 0.8985(5) 0.3935(6) 0.2079(4)
O4 O 0.9887(5) 0.3752(5) 0.1935(4)
O5 O 0.9146(4) 1.2497(5) 0.2504(4)
O6 O 0.9589(4) 1.3087(5) 0.3157(4)
O7 O 1.0358(4) 1.2310(5) 0.2006(3)
O8 O 1.0833(4) 1.2881(5) 0.2654(3)
O9 O 0.9348(5) 0.7243(7) 0.6121(4)
O10 O 1.0113(5) 1.1623(6) 0.3131(4)
O11 O 0.9057(4) 0.6190(6) 0.6353(4)
O12 O 1.1045(5) 1.1419(5) 0.3069(4)
O13 O 1.0876(4) 0.8414(6) 0.2058(4)
O14 O 1.1617(5) 0.9035(6) 0.2419(4)
O15 O 0.8714(5) 0.9515(6) 0.3021(4)
O16 O 0.9226(4) 0.8525(7) 0.3141(4)
O17 O 0.9147(8) 0.7944(9) 0.4307(5)
O18 O 0.8400(5) 0.7504(5) 0.3832(4)
O19 O 0.9179(4) 0.6984(6) 0.3021(4)
O20 O 0.8455(5) 0.6223(6) 0.2855(5)
O21 O 0.8729(5) 1.2312(6) -0.1036(4)
O22 O 0.8291(5) 1.1286(7) -0.1150(4)
O23 O 1.0720(4) 0.6882(7) 0.1832(4)
O24 O 1.1252(5) 0.5880(6) 0.1922(4)
O25 O 0.6529(5) 1.2883(8) 0.2867(4)
O26 O 0.7046(4) 1.2889(5) 0.2195(4)
O27 O 1.3411(5) 1.2257(6) 0.2187(4)
O28 O 1.2945(4) 1.2438(5) 0.2873(4)
O29 O 0.7729(5) 0.4898(5) 0.5176(4)
O30 O 0.7578(4) 0.5212(6) 0.4360(5)
O31 O 0.8541(4) 0.9474(6) 0.0174(4)
O32 O 0.8925(5) 0.9805(5) 0.0936(5)
O33 O 1.2255(5) 1.1348(6) 0.0677(4)
O34 O 1.1426(5) 1.1905(6) 0.0460(4)
O35 O 0.8437(5) 1.3524(7) 0.4641(4)
O36 O 0.7485(4) 1.3467(5) 0.4510(3)
C1 C 0.9144(6) 1.2479(10) 0.0922(7)
C2 C 0.8935(6) 1.1910(8) 0.0539(5)
C3 C 0.9150(7) 1.2826(9) 0.2912(7)
C4 C 0.8828(6) 1.2109(8) 0.0018(5)
H1 H 0.8886 1.2570 -0.0087
C5 C 0.8634(6) 1.1581(8) -0.0325(6)
C6 C 0.8567(6) 1.0901(8) -0.0157(5)
H2 H 0.8423 1.0563 -0.0388
C7 C 0.8703(6) 1.0693(8) 0.0341(5)
C8 C 0.8889(6) 1.1231(8) 0.0692(6)
H3 H 0.8980 1.1116 0.1030
C9 C 0.9487(9) 0.4115(10) 0.2063(6)
C10 C 0.8581(7) 1.2913(8) 0.3126(6)
C11 C 0.8554(6) 1.3083(8) 0.3639(6)
H4 H 0.8889 1.3105 0.3854
C12 C 1.0811(7) 1.2562(8) 0.2237(6)
C13 C 1.1369(6) 1.2415(7) 0.2008(5)
C14 C 1.1370(6) 1.2230(7) 0.1503(5)
H5 H 1.1029 1.2250 0.1296
C15 C 1.1876(6) 1.2464(7) 0.2288(5)
H6 H 1.1877 1.2626 0.2619
C16 C 0.9101(7) 0.6656(11) 0.6033(7)
C17 C 1.0529(9) 1.1232(9) 0.3051(6)
C18 C 1.0388(6) 1.0467(8) 0.2920(5)
C19 C 0.9841(6) 1.0199(8) 0.2989(5)
H7 H 0.9563 1.0489 0.3113
C20 C 0.9714(6) 0.9510(8) 0.2872(5)
C21 C 1.0122(6) 0.9086(8) 0.2650(5)
H8 H 1.0026 0.8628 0.2548
C22 C 1.0664(6) 0.9350(8) 0.2583(5)
C23 C 1.0795(7) 1.0019(7) 0.2738(5)
H9 H 1.1169 1.0182 0.2722
C24 C 0.9162(8) 0.9175(11) 0.3021(5)
C25 C 1.2968(8) 1.2319(8) 0.2386(7)
C26 C 1.1087(9) 0.8906(9) 0.2336(6)
C27 C 0.8734(9) 0.7532(11) 0.4229(8)
C28 C 1.2369(7) 1.2050(7) 0.1607(7)
H10 H 1.2707 1.1907 0.1474
C29 C 0.8638(7) 0.7017(9) 0.4641(6)
C30 C 0.8912(7) 0.7081(9) 0.5125(8)
H11 H 0.9167 0.7452 0.5193
C31 C 0.8816(7) 0.6612(9) 0.5509(6)
C32 C 0.8451(8) 0.6047(10) 0.5396(7)
H12 H 0.8390 0.5720 0.5647
C33 C 0.8167(7) 0.5950(9) 0.4910(7)
C34 C 0.8267(6) 0.6439(9) 0.4543(6)
H13 H 0.8084 0.6385 0.4220
C35 C 0.7793(6) 0.5324(10) 0.4797(8)
C36 C 0.6987(8) 1.2925(9) 0.2681(7)
C37 C 0.7544(7) 1.2995(7) 0.3009(6)
C38 C 0.8077(7) 1.2894(7) 0.2826(6)
H14 H 0.8092 1.2808 0.2483
C39 C 0.8963(10) 0.6433(11) 0.2822(6)
C40 C 0.9378(8) 0.6024(9) 0.2523(6)
C41 C 0.9231(7) 0.5326(11) 0.2399(6)
H15 H 0.8874 0.5145 0.2466
C42 C 0.9632(9) 0.4906(9) 0.2174(6)
C43 C 1.0153(8) 0.5187(10) 0.2053(5)
H16 H 1.0426 0.4901 0.1918
C44 C 1.0265(7) 0.5903(9) 0.2137(6)
C45 C 0.9880(8) 0.6305(9) 0.2378(6)
H17 H 0.9963 0.6778 0.2445
C46 C 1.0801(9) 0.6220(12) 0.1951(6)
C47 C 0.8720(7) 0.9938(8) 0.0516(7)
C48 C 0.7993(8) 1.3427(8) 0.4371(6)
C49 C 0.8018(6) 1.3218(8) 0.3826(6)
C50 C 0.7524(6) 1.3176(8) 0.3511(6)
H18 H 0.7171 1.3269 0.3636
C51 C 1.1844(9) 1.1744(9) 0.0767(6)
C52 C 0.8533(8) 1.1731(11) -0.0872(6)
C53 C 1.2393(7) 1.2285(7) 0.2106(6)
C54 C 1.1861(7) 1.2022(8) 0.1306(6)
Zn1_2 Zn 0.95932(7) 0.27808(9) 0.19323(6)
Zn2B Zn 0.96578(7) 0.73912(9) 0.68196(6)
Zn3A Zn 0.63175(7) 1.27568(9) 0.18116(7)
Zn4A Zn 1.37047(7) 1.26305(9) 0.32119(6)
Zn4B Zn 0.87047(7) 1.23695(9) -0.17881(6)
Zn5_2 Zn 0.72263(8) 1.40989(9) 0.50160(6)
Zn5A Zn 0.77737(8) 0.90989(9) -0.00160(6)
Zn5C Zn 1.22263(8) 1.09011(9) 0.00160(6)
O4_2 O 0.9887(5) 1.3752(5) 0.1935(4)
O9B O 1.0652(5) 1.2757(7) 0.3879(4)
O21B O 1.1271(5) 0.7688(6) 0.1036(4)
O26A O 0.7954(4) 0.7889(5) 0.2805(4)
O28A O 1.2055(4) 0.7438(5) 0.2127(4)
O31A O 0.6459(4) 0.4474(6) 0.4826(4)
O33C O 0.7255(5) 0.3652(6) 0.5677(4)
O36_2 O 0.7485(4) 0.3467(5) 0.4510(3)
N1 N 0.3024(6) 0.9815(7) 0.2087(5)
C55 C 0.2707(9) 0.9374(11) 0.1687(7)
H19 H 0.2973 0.9066 0.1539
H20 H 0.2526 0.9676 0.1431
H21 H 0.2420 0.9098 0.1835
C56 C 0.3295(9) 0.9348(10) 0.2481(9)
H22 H 0.3446 0.9626 0.2764
H23 H 0.3603 0.9090 0.2347
H24 H 0.3014 0.9023 0.2588
C57 C 0.3466(8) 1.0233(11) 0.1839(7)
H25 H 0.3655 1.0551 0.2080
H26 H 0.3282 1.0497 0.1563
H27 H 0.3744 0.9918 0.1715
C58 C 0.2617(8) 1.0301(10) 0.2313(7)
H28 H 0.2321 1.0032 0.2455
H29 H 0.2445 1.0610 0.2056
H30 H 0.2820 1.0576 0.2574
N2 N 0.0440(6) 0.5093(8) 0.6011(5)
C59 C 0.1040(7) 0.5156(10) 0.6271(6)
H31 H 0.1307 0.5265 0.6026
H32 H 0.1147 0.4718 0.6434
H33 H 0.1047 0.5526 0.6519
C60 C 0.0282(8) 0.5773(10) 0.5749(7)
H34 H 0.0553 0.5873 0.5505
H35 H 0.0290 0.6147 0.5993
H36 H -0.0097 0.5735 0.5581
C61 C 0.0416(7) 0.4503(9) 0.5640(7)
H37 H 0.0028 0.4447 0.5494
H38 H 0.0541 0.4075 0.5808
H39 H 0.0663 0.4607 0.5378
C62 C 0.0005(7) 0.4970(10) 0.6398(7)
H40 H 0.0067 0.5306 0.6667
H41 H 0.0050 0.4501 0.6532
H42 H -0.0378 0.5024 0.6239
N3 N 0.2230(6) 0.1669(7) 0.4002(5)
C63 C 0.1701(7) 0.1408(10) 0.4227(6)
H43 H 0.1601 0.1729 0.4485
H44 H 0.1775 0.0949 0.4372
H45 H 0.1389 0.1377 0.3969
C64 C 0.2362(7) 0.1187(9) 0.3572(7)
H46 H 0.2447 0.0722 0.3701
H47 H 0.2688 0.1366 0.3414
H48 H 0.2035 0.1167 0.3328
C65 C 0.2723(8) 0.1702(10) 0.4383(7)
H49 H 0.2650 0.2049 0.4633
H50 H 0.3063 0.1829 0.4224
H51 H 0.2778 0.1249 0.4542
C66 C 0.2116(7) 0.2374(10) 0.3785(7)
H52 H 0.1806 0.2346 0.3524
H53 H 0.2456 0.2546 0.3645
H54 H 0.2011 0.2689 0.4045
N4 N 0.7760(6) 0.4022(10) 0.1210(6)
C67 C 0.7207(8) 0.4112(17) 0.0896(11)
H55 H 0.7253 0.3959 0.0558
H56 H 0.7098 0.4601 0.0893
H57 H 0.6914 0.3836 0.1035
C68 C 0.7897(9) 0.3290(13) 0.1295(8)
H58 H 0.7912 0.3055 0.0976
H59 H 0.7607 0.3075 0.1480
H60 H 0.8264 0.3251 0.1485
C69 C 0.8238(9) 0.4385(13) 0.1000(9)
H61 H 0.8588 0.4291 0.1207
H62 H 0.8166 0.4883 0.0993
H63 H 0.8276 0.4218 0.0663
C70 C 0.7658(10) 0.4361(11) 0.1706(9)
H64 H 0.7332 0.4144 0.1841
H65 H 0.7584 0.4855 0.1655
H66 H 0.7992 0.4301 0.1938
N5 N 0.6972(6) 0.5758(7) 0.2943(5)
C71 C 0.7161(7) 0.6299(9) 0.3322(6)
H67 H 0.7140 0.6109 0.3655
H68 H 0.6914 0.6704 0.3280
H69 H 0.7550 0.6436 0.3278
C72 C 0.7328(7) 0.5111(9) 0.3040(6)
H70 H 0.7722 0.5216 0.2990
H71 H 0.7191 0.4745 0.2810
H72 H 0.7300 0.4957 0.3381
C73 C 0.6355(7) 0.5565(10) 0.3003(6)
H73 H 0.6329 0.5347 0.3326
H74 H 0.6222 0.5242 0.2741
H75 H 0.6123 0.5983 0.2980
C74 C 0.7031(8) 0.6013(10) 0.2424(6)
H76 H 0.6790 0.6419 0.2359
H77 H 0.6916 0.5647 0.2187
H78 H 0.7425 0.6139 0.2390
N6 N 0.0531(6) 0.0310(7) 0.1168(5)
C75 C 0.1139(7) 0.0314(9) 0.1376(6)
H79 H 0.1261 0.0791 0.1443
H80 H 0.1375 0.0106 0.1136
H81 H 0.1177 0.0047 0.1685
C76 C 0.0164(7) 0.0600(9) 0.1546(6)
H82 H 0.0216 0.0326 0.1851
H83 H -0.0232 0.0580 0.1416
H84 H 0.0271 0.1081 0.1617
C77 C 0.0340(7) -0.0444(10) 0.1042(7)
H85 H 0.0537 -0.0612 0.0762
H86 H -0.0068 -0.0453 0.0955
H87 H 0.0432 -0.0741 0.1330
C78 C 0.0452(8) 0.0721(9) 0.0689(6)
H88 H 0.0583 0.1196 0.0749
H89 H 0.0052 0.0725 0.0570
H90 H 0.0671 0.0505 0.0440
N7 N 0.0731(7) 0.7502(10) 0.3919(6)
C79 C 0.0410(10) 0.7434(13) 0.4373(9)
H91 H 0.0068 0.7719 0.4334
H92 H 0.0648 0.7590 0.4664
H93 H 0.0305 0.6949 0.4417
C80 C 0.0540(10) 0.8121(14) 0.3657(9)
H94 H 0.0678 0.8122 0.3327
H95 H 0.0685 0.8528 0.3841
H96 H 0.0127 0.8133 0.3627
C81 C 0.1356(10) 0.7532(13) 0.4069(9)
H97 H 0.1555 0.7213 0.3862
H98 H 0.1426 0.7399 0.4417
H99 H 0.1494 0.8003 0.4024
C82 C 0.0640(10) 0.6873(14) 0.3605(10)
H100 H 0.0239 0.6751 0.3577
H101 H 0.0860 0.6488 0.3756
H102 H 0.0762 0.6965 0.3274
N8 N 0.9371(6) 0.7619(9) 0.1013(5)
C83 C 0.9793(10) 0.7728(19) 0.0621(9)
H103 H 0.9765 0.7343 0.0386
H104 H 1.0176 0.7750 0.0783
H105 H 0.9706 0.8162 0.0444
C84 C 0.8796(8) 0.7802(12) 0.0780(8)
H106 H 0.8747 0.7605 0.0446
H107 H 0.8758 0.8306 0.0761
H108 H 0.8509 0.7613 0.0981
C85 C 0.9395(12) 0.6885(12) 0.1173(9)
H109 H 0.9033 0.6754 0.1295
H110 H 0.9696 0.6827 0.1439
H111 H 0.9471 0.6590 0.0893
C86 C 0.9514(8) 0.8074(10) 0.1446(7)
H112 H 0.9203 0.8071 0.1661
H113 H 0.9577 0.8546 0.1333
H114 H 0.9857 0.7903 0.1632
O37 O 0.8993(8) 0.5789(11) 1.0245(7)
N9 N 0.9398(12) 0.5465(18) 0.9512(11)
C87 C 0.9147(14) 0.533(2) 0.9908(14)
C88 C 0.9054(13) 0.4569(18) 0.9933(10)
H115 H 0.9207 0.4382 1.0257
H116 H 0.8647 0.4458 0.9884
C89 C 0.9361(13) 0.4283(18) 0.9527(10)
H117 H 0.9138 0.3912 0.9352
H118 H 0.9728 0.4089 0.9658
C90 C 0.9451(13) 0.4899(18) 0.9167(12)
H119 H 0.9829 0.4886 0.9039
H120 H 0.9156 0.4915 0.8888
C91 C 0.9414(14) 0.624(2) 0.9302(13)
H121 H 0.9231 0.6549 0.9523
H122 H 0.9214 0.6252 0.8971
H123 H 0.9807 0.6378 0.9282
O38 O 0.2443(6) 1.0056(8) 0.4725(5)
N10 N 0.2612(11) 0.8868(14) 0.4512(9)
C92 C 0.2509(14) 0.946(2) 0.4807(13)
C93 C 0.2487(15) 0.8987(17) 0.5371(12)
H124 H 0.2844 0.9042 0.5582
H125 H 0.2171 0.9145 0.5558
C94 C 0.2410(12) 0.8294(14) 0.5221(10)
H126 H 0.2002 0.8189 0.5164
H127 H 0.2578 0.7980 0.5481
C95 C 0.2693(14) 0.8192(17) 0.4749(12)
H128 H 0.3099 0.8082 0.4818
H129 H 0.2509 0.7820 0.4543
C96 C 0.2799(9) 0.9070(13) 0.3973(9)
H130 H 0.2463 0.9105 0.3739
H131 H 0.3050 0.8712 0.3860
H132 H 0.2996 0.9515 0.3991
O39 O 0.0856(9) 0.8860(13) 0.5988(9)
N11 N 0.0962(9) 0.9399(13) 0.5230(9)
C97 C 0.0825(9) 0.9505(13) 0.5686(9)
C98 C 0.0572(9) 1.0168(13) 0.5724(9)
H133 H 0.0731 1.0421 0.6022
H134 H 0.0158 1.0135 0.5729
C99 C 0.076(3) 1.054(3) 0.520(2)
H135 H 0.0417 1.0659 0.4980
H136 H 0.0973 1.0969 0.5276
C100 C 0.097(3) 1.024(3) 0.504(2)
H137 H 0.1370 1.0400 0.5080
H138 H 0.0853 1.0250 0.4682
C101 C 0.1023(12) 0.8926(15) 0.4829(11)
H139 H 0.1219 0.8509 0.4956
H140 H 0.1242 0.9146 0.4582
H141 H 0.0650 0.8800 0.4676
O40 O 0.8911(5) 0.4335(7) 0.5422(4)
H142 H 0.884(6) 0.415(9) 0.513(3)
H143 H 0.863(4) 0.433(10) 0.561(4)
loop_
_geom_bond_atom_site_label_1
_geom_bond_atom_site_label_2
_geom_bond_site_symmetry_1
_geom_bond_site_symmetry_2
Zn1 O1 1_555 1_555
Zn2 O6 1_555 1_555
Zn3 O16 1_555 1_555
Zn4 O13 1_555 1_555
Zn5 O29 1_555 1_555
O1 C1 1_555 1_555
O2 C1 1_555 1_555
O3 C9 1_555 1_555
O4 C9 1_555 1_555
O5 Zn1 1_555 1_555
O6 C3 1_555 1_555
O7 Zn1 1_555 1_555
O8 Zn2 1_555 1_555
O9 C16 1_555 1_555
O10 Zn2 1_555 1_555
O11 C16 1_555 1_555
O12 C17 1_555 1_555
O13 C26 1_555 1_555
O14 C26 1_555 1_555
O15 C24 1_555 1_555
O16 C24 1_555 1_555
O17 C27 1_555 1_555
O18 Zn3 1_555 1_555
O19 Zn3 1_555 1_555
O20 C39 1_555 1_555
O21 C52 1_555 1_555
O22 C52 1_555 1_555
O23 Zn4 1_555 1_555
O24 C46 1_555 1_555
O25 C36 1_555 1_555
O26 C36 1_555 1_555
O27 C25 1_555 1_555
O28 C25 1_555 1_555
O29 C35 1_555 1_555
O30 C35 1_555 1_555
O31 C47 1_555 1_555
O32 C47 1_555 1_555
O33 C51 1_555 1_555
O34 C51 1_555 1_555
O35 C48 1_555 1_555
O36 C48 1_555 1_555
C1 C2 1_555 1_555
C2 C4 1_555 1_555
C3 O5 1_555 1_555
C4 H1 1_555 1_555
C5 C4 1_555 1_555
C6 C5 1_555 1_555
H2 C6 1_555 1_555
C7 C6 1_555 1_555
C8 C2 1_555 1_555
H3 C8 1_555 1_555
C9 C42 1_555 1_555
C10 C3 1_555 1_555
C11 C10 1_555 1_555
H4 C11 1_555 1_555
C12 O7 1_555 1_555
C13 C12 1_555 1_555
C14 C13 1_555 1_555
H5 C14 1_555 1_555
C15 C13 1_555 1_555
H6 C15 1_555 1_555
C16 C31 1_555 1_555
C17 O10 1_555 1_555
C18 C17 1_555 1_555
C19 C18 1_555 1_555
H7 C19 1_555 1_555
C20 C19 1_555 1_555
C21 C20 1_555 1_555
H8 C21 1_555 1_555
C22 C21 1_555 1_555
C23 C18 1_555 1_555
H9 C23 1_555 1_555
C24 C20 1_555 1_555
C25 C53 1_555 1_555
C26 C22 1_555 1_555
C27 O18 1_555 1_555
C28 H10 1_555 1_555
C29 C27 1_555 1_555
C30 C29 1_555 1_555
H11 C30 1_555 1_555
C31 C30 1_555 1_555
C32 C31 1_555 1_555
H12 C32 1_555 1_555
C33 C32 1_555 1_555
C34 C29 1_555 1_555
H13 C34 1_555 1_555
C35 C33 1_555 1_555
C36 C37 1_555 1_555
C37 C38 1_555 1_555
C38 C10 1_555 1_555
H14 C38 1_555 1_555
C39 O19 1_555 1_555
C40 C39 1_555 1_555
C41 C40 1_555 1_555
H15 C41 1_555 1_555
C42 C41 1_555 1_555
C43 C42 1_555 1_555
H16 C43 1_555 1_555
C44 C43 1_555 1_555
C45 C40 1_555 1_555
H17 C45 1_555 1_555
C46 O23 1_555 1_555
C47 C7 1_555 1_555
C48 C49 1_555 1_555
C49 C11 1_555 1_555
C50 C37 1_555 1_555
H18 C50 1_555 1_555
C51 C54 1_555 1_555
C52 C5 1_555 1_555
C53 C15 1_555 1_555
C54 C14 1_555 1_555
N1 C55 1_555 1_555
C55 H19 1_555 1_555
H20 C55 1_555 1_555
H21 C55 1_555 1_555
C56 N1 1_555 1_555
H22 C56 1_555 1_555
H23 C56 1_555 1_555
H24 C56 1_555 1_555
C57 N1 1_555 1_555
H25 C57 1_555 1_555
H26 C57 1_555 1_555
H27 C57 1_555 1_555
C58 N1 1_555 1_555
H28 C58 1_555 1_555
H29 C58 1_555 1_555
H30 C58 1_555 1_555
N2 C59 1_555 1_555
C59 H31 1_555 1_555
H32 C59 1_555 1_555
H33 C59 1_555 1_555
C60 N2 1_555 1_555
H34 C60 1_555 1_555
H35 C60 1_555 1_555
H36 C60 1_555 1_555
C61 N2 1_555 1_555
H37 C61 1_555 1_555
H38 C61 1_555 1_555
H39 C61 1_555 1_555
C62 N2 1_555 1_555
H40 C62 1_555 1_555
H41 C62 1_555 1_555
H42 C62 1_555 1_555
N3 C63 1_555 1_555
C63 H43 1_555 1_555
H44 C63 1_555 1_555
H45 C63 1_555 1_555
C64 N3 1_555 1_555
H46 C64 1_555 1_555
H47 C64 1_555 1_555
H48 C64 1_555 1_555
C65 N3 1_555 1_555
H49 C65 1_555 1_555
H50 C65 1_555 1_555
H51 C65 1_555 1_555
C66 N3 1_555 1_555
H52 C66 1_555 1_555
H53 C66 1_555 1_555
H54 C66 1_555 1_555
N4 C67 1_555 1_555
C67 H55 1_555 1_555
H56 C67 1_555 1_555
H57 C67 1_555 1_555
C68 N4 1_555 1_555
H58 C68 1_555 1_555
H59 C68 1_555 1_555
H60 C68 1_555 1_555
C69 N4 1_555 1_555
H61 C69 1_555 1_555
H62 C69 1_555 1_555
H63 C69 1_555 1_555
C70 N4 1_555 1_555
H64 C70 1_555 1_555
H65 C70 1_555 1_555
H66 C70 1_555 1_555
N5 C71 1_555 1_555
C71 H67 1_555 1_555
H68 C71 1_555 1_555
H69 C71 1_555 1_555
C72 N5 1_555 1_555
H70 C72 1_555 1_555
H71 C72 1_555 1_555
H72 C72 1_555 1_555
C73 N5 1_555 1_555
H73 C73 1_555 1_555
H74 C73 1_555 1_555
H75 C73 1_555 1_555
C74 N5 1_555 1_555
H76 C74 1_555 1_555
H77 C74 1_555 1_555
H78 C74 1_555 1_555
N6 C75 1_555 1_555
C75 H79 1_555 1_555
H80 C75 1_555 1_555
H81 C75 1_555 1_555
C76 N6 1_555 1_555
H82 C76 1_555 1_555
H83 C76 1_555 1_555
H84 C76 1_555 1_555
C77 N6 1_555 1_555
H85 C77 1_555 1_555
H86 C77 1_555 1_555
H87 C77 1_555 1_555
C78 N6 1_555 1_555
H88 C78 1_555 1_555
H89 C78 1_555 1_555
H90 C78 1_555 1_555
N7 C79 1_555 1_555
C79 H91 1_555 1_555
H92 C79 1_555 1_555
H93 C79 1_555 1_555
C80 N7 1_555 1_555
H94 C80 1_555 1_555
H95 C80 1_555 1_555
H96 C80 1_555 1_555
C81 N7 1_555 1_555
H97 C81 1_555 1_555
H98 C81 1_555 1_555
H99 C81 1_555 1_555
C82 N7 1_555 1_555
H100 C82 1_555 1_555
H101 C82 1_555 1_555
H102 C82 1_555 1_555
N8 C83 1_555 1_555
C83 H103 1_555 1_555
H104 C83 1_555 1_555
H105 C83 1_555 1_555
C84 N8 1_555 1_555
H106 C84 1_555 1_555
H107 C84 1_555 1_555
H108 C84 1_555 1_555
C85 N8 1_555 1_555
H109 C85 1_555 1_555
H110 C85 1_555 1_555
H111 C85 1_555 1_555
C86 N8 1_555 1_555
H112 C86 1_555 1_555
H113 C86 1_555 1_555
H114 C86 1_555 1_555
O37 C87 1_555 1_555
N9 C87 1_555 1_555
C87 C88 1_555 1_555
C88 H115 1_555 1_555
H116 C88 1_555 1_555
C89 C88 1_555 1_555
H117 C89 1_555 1_555
H118 C89 1_555 1_555
C90 N9 1_555 1_555
H119 C90 1_555 1_555
H120 C90 1_555 1_555
C91 N9 1_555 1_555
H121 C91 1_555 1_555
H122 C91 1_555 1_555
H123 C91 1_555 1_555
O38 C92 1_555 1_555
N10 C92 1_555 1_555
C92 C93 1_555 1_555
C93 H124 1_555 1_555
H125 C93 1_555 1_555
C94 C93 1_555 1_555
H126 C94 1_555 1_555
H127 C94 1_555 1_555
C95 N10 1_555 1_555
H128 C95 1_555 1_555
H129 C95 1_555 1_555
C96 N10 1_555 1_555
H130 C96 1_555 1_555
H131 C96 1_555 1_555
H132 C96 1_555 1_555
O39 C97 1_555 1_555
N11 C97 1_555 1_555
C97 C98 1_555 1_555
C98 H133 1_555 1_555
H134 C98 1_555 1_555
C99 C98 1_555 1_555
H135 C99 1_555 1_555
H136 C99 1_555 1_555
C100 N11 1_555 1_555
H137 C100 1_555 1_555
H138 C100 1_555 1_555
C101 N11 1_555 1_555
H139 C101 1_555 1_555
H140 C101 1_555 1_555
H141 C101 1_555 1_555
O40 H142 1_555 1_555
H143 O40 1_555 1_555
Zn1_2 O4 1_555 1_555
Zn2B O9 1_555 1_555
Zn3A O26 1_555 1_555
Zn4A O28 1_555 1_555
Zn4B O21 1_555 1_555
Zn5_2 O36 1_555 1_555
Zn5A O31 1_555 1_555
Zn5C O33 1_555 1_555
O4_2 Zn1 1_555 1_555
O9B Zn2 1_555 1_555
O21B Zn4 1_555 1_555
O26A Zn3 1_555 1_555
O28A Zn4 1_555 1_555
O31A Zn5 1_555 1_555
O33C Zn5 1_555 1_555
O36_2 Zn5 1_555 1_555
O8 C12 1_555 1_555
C7 C8 1_555 1_555
C22 C23 1_555 1_555
C28 C53 1_555 1_555
C28 C54 1_555 1_555
C33 C34 1_555 1_555
C44 C45 1_555 1_555
C44 C46 1_555 1_555
C49 C50 1_555 1_555
C89 C90 1_555 1_555
C94 C95 1_555 1_555
C99 C100 1_555 1_555

#END
