
#######################################################################
#
#                 Cambridge Crystallographic Data Centre
#                                CCDC 
#
#######################################################################
#
# If this CIF has been generated from an entry in the Cambridge 
# Structural Database, then it will include bibliographic, chemical, 
# crystal, experimental, refinement or atomic coordinate data resulting 
# from the CCDC's data processing and validation procedures.
#
#######################################################################

data_FUWFOU
_symmetry_cell_setting           monoclinic
_symmetry_space_group_name_H-M   'P 21/n'
_symmetry_Int_Tables_number      14
_space_group_name_Hall           '-P 2yn'
loop_
_symmetry_equiv_pos_site_id
_symmetry_equiv_pos_as_xyz
1 x,y,z
2 1/2-x,1/2+y,1/2-z
3 -x,-y,-z
4 1/2+x,1/2-y,1/2+z
_cell_length_a                   12.6177(19)
_cell_length_b                   12.5869(18)
_cell_length_c                   28.561(4)
_cell_angle_alpha                90
_cell_angle_beta                 96.843(2)
_cell_angle_gamma                90
_cell_volume                     4503.68
loop_
_atom_site_label
_atom_site_type_symbol
_atom_site_fract_x
_atom_site_fract_y
_atom_site_fract_z
Cd1 Cd 0.56515(8) 0.33110(9) 0.61116(4)
Cd2 Cd 0.35594(8) 0.54012(9) 0.60874(4)
Cd3 Cd 0.5000 0.5000 0.5000
O1 O 0.4420(8) 0.4281(9) 0.5636(4)
N1 N 0.9758(11) 0.0660(11) 0.8464(5)
N2 N 0.5274(10) 0.7658(11) 0.5331(5)
N3 N 0.9000(11) -0.0089(11) 0.8452(5)
N4 N 0.9455(11) 0.1368(11) 0.8120(5)
N5 N 0.6794(10) 0.2432(10) 0.6700(5)
N6 N 0.3229(11) 0.5288(11) 0.4609(5)
N7 N 0.5248(11) 1.1596(11) 0.5790(5)
N8 N 0.0800(11) 0.8125(11) 0.8414(5)
N9 N 0.2130(11) 0.8703(11) 0.8076(5)
N10 N 0.3902(11) 0.7835(11) 0.5742(5)
N11 N 0.4820(11) 0.6687(11) 0.5362(5)
N12 N 0.2014(11) 0.6292(11) 0.4236(5)
N13 N 0.1518(11) 0.8879(11) 0.8420(5)
N14 N 0.4020(10) 0.6805(10) 0.5613(5)
C1 C 0.8527(13) 0.1011(13) 0.7919(6)
N15 N 0.8214(11) 0.0124(11) 0.8121(5)
C2 C 0.1580(13) 0.5437(13) 0.4432(6)
C3 C 0.1741(13) 0.7794(13) 0.7874(6)
N16 N 0.0923(11) 0.7426(11) 0.8087(5)
C4 C 0.8302(12) 0.2434(13) 0.7293(5)
H1 H 0.8914 0.2775 0.7432
N17 N 0.2808(10) 0.6435(10) 0.6643(5)
C5 C 0.7930(13) 0.1502(13) 0.7503(6)
C6 C 0.6939(13) 0.1110(13) 0.7311(5)
H2 H 0.6625 0.0543 0.7451
N18 N 0.2303(11) 0.4812(11) 0.4663(5)
C7 C -0.0301(13) 0.6082(13) 0.4225(6)
H3 H -0.0038 0.6751 0.4162
N19 N 0.3047(11) 0.6153(11) 0.4363(5)
C8 C 0.0400(13) 0.5290(13) 0.4374(6)
C9 C 0.6003(13) 1.0997(13) 0.5633(6)
H4 H 0.6645 1.1316 0.5584
C10 C 0.4121(13) 1.0108(13) 0.5771(6)
H5 H 0.3461 0.9826 0.5819
C11 C 0.4916(12) 0.9443(13) 0.5622(6)
C12 C 0.7761(12) 0.2829(13) 0.6887(5)
H6 H 0.8061 0.3385 0.6734
N20 N -0.1794(11) 0.4931(11) 0.4229(5)
C13 C 0.4320(13) 1.1167(13) 0.5845(6)
H7 H 0.3782 1.1597 0.5936
C14 C 0.5875(13) 0.9925(13) 0.5540(6)
H8 H 0.6414 0.9533 0.5426
C15 C 0.2139(13) 0.7326(13) 0.7467(6)
C16 C 0.4702(13) 0.8317(13) 0.5561(6)
C17 C 0.1650(13) 0.6422(13) 0.7250(6)
H9 H 0.1083 0.6103 0.7376
C18 C -0.1126(13) 0.4151(13) 0.4383(6)
H10 H -0.1409 0.3491 0.4445
C19 C 0.2961(13) 0.7775(13) 0.7246(6)
H11 H 0.3291 0.8395 0.7366
C20 C 0.6438(13) 0.1578(12) 0.6910(5)
H12 H 0.5802 0.1277 0.6774
C21 C 0.1995(13) 0.6009(13) 0.6855(6)
H13 H 0.1659 0.5404 0.6724
C22 C -0.1368(13) 0.5915(13) 0.4168(6)
H14 H -0.1824 0.6483 0.4084
C23 C 0.3289(13) 0.7304(13) 0.6849(6)
H15 H 0.3863 0.7598 0.6719
C24 C -0.0051(13) 0.4278(13) 0.4451(6)
H16 H 0.0389 0.3706 0.4548
C25 C 0.2906(12) 0.2864(12) 0.5153(5)
H17 H 0.3206 0.2164 0.5147
H18 H 0.2241 0.2884 0.4951
H19 H 0.2785 0.3039 0.5469
O2 O 0.3658(9) 0.3645(9) 0.4983(4)
Cd1B Cd -0.56515(8) 0.66890(9) 0.38884(4)
Cd2B Cd -0.35594(8) 0.45988(9) 0.39126(4)
O1B O -0.4420(8) 0.5719(9) 0.4364(4)
N1B N -0.9758(11) 0.9340(11) 0.1536(5)
N2B N -0.5274(10) 0.2342(11) 0.4669(5)
N3B N -0.9000(11) 1.0089(11) 0.1548(5)
N4B N -0.9455(11) 0.8632(11) 0.1880(5)
N5B N -0.6794(10) 0.7568(10) 0.3300(5)
N6B N -0.3229(11) 0.4712(11) 0.5391(5)
N7B N -0.5248(11) -0.1596(11) 0.4210(5)
N8B N -0.0800(11) 0.1875(11) 0.1586(5)
N9B N -0.2130(11) 0.1297(11) 0.1924(5)
N10B N -0.3902(11) 0.2165(11) 0.4258(5)
N11B N -0.4820(11) 0.3313(11) 0.4638(5)
N12B N -0.2014(11) 0.3708(11) 0.5764(5)
N13B N -0.1518(11) 0.1121(11) 0.1580(5)
N14B N -0.4020(10) 0.3195(10) 0.4387(5)
C1B C -0.8527(13) 0.8989(13) 0.2081(6)
N15B N -0.8214(11) 0.9876(11) 0.1879(5)
C2B C -0.1580(13) 0.4563(13) 0.5568(6)
C3B C -0.1741(13) 0.2206(13) 0.2126(6)
N16B N -0.0923(11) 0.2574(11) 0.1913(5)
C4B C -0.8302(12) 0.7566(13) 0.2707(5)
H1B H -0.8914 0.7225 0.2568
N17B N -0.2808(10) 0.3565(10) 0.3357(5)
C5B C -0.7930(13) 0.8498(13) 0.2497(6)
C6B C -0.6939(13) 0.8890(13) 0.2689(5)
H2B H -0.6625 0.9457 0.2549
N18B N -0.2303(11) 0.5188(11) 0.5337(5)
C7B C 0.0301(13) 0.3918(13) 0.5775(6)
H3B H 0.0038 0.3249 0.5838
N19B N -0.3047(11) 0.3847(11) 0.5637(5)
C8B C -0.0400(13) 0.4710(13) 0.5626(6)
C9B C -0.6003(13) -0.0997(13) 0.4367(6)
H4B H -0.6645 -0.1316 0.4416
C10B C -0.4121(13) -0.0108(13) 0.4229(6)
H5B H -0.3461 0.0174 0.4181
C11B C -0.4916(12) 0.0557(13) 0.4378(6)
C12B C -0.7761(12) 0.7171(13) 0.3113(5)
H6B H -0.8061 0.6615 0.3266
N20B N 0.1794(11) 0.5069(11) 0.5771(5)
C13B C -0.4320(13) -0.1167(13) 0.4155(6)
H7B H -0.3782 -0.1597 0.4064
C14B C -0.5875(13) 0.0075(13) 0.4460(6)
H8B H -0.6414 0.0467 0.4574
C15B C -0.2139(13) 0.2674(13) 0.2533(6)
C16B C -0.4702(13) 0.1683(13) 0.4439(6)
C17B C -0.1650(13) 0.3578(13) 0.2750(6)
H9B H -0.1083 0.3897 0.2624
C18B C 0.1126(13) 0.5849(13) 0.5617(6)
H10B H 0.1409 0.6509 0.5555
C19B C -0.2961(13) 0.2225(13) 0.2754(6)
H11B H -0.3291 0.1605 0.2634
C20B C -0.6438(13) 0.8422(12) 0.3090(5)
H12B H -0.5802 0.8723 0.3226
C21B C -0.1995(13) 0.3991(13) 0.3145(6)
H13B H -0.1659 0.4596 0.3276
C22B C 0.1368(13) 0.4085(13) 0.5832(6)
H14B H 0.1824 0.3517 0.5916
C23B C -0.3289(13) 0.2696(13) 0.3151(6)
H15B H -0.3863 0.2402 0.3281
C24B C 0.0051(13) 0.5722(13) 0.5549(6)
H16B H -0.0389 0.6294 0.5452
C25B C 0.7094(12) 0.7136(12) 0.4847(5)
H17B H 0.6794 0.7836 0.4853
H18B H 0.7759 0.7116 0.5049
H19B H 0.7215 0.6961 0.4531
O2B O 0.6342(9) 0.6355(9) 0.5017(4)
Cd1_2 Cd -0.43485(8) 0.33110(9) 0.61116(4)
Cd1_3 Cd 0.56515(8) 1.33110(9) 0.61116(4)
Cd1A Cd -0.06515(8) 0.83110(9) 0.88884(4)
Cd1A_2 Cd 0.93485(8) -0.16890(9) 0.88884(4)
Cd1B_2 Cd -0.56515(8) -0.33110(9) 0.38884(4)
Cd1B_3 Cd 0.43485(8) 0.66890(9) 0.38884(4)
Cd1C Cd -0.93485(8) 1.16890(9) 0.11116(4)
Cd1C_2 Cd 0.06515(8) 0.16890(9) 0.11116(4)
Cd2A Cd 0.14406(8) 1.04012(9) 0.89126(4)
Cd2A_2 Cd 1.14406(8) 0.04012(9) 0.89126(4)
Cd2C Cd -1.14406(8) 0.95988(9) 0.10874(4)
Cd2C_2 Cd -0.14406(8) -0.04012(9) 0.10874(4)
Cd3_2 Cd -0.5000 0.5000 0.5000
O1B_2 O 0.5580(8) 0.5719(9) 0.4364(4)
N1A N 0.5242(11) 0.5660(11) 0.6536(5)
N1C N -0.5242(11) 0.4340(11) 0.3464(5)
N3A N 0.6000(11) 0.4911(11) 0.6548(5)
N3C N -0.6000(11) 0.5089(11) 0.3452(5)
N6B_2 N 0.6771(11) 0.4712(11) 0.5391(5)
N7_2 N 0.5248(11) 0.1596(11) 0.5790(5)
N7B_2 N -0.5248(11) 0.8404(11) 0.4210(5)
N8A N 0.4200(11) 0.3125(11) 0.6586(5)
N8C N -0.4200(11) 0.6875(11) 0.3414(5)
N11B_2 N 0.5180(11) 0.3313(11) 0.4638(5)
N13A N 0.3482(11) 0.3879(11) 0.6580(5)
N13C N -0.3482(11) 0.6121(11) 0.3420(5)
N19_2 N -0.6953(11) 0.6153(11) 0.4363(5)
N19B_2 N 0.6953(11) 0.3847(11) 0.5637(5)
loop_
_geom_bond_atom_site_label_1
_geom_bond_atom_site_label_2
_geom_bond_site_symmetry_1
_geom_bond_site_symmetry_2
Cd1 O1 1_555 1_555
Cd2 O1 1_555 1_555
Cd3 O1 1_555 1_555
N1 N3 1_555 1_555
N2 N11 1_555 1_555
N3 N15 1_555 1_555
N4 N1 1_555 1_555
N5 Cd1 1_555 1_555
N6 Cd3 1_555 1_555
N7 C9 1_555 1_555
N8 N13 1_555 1_555
N9 N13 1_555 1_555
N10 N14 1_555 1_555
N11 Cd3 1_555 1_555
N12 C2 1_555 1_555
N13 Cd2A 1_555 1_555
N14 Cd2 1_555 1_555
C1 N4 1_555 1_555
N15 C1 1_555 1_555
C2 N18 1_555 1_555
C3 N9 1_555 1_555
N16 N8 1_555 1_555
C4 H1 1_555 1_555
N17 Cd2 1_555 1_555
C5 C1 1_555 1_555
C6 C5 1_555 1_555
H2 C6 1_555 1_555
N18 N6 1_555 1_555
C7 H3 1_555 1_555
N19 N6 1_555 1_555
C8 C2 1_555 1_555
C9 H4 1_555 1_555
C10 H5 1_555 1_555
C11 C10 1_555 1_555
C12 N5 1_555 1_555
H6 C12 1_555 1_555
N20 C18 1_555 1_555
C13 N7 1_555 1_555
H7 C13 1_555 1_555
C14 C9 1_555 1_555
H8 C14 1_555 1_555
C15 C3 1_555 1_555
C16 N2 1_555 1_555
C17 C15 1_555 1_555
H9 C17 1_555 1_555
C18 H10 1_555 1_555
C19 C15 1_555 1_555
H11 C19 1_555 1_555
C20 N5 1_555 1_555
H12 C20 1_555 1_555
C21 N17 1_555 1_555
H13 C21 1_555 1_555
C22 C7 1_555 1_555
H14 C22 1_555 1_555
C23 N17 1_555 1_555
H15 C23 1_555 1_555
C24 C8 1_555 1_555
H16 C24 1_555 1_555
C25 H17 1_555 1_555
H18 C25 1_555 1_555
H19 C25 1_555 1_555
O2 Cd3 1_555 1_555
Cd1B O1B 1_555 1_555
Cd2B N20 1_555 1_555
O1B Cd2B 1_555 1_555
N1B N3B 1_555 1_555
N2B N11B 1_555 1_555
N3B N15B 1_555 1_555
N4B N1B 1_555 1_555
N5B Cd1B 1_555 1_555
N6B N18B 1_555 1_555
N7B C9B 1_555 1_555
N8B N13B 1_555 1_555
N9B N13B 1_555 1_555
N10B N14B 1_555 1_555
N11B N14B 1_555 1_555
N12B C2B 1_555 1_555
N13B Cd2C_2 1_555 1_555
N14B Cd2B 1_555 1_555
C1B N4B 1_555 1_555
N15B C1B 1_555 1_555
C2B N18B 1_555 1_555
C3B N9B 1_555 1_555
N16B N8B 1_555 1_555
C4B H1B 1_555 1_555
N17B Cd2B 1_555 1_555
C5B C1B 1_555 1_555
C6B C5B 1_555 1_555
H2B C6B 1_555 1_555
C7B H3B 1_555 1_555
N19B N6B 1_555 1_555
C8B C2B 1_555 1_555
C9B H4B 1_555 1_555
C10B H5B 1_555 1_555
C11B C10B 1_555 1_555
C12B N5B 1_555 1_555
H6B C12B 1_555 1_555
N20B Cd2 1_555 1_555
C13B N7B 1_555 1_555
H7B C13B 1_555 1_555
C14B C9B 1_555 1_555
H8B C14B 1_555 1_555
C15B C3B 1_555 1_555
C16B N2B 1_555 1_555
C17B C15B 1_555 1_555
H9B C17B 1_555 1_555
C18B N20B 1_555 1_555
H10B C18B 1_555 1_555
C19B C15B 1_555 1_555
H11B C19B 1_555 1_555
C20B N5B 1_555 1_555
H12B C20B 1_555 1_555
C21B N17B 1_555 1_555
H13B C21B 1_555 1_555
C22B C7B 1_555 1_555
H14B C22B 1_555 1_555
C23B N17B 1_555 1_555
H15B C23B 1_555 1_555
C24B C8B 1_555 1_555
H16B C24B 1_555 1_555
C25B H17B 1_555 1_555
H18B C25B 1_555 1_555
H19B C25B 1_555 1_555
O2B Cd3 1_555 1_555
Cd1_2 N19B 1_555 1_555
Cd1_3 N7 1_555 1_555
Cd1A N8 1_555 1_555
Cd1A_2 N3 1_555 1_555
Cd1B_2 N7B 1_555 1_555
Cd1B_3 N19 1_555 1_555
Cd1C N3B 1_555 1_555
Cd1C_2 N8B 1_555 1_555
Cd2A_2 N1 1_555 1_555
Cd2C N1B 1_555 1_555
Cd3_2 O1B 1_555 1_555
O1B_2 Cd3 1_555 1_555
N1A Cd2 1_555 1_555
N1C Cd2B 1_555 1_555
N3A Cd1 1_555 1_555
N3C Cd1B 1_555 1_555
N6B_2 Cd3 1_555 1_555
N7_2 Cd1 1_555 1_555
N7B_2 Cd1B 1_555 1_555
N8A Cd1 1_555 1_555
N8C Cd1B 1_555 1_555
N11B_2 Cd3 1_555 1_555
N13A Cd2 1_555 1_555
N13C Cd2B 1_555 1_555
N19_2 Cd1B 1_555 1_555
N19B_2 Cd1 1_555 1_555
N10 C16 1_555 1_555
N11 N14 1_555 1_555
N12 N19 1_555 1_555
C3 N16 1_555 1_555
C4 C5 1_555 1_555
C4 C12 1_555 1_555
C6 C20 1_555 1_555
C7 C8 1_555 1_555
C10 C13 1_555 1_555
C11 C14 1_555 1_555
C11 C16 1_555 1_555
N20 C22 1_555 1_555
C17 C21 1_555 1_555
C18 C24 1_555 1_555
C19 C23 1_555 1_555
C25 O2 1_555 1_555
N6B Cd3_2 1_555 1_555
N10B C16B 1_555 1_555
N11B Cd3_2 1_555 1_555
N12B N19B 1_555 1_555
C3B N16B 1_555 1_555
C4B C5B 1_555 1_555
C4B C12B 1_555 1_555
C6B C20B 1_555 1_555
C7B C8B 1_555 1_555
C10B C13B 1_555 1_555
C11B C14B 1_555 1_555
C11B C16B 1_555 1_555
N20B C22B 1_555 1_555
C17B C21B 1_555 1_555
C18B C24B 1_555 1_555
C19B C23B 1_555 1_555
C25B O2B 1_555 1_555
Cd1B_3 O1B_2 1_555 1_555
N1A N3A 1_555 1_555
N1C N3C 1_555 1_555
N6B_2 N19B_2 1_555 1_555
N8A N13A 1_555 1_555
N8C N13C 1_555 1_555

#END
