
#######################################################################
#
#                 Cambridge Crystallographic Data Centre
#                                CCDC 
#
#######################################################################
#
# If this CIF has been generated from an entry in the Cambridge 
# Structural Database, then it will include bibliographic, chemical, 
# crystal, experimental, refinement or atomic coordinate data resulting 
# from the CCDC's data processing and validation procedures.
#
#######################################################################

data_GAGQAI
_symmetry_cell_setting           cubic
_symmetry_space_group_name_H-M   'P m -3 m'
_symmetry_Int_Tables_number      221
_space_group_name_Hall           '-P 4 2 3'
loop_
_symmetry_equiv_pos_site_id
_symmetry_equiv_pos_as_xyz
1 x,y,z
2 -x,-y,z
3 -x,y,-z
4 x,-y,-z
5 z,x,y
6 z,-x,-y
7 -z,-x,y
8 -z,x,-y
9 y,z,x
10 -y,z,-x
11 y,-z,-x
12 -y,-z,x
13 y,x,-z
14 -y,-x,-z
15 y,-x,z
16 -y,x,z
17 x,z,-y
18 -x,z,y
19 -x,-z,-y
20 x,-z,y
21 z,y,-x
22 z,-y,x
23 -z,y,x
24 -z,-y,-x
25 -x,-y,-z
26 x,y,-z
27 x,-y,z
28 -x,y,z
29 -z,-x,-y
30 -z,x,y
31 z,x,-y
32 z,-x,y
33 -y,-z,-x
34 y,-z,x
35 -y,z,x
36 y,z,-x
37 -y,-x,z
38 y,x,z
39 -y,x,-z
40 y,-x,-z
41 -x,-z,y
42 x,-z,-y
43 x,z,y
44 -x,z,-y
45 -z,-y,x
46 -z,y,-x
47 z,-y,-x
48 z,y,x
_cell_length_a                   18.8754(2)
_cell_length_b                   18.8754(2)
_cell_length_c                   18.8754(2)
_cell_angle_alpha                90
_cell_angle_beta                 90
_cell_angle_gamma                90
_cell_volume                     6724.94
loop_
_atom_site_label
_atom_site_type_symbol
_atom_site_fract_x
_atom_site_fract_y
_atom_site_fract_z
Fe2 Fe 0.27613 0.00000 0.00000
Fe1 Fe 0.13538 0.5000 0.0000
C1 C 0.1516 0.33575 0.1516
C2 C 0.18004 0.27115 0.18004
C3 C 0.24227 0.24227 0.14984
Cl1 Cl 0.00000 0.50000 0.00000
N1 N 0.13108 0.42056 0.08167
N2 N 0.17569 0.36802 0.09165
H1 H 0.26572 0.26572 0.10595
O1 O 0.24601 0.50000 0.00000
C4 C 0.3333 0.50000 0.03524
Fe1A Fe -0.13538 0.5000 0.0000
Fe1U Fe 0.0000 0.5000 0.13538
Fe1T Fe 0.0000 0.5000 -0.13538
Fe1H Fe 0.5000 0.0000 0.13538
Fe1L Fe 0.5000 0.13538 0.0000
Fe1P Fe 0.13538 0.0000 0.5000
Fe1D Fe 0.0000 0.13538 0.5000
Fe1M Fe -0.5000 0.86462 0.0000
Fe1I Fe -0.5000 1.0000 -0.13538
Fe1E Fe 0.0000 0.86462 -0.5000
Fe1Q Fe -0.13538 1.0000 -0.5000
C1H C 0.33575 0.1516 0.1516
C1D C 0.1516 0.1516 0.33575
C1W C -0.1516 0.66425 -0.1516
C1M C -0.33575 0.8484 -0.1516
C1R C -0.1516 0.8484 -0.33575
C2H C 0.27115 0.18004 0.18004
C2D C 0.18004 0.18004 0.27115
C2W C -0.18004 0.72885 -0.18004
C2M C -0.27115 0.81996 -0.18004
C2R C -0.18004 0.81996 -0.27115
C3D C 0.14984 0.24227 0.24227
C3H C 0.24227 0.14984 0.24227
C3M C -0.24227 0.75773 -0.14984
C3W C -0.14984 0.75773 -0.24227
C3R C -0.24227 0.85016 -0.24227
N1C N 0.13108 0.57944 -0.08167
N1Y N 0.13108 0.42056 -0.08167
N1Z N 0.13108 0.57944 0.08167
N1UA N 0.08167 0.42056 0.13108
N1U N 0.08167 0.57944 0.13108
N1V N -0.08167 0.42056 0.13108
N1RA N -0.08167 0.57944 0.13108
N1A N -0.13108 0.57944 0.08167
N1B N -0.13108 0.42056 -0.08167
N1X N -0.13108 0.57944 -0.08167
N1AA N -0.13108 0.42056 0.08167
N1T N 0.08167 0.42056 -0.13108
N1W N -0.08167 0.57944 -0.13108
N1SA N -0.08167 0.42056 -0.13108
N1TA N 0.08167 0.57944 -0.13108
N1H N 0.42056 0.08167 0.13108
N1KA N 0.42056 0.13108 0.08167
N1PA N 0.13108 0.08167 0.42056
N1D N 0.08167 0.13108 0.42056
N1M N -0.42056 0.86892 -0.08167
N1FA N -0.42056 0.91833 -0.13108
N1BA N -0.08167 0.86892 -0.42056
N1R N -0.13108 0.91833 -0.42056
N2UA N 0.09165 0.36802 0.17569
N2H N 0.36802 0.09165 0.17569
N2KA N 0.36802 0.17569 0.09165
N2D N 0.09165 0.17569 0.36802
N2PA N 0.17569 0.09165 0.36802
N2X N -0.17569 0.63198 -0.09165
N2W N -0.09165 0.63198 -0.17569
N2M N -0.36802 0.82431 -0.09165
N2FA N -0.36802 0.90835 -0.17569
N2R N -0.17569 0.90835 -0.36802
N2BA N -0.09165 0.82431 -0.36802
H1D H 0.10595 0.26572 0.26572
H1H H 0.26572 0.10595 0.26572
H1M H -0.26572 0.73428 -0.10595
H1W H -0.10595 0.73428 -0.26572
H1R H -0.26572 0.89405 -0.26572
O1U O 0.00000 0.50000 0.24601
O1A O -0.24601 0.50000 0.00000
O1T O 0.00000 0.50000 -0.24601
C4C C 0.3333 0.50000 -0.03524
H2? H 0.29245 0.50000 0.09581
H3? H 0.346 0.45522 0.00000
loop_
_geom_bond_atom_site_label_1
_geom_bond_atom_site_label_2
_geom_bond_site_symmetry_1
_geom_bond_site_symmetry_2
Fe1 Cl1 1_555 1_555
C1 C2 1_555 1_555
C2 C3 1_555 1_555
C3 H1 1_555 1_555
Cl1 Fe1A 1_555 1_555
N1 Fe1 1_555 1_555
N2 C1 1_555 1_555
O1 Fe1 1_555 1_555
C4 O1 1_555 1_555
Fe1A N1A 1_555 1_555
Fe1U Cl1 1_555 1_555
Fe1T Cl1 1_555 1_555
Fe1H N1H 1_555 1_555
Fe1L N1KA 1_555 1_555
Fe1P N1PA 1_555 1_555
Fe1D N1D 1_555 1_555
Fe1M N1M 1_555 1_555
Fe1I N1FA 1_555 1_555
Fe1E N1BA 1_555 1_555
Fe1Q N1R 1_555 1_555
C1H C2H 1_555 1_555
C1D C2D 1_555 1_555
C1W C2W 1_555 1_555
C1M C2M 1_555 1_555
C1R C2R 1_555 1_555
C2H C3 1_555 1_555
C2D C3D 1_555 1_555
C2W C3M 1_555 1_555
C2M C3M 1_555 1_555
C2R C3W 1_555 1_555
C3D C2 1_555 1_555
C3H C2H 1_555 1_555
C3M H1M 1_555 1_555
C3W C2W 1_555 1_555
C3R C2M 1_555 1_555
N1C Fe1 1_555 1_555
N1Y Fe1 1_555 1_555
N1Z Fe1 1_555 1_555
N1UA N1 1_555 1_555
N1U Fe1U 1_555 1_555
N1V Fe1U 1_555 1_555
N1RA Fe1U 1_555 1_555
N1B Fe1A 1_555 1_555
N1X Fe1A 1_555 1_555
N1AA Fe1A 1_555 1_555
N1T Fe1T 1_555 1_555
N1W Fe1T 1_555 1_555
N1SA Fe1T 1_555 1_555
N1TA Fe1T 1_555 1_555
N1H N1KA 1_555 1_555
N1KA N2KA 1_555 1_555
N1PA N1D 1_555 1_555
N1D N2D 1_555 1_555
N1M N1FA 1_555 1_555
N1FA N2FA 1_555 1_555
N1BA N1R 1_555 1_555
N1R N2R 1_555 1_555
N2UA C1 1_555 1_555
N2H C1H 1_555 1_555
N2KA C1H 1_555 1_555
N2D C1D 1_555 1_555
N2PA C1D 1_555 1_555
N2X C1W 1_555 1_555
N2W C1W 1_555 1_555
N2M C1M 1_555 1_555
N2FA C1M 1_555 1_555
N2R C1R 1_555 1_555
N2BA C1R 1_555 1_555
H1D C3D 1_555 1_555
H1H C3H 1_555 1_555
H1W C3W 1_555 1_555
H1R C3R 1_555 1_555
O1U Fe1U 1_555 1_555
O1A Fe1A 1_555 1_555
O1T Fe1T 1_555 1_555
C4C O1 1_555 1_555
N1 N2 1_555 1_555
C4 C4C 1_555 1_555
Fe1U N1UA 1_555 1_555
C2D C3H 1_555 1_555
C2R C3R 1_555 1_555
N1UA N2UA 1_555 1_555
N1X N1W 1_555 1_555
N1X N2X 1_555 1_555
N1W N2W 1_555 1_555
N1H N2H 1_555 1_555
N1PA N2PA 1_555 1_555
N1M N2M 1_555 1_555
N1BA N2BA 1_555 1_555

#END
