
#######################################################################
#
#                 Cambridge Crystallographic Data Centre
#                                CCDC 
#
#######################################################################
#
# If this CIF has been generated from an entry in the Cambridge 
# Structural Database, then it will include bibliographic, chemical, 
# crystal, experimental, refinement or atomic coordinate data resulting 
# from the CCDC's data processing and validation procedures.
#
#######################################################################

data_GAJZAU
_symmetry_cell_setting           monoclinic
_symmetry_space_group_name_H-M   'P 21/c'
_symmetry_Int_Tables_number      14
_space_group_name_Hall           '-P 2ybc'
loop_
_symmetry_equiv_pos_site_id
_symmetry_equiv_pos_as_xyz
1 x,y,z
2 -x,1/2+y,1/2-z
3 -x,-y,-z
4 x,1/2-y,1/2+z
_cell_length_a                   5.6068(8)
_cell_length_b                   13.3820(18)
_cell_length_c                   21.192(3)
_cell_angle_alpha                90
_cell_angle_beta                 95.892(2)
_cell_angle_gamma                90
_cell_volume                     1581.64
loop_
_atom_site_label
_atom_site_type_symbol
_atom_site_fract_x
_atom_site_fract_y
_atom_site_fract_z
Pr1 Pr 0.37031(8) 0.86404(3) 1.02895(2)
P1 P 0.0896(4) 0.97697(17) 0.91339(10)
O1 O 0.3143(10) 1.0174(4) 0.9530(3)
O2 O 0.0384(11) 0.8769(4) 0.9426(3)
O3 O -0.1201(11) 1.0475(5) 0.9074(3)
O4 O -0.3019(12) 0.7570(5) 0.5718(3)
O5 O -0.4949(13) 0.6852(5) 0.6432(3)
O6 O 0.5829(12) 0.8114(5) 0.9374(3)
H1 H 0.6393 0.7531 0.9443
H2 H 0.4831 0.8109 0.9042
O7 O 0.1399(12) 0.7087(5) 1.0346(3)
H3 H 0.2051 0.6730 1.0649
H4 H -0.0038 0.7224 1.0413
N1 N 0.0103(13) 0.9187(5) 0.7853(3)
C1 C 0.1895(16) 0.9598(7) 0.8349(4)
H9 H 0.2431 1.0240 0.8204
H10 H 0.3273 0.9156 0.8390
C2 C 0.0914(19) 0.9307(8) 0.7218(4)
H11 H 0.2420 0.8956 0.7204
H12 H 0.1197 1.0010 0.7142
C3 C -0.0888(19) 0.8913(7) 0.6701(5)
H13 H -0.0263 0.8994 0.6294
H14 H -0.2357 0.9298 0.6693
C4 C -0.1445(17) 0.7805(7) 0.6803(4)
H15 H 0.0052 0.7432 0.6786
C5 C -0.219(2) 0.7682(9) 0.7461(4)
H16 H -0.2425 0.6978 0.7543
H17 H -0.3704 0.8021 0.7486
C6 C -0.030(2) 0.8108(7) 0.7972(5)
H18 H -0.0855 0.8023 0.8387
H19 H 0.1191 0.7745 0.7965
C7 C -0.3257(17) 0.7383(7) 0.6296(4)
Pr1B Pr 0.62969(8) 1.13596(3) 0.97105(2)
Pr1B_2 Pr -0.37031(8) 1.13596(3) 0.97105(2)
Pr1C Pr -0.62969(8) 0.63596(3) 0.52895(2)
O1B O 0.6857(10) 0.9826(4) 1.0470(3)
O3B O 0.1201(11) 0.9525(5) 1.0926(3)
O4C O 0.6981(12) 0.7430(5) 1.0718(3)
O5C O 0.5051(13) 0.8148(5) 1.1432(3)
O8 O 0.5216(14) 0.6124(5) 0.8718(3)
H5 H 0.6242 0.5704 0.8880
H6 H 0.3899 0.5828 0.8600
O9 O 0.3238(17) 0.5722(7) 0.7400(4)
H7 H 0.2249 0.5988 0.7116
H8 H 0.4629 0.5706 0.7272
loop_
_geom_bond_atom_site_label_1
_geom_bond_atom_site_label_2
_geom_bond_site_symmetry_1
_geom_bond_site_symmetry_2
Pr1 O1 1_555 1_555
P1 O1 1_555 1_555
O1 Pr1B 1_555 1_555
O2 Pr1 1_555 1_555
O3 P1 1_555 1_555
O4 C7 1_555 1_555
O5 C7 1_555 1_555
O6 Pr1 1_555 1_555
H1 O6 1_555 1_555
H2 O6 1_555 1_555
O7 Pr1 1_555 1_555
H3 O7 1_555 1_555
H4 O7 1_555 1_555
O8 H5 1_555 1_555
H6 O8 1_555 1_555
O9 H7 1_555 1_555
H8 O9 1_555 1_555
N1 C1 1_555 1_555
C1 P1 1_555 1_555
H9 C1 1_555 1_555
H10 C1 1_555 1_555
C2 N1 1_555 1_555
H11 C2 1_555 1_555
H12 C2 1_555 1_555
C3 C2 1_555 1_555
H13 C3 1_555 1_555
H14 C3 1_555 1_555
C4 C3 1_555 1_555
H15 C4 1_555 1_555
C5 C4 1_555 1_555
H16 C5 1_555 1_555
H17 C5 1_555 1_555
C6 N1 1_555 1_555
H18 C6 1_555 1_555
H19 C6 1_555 1_555
C7 C4 1_555 1_555
Pr1B O1B 1_555 1_555
Pr1B_2 O3 1_555 1_555
Pr1C O4 1_555 1_555
O1B Pr1 1_555 1_555
O3B Pr1 1_555 1_555
O4C Pr1 1_555 1_555
O5C Pr1 1_555 1_555
P1 O2 1_555 1_555
O5 Pr1C 1_555 1_555
C5 C6 1_555 1_555

#END
