
#######################################################################
#
#                 Cambridge Crystallographic Data Centre
#                                CCDC 
#
#######################################################################
#
# If this CIF has been generated from an entry in the Cambridge 
# Structural Database, then it will include bibliographic, chemical, 
# crystal, experimental, refinement or atomic coordinate data resulting 
# from the CCDC's data processing and validation procedures.
#
#######################################################################

data_GAMTEU
_symmetry_cell_setting           triclinic
_symmetry_space_group_name_H-M   'P -1'
_symmetry_Int_Tables_number      2
_space_group_name_Hall           '-P 1'
loop_
_symmetry_equiv_pos_site_id
_symmetry_equiv_pos_as_xyz
1 x,y,z
2 -x,-y,-z
_cell_length_a                   8.582(5)
_cell_length_b                   10.956(6)
_cell_length_c                   11.217(7)
_cell_angle_alpha                64.170(18)
_cell_angle_beta                 79.98(2)
_cell_angle_gamma                73.431(19)
_cell_volume                     908.369
loop_
_atom_site_label
_atom_site_type_symbol
_atom_site_fract_x
_atom_site_fract_y
_atom_site_fract_z
Ce1 Ce 0.25200(12) 0.49734(10) 0.99676(11)
O1 O 0.2459(11) 0.5525(9) 0.7506(9)
O2 O 0.0081(9) 0.5431(9) 0.8694(8)
O3 O -0.2216(14) 1.2565(10) 0.1159(12)
O4 O -0.1934(17) 1.0394(11) 0.1461(15)
O5 O 0.2174(10) 0.5844(10) 0.1775(9)
O6 O 0.4712(10) 0.5568(9) 0.0923(8)
O7 O 0.3840(12) 0.2833(9) 1.1961(10)
O8 O 0.2472(11) 0.2729(8) 0.9851(9)
C1 C 0.0663(14) 0.7085(13) 0.4982(12)
C2 C -0.0014(16) 0.8500(14) 0.4414(14)
H1 H -0.0930 0.8909 0.4841
C3 C 0.0670(17) 0.9340(15) 0.3184(15)
C4 C 0.1953(16) 0.8750(13) 0.2570(14)
H2 H 0.2367 0.9315 0.1726
C5 C 0.2689(14) 0.7316(13) 0.3155(14)
C6 C 0.2010(15) 0.6492(13) 0.4378(13)
H3 H 0.2483 0.5519 0.4790
C7 C -0.0062(17) 0.6193(15) 0.6316(13)
H4 H -0.1179 0.6718 0.6444
H5 H -0.0159 0.5340 0.6261
C8 C 0.0836(16) 0.5746(12) 0.7540(13)
C9 C -0.0159(19) 1.0918(13) 0.2543(15)
H6 H -0.0582 1.1251 0.3255
H7 H 0.0669 1.1433 0.1988
C10 C -0.158(2) 1.1257(18) 0.1677(17)
C11 C 0.4096(15) 0.6639(14) 0.2495(14)
H8 H 0.4822 0.5888 0.3181
H9 H 0.4723 0.7338 0.1909
C12 C 0.3598(16) 0.6021(13) 0.1674(14)
Ce1A Ce -0.25200(12) 0.50266(10) 1.00324(11)
Ce1A_2 Ce -0.25200(12) 1.50266(10) 0.00324(11)
Ce1_2 Ce 0.25200(12) 0.49734(10) -0.00324(11)
Ce1A_3 Ce 0.74800(12) 0.50266(10) 0.00324(11)
O2A O -0.0081(9) 0.4569(9) 1.1306(8)
O3A O 0.2216(14) 0.7435(10) 0.8841(12)
O5_2 O 0.2174(10) 0.5844(10) 1.1775(9)
O6_2 O 0.4712(10) 0.5568(9) 1.0923(8)
O6A O 0.5288(10) 0.4432(9) 0.9077(8)
O9 O 0.0951(12) 0.2377(11) 0.8157(12)
O10 O 0.4855(15) 0.9472(12) 0.8982(15)
O11 O 0.5210(17) 0.2875(18) 0.3946(14)
O12 O 0.378(3) 0.199(2) 0.621(3)
loop_
_geom_bond_atom_site_label_1
_geom_bond_atom_site_label_2
_geom_bond_site_symmetry_1
_geom_bond_site_symmetry_2
Ce1 O1 1_555 1_555
O1 C8 1_555 1_555
O2 Ce1 1_555 1_555
O3 C10 1_555 1_555
O4 C10 1_555 1_555
O5 C12 1_555 1_555
O6 C12 1_555 1_555
O7 Ce1 1_555 1_555
O8 Ce1 1_555 1_555
C1 C2 1_555 1_555
C2 H1 1_555 1_555
C3 C2 1_555 1_555
C4 C3 1_555 1_555
H2 C4 1_555 1_555
C5 C4 1_555 1_555
C6 C1 1_555 1_555
H3 C6 1_555 1_555
C7 C1 1_555 1_555
H4 C7 1_555 1_555
H5 C7 1_555 1_555
C8 O2 1_555 1_555
C9 C3 1_555 1_555
H6 C9 1_555 1_555
H7 C9 1_555 1_555
C10 C9 1_555 1_555
C11 C5 1_555 1_555
H8 C11 1_555 1_555
H9 C11 1_555 1_555
C12 C11 1_555 1_555
Ce1A O2 1_555 1_555
Ce1A_2 O3 1_555 1_555
Ce1_2 O5 1_555 1_555
Ce1A_3 O6 1_555 1_555
O2A Ce1 1_555 1_555
O3A Ce1 1_555 1_555
O5_2 Ce1 1_555 1_555
O6_2 Ce1 1_555 1_555
O6A Ce1 1_555 1_555
O6 Ce1_2 1_555 1_555
C5 C6 1_555 1_555
C7 C8 1_555 1_555
Ce1A O2A 1_555 1_555

#END
