
#######################################################################
#
#                 Cambridge Crystallographic Data Centre
#                                CCDC 
#
#######################################################################
#
# If this CIF has been generated from an entry in the Cambridge 
# Structural Database, then it will include bibliographic, chemical, 
# crystal, experimental, refinement or atomic coordinate data resulting 
# from the CCDC's data processing and validation procedures.
#
#######################################################################

data_GAMTAQ
_symmetry_cell_setting           triclinic
_symmetry_space_group_name_H-M   'P -1'
_symmetry_Int_Tables_number      2
_space_group_name_Hall           '-P 1'
loop_
_symmetry_equiv_pos_site_id
_symmetry_equiv_pos_as_xyz
1 x,y,z
2 -x,-y,-z
_cell_length_a                   8.618(5)
_cell_length_b                   11.028(6)
_cell_length_c                   11.126(6)
_cell_angle_alpha                64.06(5)
_cell_angle_beta                 80.57(5)
_cell_angle_gamma                73.21(5)
_cell_volume                     909.477
loop_
_atom_site_label
_atom_site_type_symbol
_atom_site_fract_x
_atom_site_fract_y
_atom_site_fract_z
La1 La 0.24652(3) 0.50634(3) 0.00142(3)
O1 O 0.2808(3) 0.4090(3) -0.1770(3)
O2 O 0.0319(3) 0.4378(3) -0.0913(2)
O3 O 0.4978(3) 0.4516(3) -0.8629(2)
O4 O 0.2688(3) 0.4421(3) -0.7436(2)
O5 O 0.7222(4) -0.2598(3) -0.1181(3)
O6 O 0.6834(5) -0.0458(3) -0.1361(4)
O7 O 0.2496(3) 0.7338(3) 0.0079(3)
O8 O 0.1044(4) 0.7188(3) -0.2024(3)
C1 C 0.2339(4) 0.2650(4) -0.3151(3)
C2 C 0.3011(4) 0.3503(4) -0.4352(3)
H1 H 0.2541 0.4476 -0.4741
C3 C 0.4361(4) 0.2930(4) -0.4974(3)
C4 C 0.5033(5) 0.1500(4) -0.4406(4)
H2 H 0.5948 0.1106 -0.4839
C5 C 0.4380(5) 0.0636(4) -0.3206(3)
C6 C 0.3044(5) 0.1232(4) -0.2598(4)
H3 H 0.2596 0.0655 -0.1780
C7 C 0.0917(5) 0.3285(5) -0.2437(4)
H4 H 0.0123 0.3996 -0.3104
H5 H 0.0374 0.2551 -0.1808
C8 C 0.1404(4) 0.3952(4) -0.1673(3)
C9 C 0.5110(5) 0.3831(4) -0.6262(3)
H6 H 0.6229 0.3316 -0.6384
H7 H 0.5179 0.4675 -0.6185
C10 C 0.4183(4) 0.4274(3) -0.7495(3)
C11 C 0.5155(5) -0.0899(4) -0.2579(4)
H8 H 0.5610 -0.1212 -0.3301
H9 H 0.4302 -0.1394 -0.2078
C12 C 0.6500(5) -0.1322(4) -0.1631(4)
La1A La -0.24652(3) 0.49366(3) -0.00142(3)
La1_2 La 0.24652(3) 0.50634(3) -0.99858(3)
La1A_2 La 0.75348(3) 0.49366(3) -1.00142(3)
La1A_3 La 0.75348(3) -0.50634(3) -0.00142(3)
O2A O -0.0319(3) 0.5622(3) 0.0913(2)
O3_2 O 0.4978(3) 0.4516(3) 0.1371(2)
O3A O 0.5022(3) 0.5484(3) -0.1371(2)
O4_2 O 0.2688(3) 0.4421(3) 0.2564(2)
O5A O 0.2778(4) 0.2598(3) 0.1181(3)
O9 O 0.0169(4) 0.0471(4) 0.1046(4)
O10 O 0.0321(6) 0.2928(6) 0.4010(4)
O11 O 0.4049(3) 0.7699(3) 0.1789(3)
O12 O 0.1281(6) 0.8073(6) 0.3606(4)
O13 O 0.1068(13) 0.9629(11) 0.5390(14)
loop_
_geom_bond_atom_site_label_1
_geom_bond_atom_site_label_2
_geom_bond_site_symmetry_1
_geom_bond_site_symmetry_2
La1 O1 1_555 1_555
O1 C8 1_555 1_555
O2 La1 1_555 1_555
O3 C10 1_555 1_555
O4 C10 1_555 1_555
O5 C12 1_555 1_555
O6 C12 1_555 1_555
O7 La1 1_555 1_555
O8 La1 1_555 1_555
C1 C2 1_555 1_555
C2 H1 1_555 1_555
C3 C2 1_555 1_555
C4 C3 1_555 1_555
H2 C4 1_555 1_555
C5 C4 1_555 1_555
C6 C1 1_555 1_555
H3 C6 1_555 1_555
C7 C1 1_555 1_555
H4 C7 1_555 1_555
H5 C7 1_555 1_555
C8 O2 1_555 1_555
C9 C3 1_555 1_555
H6 C9 1_555 1_555
H7 C9 1_555 1_555
C10 C9 1_555 1_555
C11 C5 1_555 1_555
H8 C11 1_555 1_555
H9 C11 1_555 1_555
C12 C11 1_555 1_555
La1A O2 1_555 1_555
La1_2 O3 1_555 1_555
La1A_2 O3 1_555 1_555
La1A_3 O5 1_555 1_555
O2A La1 1_555 1_555
O3_2 La1 1_555 1_555
O3A La1 1_555 1_555
O4_2 La1 1_555 1_555
O5A La1 1_555 1_555
O4 La1_2 1_555 1_555
C5 C6 1_555 1_555
C7 C8 1_555 1_555
La1A O2A 1_555 1_555

#END
