
#######################################################################
#
#                 Cambridge Crystallographic Data Centre
#                                CCDC 
#
#######################################################################
#
# If this CIF has been generated from an entry in the Cambridge 
# Structural Database, then it will include bibliographic, chemical, 
# crystal, experimental, refinement or atomic coordinate data resulting 
# from the CCDC's data processing and validation procedures.
#
#######################################################################

data_GAYFOD
_symmetry_cell_setting           tetragonal
_symmetry_space_group_name_H-M   'P 42/m m c'
_symmetry_Int_Tables_number      131
_space_group_name_Hall           '-P 4c 2'
loop_
_symmetry_equiv_pos_site_id
_symmetry_equiv_pos_as_xyz
1 x,y,z
2 -y,x,1/2+z
3 x,-y,-z
4 -x,-y,z
5 y,x,1/2-z
6 y,-x,1/2+z
7 -x,y,-z
8 -y,-x,1/2-z
9 -x,-y,-z
10 y,-x,1/2-z
11 -x,y,z
12 x,y,-z
13 -y,-x,1/2+z
14 -y,x,1/2-z
15 x,-y,z
16 y,x,1/2+z
_cell_length_a                   8.8312(19)
_cell_length_b                   8.8312(19)
_cell_length_c                   7.3007(23)
_cell_angle_alpha                90
_cell_angle_beta                 90
_cell_angle_gamma                90
_cell_volume                     569.382
loop_
_atom_site_label
_atom_site_type_symbol
_atom_site_fract_x
_atom_site_fract_y
_atom_site_fract_z
Zn1 Zn 0.00000 0.00000 0.25000
C1 C -0.439280 0.00000 0.00000
C2 C -0.348760 0.00000 0.150710
H1 H -0.382000 0.00000 0.274460
N1 N -0.202300 0.00000 0.093140
Zn1_2 Zn -1.00000 0.00000 0.25000
Zn1A Zn -1.00000 0.00000 -0.25000
Zn1A_2 Zn 0.00000 0.00000 -0.25000
C1C C -0.560720 0.00000 0.00000
C2C C -0.651240 0.00000 0.150710
C2F C -0.651240 0.00000 -0.150710
C2B C -0.348760 0.00000 -0.150710
H1C H -0.618000 0.00000 0.274460
H1F H -0.618000 0.00000 -0.274460
H1B H -0.382000 0.00000 -0.274460
N1C N -0.797700 0.00000 0.093140
N1F N -0.797700 0.00000 -0.093140
N1B N -0.202300 0.00000 -0.093140
N1C_2 N 0.202300 0.00000 0.093140
N1D N 0.00000 -0.202300 0.406860
N1G N 0.00000 0.202300 0.406860
loop_
_geom_bond_atom_site_label_1
_geom_bond_atom_site_label_2
_geom_bond_site_symmetry_1
_geom_bond_site_symmetry_2
Zn1 N1 1_555 1_555
C1 C2 1_555 1_555
C2 H1 1_555 1_555
N1 C2 1_555 1_555
Zn1_2 N1C 1_555 1_555
Zn1A N1F 1_555 1_555
Zn1A_2 N1B 1_555 1_555
C1C C1 1_555 1_555
C2C C1C 1_555 1_555
C2F C1C 1_555 1_555
C2B C1 1_555 1_555
H1C C2C 1_555 1_555
H1F C2F 1_555 1_555
H1B C2B 1_555 1_555
N1C C2C 1_555 1_555
N1F C2F 1_555 1_555
N1B N1 1_555 1_555
N1C_2 Zn1 1_555 1_555
N1D Zn1 1_555 1_555
N1G Zn1 1_555 1_555
C2B N1B 1_555 1_555
N1C N1F 1_555 1_555

#END
