
#######################################################################
#
#                 Cambridge Crystallographic Data Centre
#                                CCDC 
#
#######################################################################
#
# If this CIF has been generated from an entry in the Cambridge 
# Structural Database, then it will include bibliographic, chemical, 
# crystal, experimental, refinement or atomic coordinate data resulting 
# from the CCDC's data processing and validation procedures.
#
#######################################################################

data_GAZZIS01
_symmetry_cell_setting           monoclinic
_symmetry_space_group_name_H-M   'C 2/c'
_symmetry_Int_Tables_number      15
_space_group_name_Hall           '-C 2yn'
loop_
_symmetry_equiv_pos_site_id
_symmetry_equiv_pos_as_xyz
1 x,y,z
2 -x,y,1/2-z
3 1/2+x,1/2+y,z
4 1/2-x,1/2+y,1/2-z
5 -x,-y,-z
6 x,-y,1/2+z
7 1/2-x,1/2-y,-z
8 1/2+x,1/2-y,1/2+z
_cell_length_a                   19.812(6)
_cell_length_b                   28.409(8)
_cell_length_c                   26.330(8)
_cell_angle_alpha                90
_cell_angle_beta                 97.863(4)
_cell_angle_gamma                90
_cell_volume                     14680.2
loop_
_atom_site_label
_atom_site_type_symbol
_atom_site_fract_x
_atom_site_fract_y
_atom_site_fract_z
In1 In 0.885670(9) 0.253030(6) 0.115830(7)
O1 O -0.01585(9) 0.21414(7) 0.12039(7)
O2 O -0.06499(10) 0.23806(8) 0.04469(8)
O3 O 0.39092(13) 0.24219(8) -0.30375(9)
O4 O 0.27883(14) 0.23607(10) -0.32666(9)
O5 O 0.83231(10) 0.18074(7) 0.11692(8)
O6 O 0.78827(10) 0.23777(7) 0.06664(7)
O7 O 0.34838(11) -0.17374(7) 0.09846(10)
O8 O 0.45768(11) -0.18151(8) 0.11903(10)
C1 C 0.04721(14) 0.20602(10) 0.04941(11)
C2 C 0.04944(17) 0.21188(17) -0.00203(14)
H1 H 0.0102 0.2231 -0.0234
C3 C 0.10809(18) 0.20167(18) -0.02365(14)
H2 H 0.1084 0.2056 -0.0594
C4 C 0.16662(14) 0.18561(11) 0.00728(11)
C5 C 0.16271(17) 0.17943(14) 0.05819(13)
H3 H 0.2016 0.1680 0.0798
C6 C 0.10478(17) 0.18902(13) 0.07943(13)
H4 H 0.1042 0.1839 0.1150
C7 C 0.32221(17) 0.22641(12) -0.23854(11)
C8 C 0.37859(16) 0.22522(12) -0.20029(12)
H5 H 0.4224 0.2330 -0.2085
C9 C 0.37126(15) 0.21295(11) -0.15104(11)
H6 H 0.4104 0.2114 -0.1258
C10 C 0.30736(15) 0.20276(11) -0.13734(11)
C11 C 0.25124(17) 0.20593(13) -0.17510(12)
H7 H 0.2070 0.2001 -0.1664
C12 C 0.25845(17) 0.21731(13) -0.22466(12)
H8 H 0.2193 0.2190 -0.2498
C13 C 0.71743(14) 0.17152(10) 0.07446(12)
C14 C 0.70369(15) 0.13254(12) 0.10368(13)
H9 H 0.7377 0.1207 0.1294
C15 C 0.63993(15) 0.11105(11) 0.09499(13)
H10 H 0.6304 0.0848 0.1151
C16 C 0.58995(14) 0.12792(10) 0.05688(12)
C17 C 0.60599(14) 0.16533(10) 0.02660(12)
H11 H 0.5732 0.1761 -0.0006
C18 C 0.66910(14) 0.18720(10) 0.03547(11)
H12 H 0.6790 0.2130 0.0147
C19 C 0.41634(15) -0.10516(10) 0.09436(12)
C20 C 0.43486(15) -0.00990(10) 0.07064(12)
C21 C 0.3666(3) -0.0817(2) 0.0605(3)
H13 H 0.3264 -0.0976 0.0458
C22 C 0.3773(3) -0.0352(2) 0.0489(2)
H14 H 0.3442 -0.0197 0.0251
C23 C 0.4864(3) -0.0357(2) 0.1018(3)
H15 H 0.5278 -0.0205 0.1147
C24 C 0.4778(3) -0.0818(2) 0.1136(3)
H16 H 0.5128 -0.0982 0.1347
C25 C 0.29958(14) 0.18683(11) -0.08439(11)
C26 C 0.35165(15) 0.16091(11) -0.05632(11)
H17 H 0.3932 0.1562 -0.0699
C27 C 0.34393(14) 0.14166(10) -0.00842(11)
C28 C 0.28263(15) 0.14898(11) 0.01135(11)
H18 H 0.2763 0.1352 0.0432
C29 C 0.23062(15) 0.17634(11) -0.01531(11)
C30 C 0.24012(15) 0.19544(11) -0.06304(11)
H19 H 0.2055 0.2145 -0.0811
C31 C 0.44480(15) 0.03979(11) 0.05665(12)
C32 C 0.39010(14) 0.06775(11) 0.03504(12)
H20 H 0.3452 0.0553 0.0315
C33 C 0.40032(14) 0.11330(10) 0.01879(11)
C34 C 0.46512(14) 0.13224(10) 0.02563(11)
H21 H 0.4720 0.1634 0.0144
C35 C 0.52018(14) 0.10640(11) 0.04856(12)
C36 C 0.50975(15) 0.05986(11) 0.06318(12)
H22 H 0.5476 0.0416 0.0778
C37 C -0.01419(14) 0.21933(10) 0.07245(11)
C38 C 0.3298(2) 0.23555(12) -0.29369(13)
C39 C 0.78373(14) 0.19722(10) 0.08624(11)
C40 C 0.40752(16) -0.15582(11) 0.10491(12)
In1G In 0.385670(9) 0.246970(6) -0.384170(7)
In1_2 In -0.114330(9) 0.253030(6) 0.115830(7)
In1B In 0.385670(9) -0.246970(6) 0.115830(7)
O1_2 O 0.98415(9) 0.21414(7) 0.12039(7)
O2_2 O 0.93501(10) 0.23806(8) 0.04469(8)
O3G O 0.89092(13) 0.25781(8) 0.19625(9)
O7B O 0.84838(11) 0.32626(7) 0.09846(10)
O8B O 0.95768(11) 0.31849(8) 0.11903(10)
C37_2 C 0.98581(14) 0.21933(10) 0.07245(11)
C40B C 0.90752(16) 0.34418(11) 0.10491(12)
N1 N -0.30413(16) 0.31457(11) 0.09384(12)
H23 H -0.2927 0.3389 0.1164
H24 H -0.2684 0.2936 0.0968
C41 C -0.3172(2) 0.33305(15) 0.04064(15)
H25 H -0.2762 0.3489 0.0322
H26 H -0.3550 0.3555 0.0379
H27 H -0.3289 0.3069 0.0167
C42 C -0.3687(3) 0.2898(3) 0.1067(3)
H28 H -0.3601 0.2768 0.1415
H29 H -0.3811 0.2642 0.0822
H30 H -0.4062 0.3125 0.1047
C43? C -0.6381(4) -0.0724(2) 0.0947(3)
C44? C -0.6292(3) -0.0255(2) 0.0846(3)
C45? C -0.5128(3) -0.0400(2) 0.0754(3)
C46? C -0.5234(3) -0.0878(2) 0.0878(3)
H31? H -0.6811 -0.0832 0.1021
H32? H -0.6650 -0.0037 0.0868
H33? H -0.4686 -0.0295 0.0706
H34? H -0.4854 -0.1085 0.0916
loop_
_geom_bond_atom_site_label_1
_geom_bond_atom_site_label_2
_geom_bond_site_symmetry_1
_geom_bond_site_symmetry_2
In1 O5 1_555 1_555
O1 C37 1_555 1_555
O2 C37 1_555 1_555
O3 C38 1_555 1_555
O4 C38 1_555 1_555
O5 C39 1_555 1_555
O6 In1 1_555 1_555
O7 C40 1_555 1_555
O8 C40 1_555 1_555
C1 C2 1_555 1_555
C2 H1 1_555 1_555
C3 C2 1_555 1_555
H2 C3 1_555 1_555
C4 C3 1_555 1_555
C5 C4 1_555 1_555
H3 C5 1_555 1_555
C6 C1 1_555 1_555
H4 C6 1_555 1_555
C7 C8 1_555 1_555
C8 H5 1_555 1_555
C9 C8 1_555 1_555
H6 C9 1_555 1_555
C10 C9 1_555 1_555
C11 C10 1_555 1_555
H7 C11 1_555 1_555
C12 C7 1_555 1_555
H8 C12 1_555 1_555
C13 C14 1_555 1_555
C14 H9 1_555 1_555
C15 C14 1_555 1_555
H10 C15 1_555 1_555
C16 C15 1_555 1_555
C17 C16 1_555 1_555
H11 C17 1_555 1_555
C18 C13 1_555 1_555
H12 C18 1_555 1_555
C19 C21 1_555 1_555
C20 C22 1_555 1_555
C21 H13 1_555 1_555
C22 C21 1_555 1_555
H14 C22 1_555 1_555
C23 C20 1_555 1_555
H15 C23 1_555 1_555
C24 C19 1_555 1_555
H16 C24 1_555 1_555
C25 C10 1_555 1_555
C26 C25 1_555 1_555
H17 C26 1_555 1_555
C27 C26 1_555 1_555
C28 C27 1_555 1_555
H18 C28 1_555 1_555
C29 C4 1_555 1_555
C30 C25 1_555 1_555
H19 C30 1_555 1_555
C31 C20 1_555 1_555
C32 C31 1_555 1_555
H20 C32 1_555 1_555
C33 C27 1_555 1_555
C34 C33 1_555 1_555
H21 C34 1_555 1_555
C35 C16 1_555 1_555
C36 C31 1_555 1_555
H22 C36 1_555 1_555
C37 C1 1_555 1_555
C38 C7 1_555 1_555
C39 O6 1_555 1_555
C40 C19 1_555 1_555
N1 H23 1_555 1_555
H24 N1 1_555 1_555
C41 N1 1_555 1_555
H25 C41 1_555 1_555
H26 C41 1_555 1_555
H27 C41 1_555 1_555
C42 N1 1_555 1_555
H28 C42 1_555 1_555
H29 C42 1_555 1_555
H30 C42 1_555 1_555
In1G O3 1_555 1_555
In1_2 O1 1_555 1_555
In1B O7 1_555 1_555
O1_2 In1 1_555 1_555
O2_2 In1 1_555 1_555
O3G In1 1_555 1_555
O7B In1 1_555 1_555
O8B In1 1_555 1_555
C37_2 O1_2 1_555 1_555
C40B O7B 1_555 1_555
O2 In1_2 1_555 1_555
O8 In1B 1_555 1_555
C5 C6 1_555 1_555
C11 C12 1_555 1_555
C13 C39 1_555 1_555
C17 C18 1_555 1_555
C23 C24 1_555 1_555
C28 C29 1_555 1_555
C29 C30 1_555 1_555
C32 C33 1_555 1_555
C34 C35 1_555 1_555
C35 C36 1_555 1_555
O2_2 C37_2 1_555 1_555
O8B C40B 1_555 1_555

#END
