
#######################################################################
#
#                 Cambridge Crystallographic Data Centre
#                                CCDC 
#
#######################################################################
#
# If this CIF has been generated from an entry in the Cambridge 
# Structural Database, then it will include bibliographic, chemical, 
# crystal, experimental, refinement or atomic coordinate data resulting 
# from the CCDC's data processing and validation procedures.
#
#######################################################################

data_GAZZIS02
_symmetry_cell_setting           monoclinic
_symmetry_space_group_name_H-M   'C 2/c'
_symmetry_Int_Tables_number      15
_space_group_name_Hall           '-C 2yn'
loop_
_symmetry_equiv_pos_site_id
_symmetry_equiv_pos_as_xyz
1 x,y,z
2 -x,y,1/2-z
3 1/2+x,1/2+y,z
4 1/2-x,1/2+y,1/2-z
5 -x,-y,-z
6 x,-y,1/2+z
7 1/2-x,1/2-y,-z
8 1/2+x,1/2-y,1/2+z
_cell_length_a                   19.787(3)
_cell_length_b                   28.491(5)
_cell_length_c                   26.443(5)
_cell_angle_alpha                90
_cell_angle_beta                 97.234(2)
_cell_angle_gamma                90
_cell_volume                     14788.6
loop_
_atom_site_label
_atom_site_type_symbol
_atom_site_fract_x
_atom_site_fract_y
_atom_site_fract_z
In1 In 0.885750(10) 0.254800(7) 0.115440(7)
O1 O -0.01570(10) 0.21627(7) 0.11951(7)
O2 O -0.06489(11) 0.23867(8) 0.04460(8)
O3 O 0.39247(14) 0.23996(9) -0.30442(9)
O4 O 0.28073(15) 0.23348(11) -0.32677(9)
O5 O 0.83204(10) 0.18273(7) 0.11751(8)
O6 O 0.78810(10) 0.23926(7) 0.06714(8)
O7 O 0.34869(12) -0.17229(8) 0.09740(10)
O8 O 0.45809(12) -0.18007(8) 0.11659(11)
C1 C 0.04751(15) 0.20700(11) 0.04900(11)
C2 C 0.04905(18) 0.21278(18) -0.00260(14)
H1 H 0.0100 0.2241 -0.0236
C3 C 0.10859(19) 0.20182(18) -0.02406(14)
H2 H 0.1090 0.2047 -0.0598
C4 C 0.16724(16) 0.18666(11) 0.00665(11)
C5 C 0.16298(18) 0.18122(14) 0.05744(12)
H3 H 0.2018 0.1701 0.0789
C6 C 0.10516(17) 0.19116(13) 0.07851(12)
H4 H 0.1047 0.1871 0.1141
C7 C 0.32385(17) 0.22435(12) -0.23881(11)
C8 C 0.37970(17) 0.22357(13) -0.20177(12)
H5 H 0.4235 0.2309 -0.2108
C9 C 0.37281(15) 0.21235(12) -0.15189(11)
H6 H 0.4119 0.2115 -0.1271
C10 C 0.30898(15) 0.20235(11) -0.13774(11)
C11 C 0.25223(18) 0.20454(14) -0.17508(13)
H7 H 0.2080 0.1988 -0.1660
C12 C 0.26007(18) 0.21492(14) -0.22498(13)
H8 H 0.2213 0.2156 -0.2501
C13 C 0.71792(15) 0.17267(11) 0.07497(12)
C14 C 0.70282(17) 0.13498(12) 0.10443(14)
H9 H 0.7361 0.1238 0.1307
C15 C 0.63959(17) 0.11334(12) 0.09601(14)
H10 H 0.6298 0.0876 0.1167
C16 C 0.59045(15) 0.12906(11) 0.05763(12)
C17 C 0.60733(15) 0.16652(11) 0.02689(12)
H11 H 0.5751 0.1770 -0.0004
C18 C 0.67000(15) 0.18820(11) 0.03581(11)
H12 H 0.6803 0.2138 0.0151
C19 C 0.41693(16) -0.10360(11) 0.09306(12)
C20 C 0.43527(16) -0.00858(11) 0.07007(13)
C21 C 0.3623(3) -0.0717(2) 0.0920(3)
H13 H 0.3186 -0.0828 0.0977
C22 C 0.3715(4) -0.0240(2) 0.0827(3)
H14 H 0.3355 -0.0023 0.0847
C23 C 0.4876(3) -0.0390(2) 0.0731(3)
H15 H 0.5313 -0.0284 0.0667
C24 C 0.4783(3) -0.0858(2) 0.0853(3)
H16 H 0.5165 -0.1062 0.0885
C25 C 0.30035(15) 0.18695(11) -0.08516(11)
C26 C 0.35255(16) 0.16108(11) -0.05679(11)
H17 H 0.3942 0.1562 -0.0704
C27 C 0.34461(15) 0.14257(11) -0.00953(11)
C28 C 0.28321(15) 0.15016(11) 0.01020(12)
H18 H 0.2767 0.1367 0.0421
C29 C 0.23120(15) 0.17715(11) -0.01622(12)
C30 C 0.24098(15) 0.19519(12) -0.06367(11)
H19 H 0.2060 0.2137 -0.0819
C31 C 0.44531(16) 0.04137(11) 0.05627(12)
C32 C 0.39067(15) 0.06887(11) 0.03413(12)
H20 H 0.3459 0.0562 0.0302
C33 C 0.40114(15) 0.11430(11) 0.01781(11)
C34 C 0.46588(15) 0.13312(11) 0.02540(11)
H21 H 0.4729 0.1643 0.0144
C35 C 0.52107(15) 0.10749(11) 0.04874(12)
C36 C 0.51010(16) 0.06162(11) 0.06338(13)
H22 H 0.5476 0.0435 0.0786
C37 C -0.01464(15) 0.22088(11) 0.07193(11)
C38 C 0.3316(2) 0.23347(13) -0.29384(13)
C39 C 0.78316(15) 0.19868(11) 0.08707(11)
C40 C 0.40784(17) -0.15441(11) 0.10325(12)
In1G In 0.385750(10) 0.245200(7) -0.384560(7)
In1_2 In -0.114250(10) 0.254800(7) 0.115440(7)
In1B In 0.385750(10) -0.245200(7) 0.115440(7)
O1_2 O 0.98430(10) 0.21627(7) 0.11951(7)
O2_2 O 0.93511(11) 0.23867(8) 0.04460(8)
O3G O 0.89247(14) 0.26004(9) 0.19558(9)
O7B O 0.84869(12) 0.32771(8) 0.09740(10)
O8B O 0.95809(12) 0.31993(8) 0.11659(11)
C37_2 C 0.98536(15) 0.22088(11) 0.07193(11)
C40B C 0.90784(17) 0.34559(11) 0.10325(12)
N1 N -0.30412(18) 0.31605(12) 0.09323(13)
H23 H -0.2925 0.3406 0.1153
H24 H -0.2684 0.2951 0.0960
C41 C -0.3170(3) 0.33375(17) 0.04071(17)
H25 H -0.2762 0.3497 0.0319
H26 H -0.3552 0.3559 0.0379
H27 H -0.3283 0.3074 0.0173
C42 C -0.3670(4) 0.2921(3) 0.1072(3)
H28 H -0.3578 0.2794 0.1418
H29 H -0.3799 0.2665 0.0832
H30 H -0.4044 0.3149 0.1057
C43? C -0.6314(4) -0.0803(2) 0.0599(3)
C44? C -0.6206(4) -0.0343(2) 0.0477(3)
C45? C -0.5129(4) -0.0346(2) 0.0995(3)
C46? C -0.5219(4) -0.0813(2) 0.1126(3)
H31? H -0.6718 -0.0959 0.0457
H32? H -0.6524 -0.0194 0.0229
H33? H -0.4707 -0.0197 0.1107
H34? H -0.4876 -0.0977 0.1340
loop_
_geom_bond_atom_site_label_1
_geom_bond_atom_site_label_2
_geom_bond_site_symmetry_1
_geom_bond_site_symmetry_2
In1 O5 1_555 1_555
O1 C37 1_555 1_555
O2 C37 1_555 1_555
O3 C38 1_555 1_555
O4 C38 1_555 1_555
O5 C39 1_555 1_555
O6 In1 1_555 1_555
O7 C40 1_555 1_555
O8 C40 1_555 1_555
C1 C2 1_555 1_555
C2 H1 1_555 1_555
C3 C2 1_555 1_555
H2 C3 1_555 1_555
C4 C3 1_555 1_555
C5 C4 1_555 1_555
H3 C5 1_555 1_555
C6 C1 1_555 1_555
H4 C6 1_555 1_555
C7 C8 1_555 1_555
C8 H5 1_555 1_555
C9 C8 1_555 1_555
H6 C9 1_555 1_555
C10 C9 1_555 1_555
C11 C10 1_555 1_555
H7 C11 1_555 1_555
C12 C7 1_555 1_555
H8 C12 1_555 1_555
C13 C14 1_555 1_555
C14 H9 1_555 1_555
C15 C14 1_555 1_555
H10 C15 1_555 1_555
C16 C15 1_555 1_555
C17 C16 1_555 1_555
H11 C17 1_555 1_555
C18 C13 1_555 1_555
H12 C18 1_555 1_555
C19 C21 1_555 1_555
C20 C22 1_555 1_555
C21 H13 1_555 1_555
C22 C21 1_555 1_555
H14 C22 1_555 1_555
C23 C20 1_555 1_555
H15 C23 1_555 1_555
C24 C19 1_555 1_555
H16 C24 1_555 1_555
C25 C10 1_555 1_555
C26 C25 1_555 1_555
H17 C26 1_555 1_555
C27 C26 1_555 1_555
C28 C27 1_555 1_555
H18 C28 1_555 1_555
C29 C4 1_555 1_555
C30 C25 1_555 1_555
H19 C30 1_555 1_555
C31 C20 1_555 1_555
C32 C31 1_555 1_555
H20 C32 1_555 1_555
C33 C27 1_555 1_555
C34 C33 1_555 1_555
H21 C34 1_555 1_555
C35 C16 1_555 1_555
C36 C31 1_555 1_555
H22 C36 1_555 1_555
C37 C1 1_555 1_555
C38 C7 1_555 1_555
C39 O6 1_555 1_555
C40 C19 1_555 1_555
N1 H23 1_555 1_555
H24 N1 1_555 1_555
C41 N1 1_555 1_555
H25 C41 1_555 1_555
H26 C41 1_555 1_555
H27 C41 1_555 1_555
C42 N1 1_555 1_555
H28 C42 1_555 1_555
H29 C42 1_555 1_555
H30 C42 1_555 1_555
In1G O3 1_555 1_555
In1_2 O1 1_555 1_555
In1B O7 1_555 1_555
O1_2 In1 1_555 1_555
O2_2 In1 1_555 1_555
O3G In1 1_555 1_555
O7B In1 1_555 1_555
O8B In1 1_555 1_555
C37_2 O1_2 1_555 1_555
C40B O7B 1_555 1_555
O2 In1_2 1_555 1_555
O8 In1B 1_555 1_555
C5 C6 1_555 1_555
C11 C12 1_555 1_555
C13 C39 1_555 1_555
C17 C18 1_555 1_555
C23 C24 1_555 1_555
C28 C29 1_555 1_555
C29 C30 1_555 1_555
C32 C33 1_555 1_555
C34 C35 1_555 1_555
C35 C36 1_555 1_555
O2_2 C37_2 1_555 1_555
O8B C40B 1_555 1_555

#END
