
#######################################################################
#
#                 Cambridge Crystallographic Data Centre
#                                CCDC 
#
#######################################################################
#
# If this CIF has been generated from an entry in the Cambridge 
# Structural Database, then it will include bibliographic, chemical, 
# crystal, experimental, refinement or atomic coordinate data resulting 
# from the CCDC's data processing and validation procedures.
#
#######################################################################

data_GEDSUF
_symmetry_cell_setting           triclinic
_symmetry_space_group_name_H-M   'P -1'
_symmetry_Int_Tables_number      2
_space_group_name_Hall           '-P 1'
loop_
_symmetry_equiv_pos_site_id
_symmetry_equiv_pos_as_xyz
1 x,y,z
2 -x,-y,-z
_cell_length_a                   13.6824(13)
_cell_length_b                   15.0012(18)
_cell_length_c                   15.6490(14)
_cell_angle_alpha                95.751(9)
_cell_angle_beta                 113.163(9)
_cell_angle_gamma                90.493(9)
_cell_volume                     2934.16
loop_
_atom_site_label
_atom_site_type_symbol
_atom_site_fract_x
_atom_site_fract_y
_atom_site_fract_z
Nd1 Nd 0.49301(3) 0.47973(2) 0.86604(2)
Nd2 Nd 0.11033(3) 1.03149(2) 0.13106(2)
O1 O 0.4436(4) 0.5560(3) 0.7220(3)
O2 O 0.3063(4) 0.4935(3) 0.7390(3)
O3 O -0.3572(4) 0.5937(4) -0.0692(3)
O4 O -0.3890(4) 0.5613(4) 0.0525(4)
O5 O 0.0228(4) 0.8859(3) 0.1077(3)
O6 O -0.1173(4) 0.8575(3) -0.0292(3)
O7 O 0.4221(4) 0.6144(3) 0.9054(3)
O8 O 0.3932(5) 0.6282(4) 1.0366(3)
O9 O 0.0283(4) 1.0137(3) 0.2506(3)
O10 O 0.1965(4) 0.9816(3) 0.2892(3)
O11 O 0.2132(4) 0.9134(3) 1.0831(3)
O12 O 0.0751(3) 0.9475(3) 0.9611(3)
O13 O 0.4403(7) 0.3318(4) 0.7733(4)
O14 O 0.1309(4) 1.1773(4) 0.2254(4)
N1 N -0.0323(5) 0.6678(4) 0.3197(4)
N2 N 0.2035(5) 0.8272(4) 0.6995(4)
N3 N 0.6412(8) 0.4440(8) 0.7978(5)
N4 N 0.3165(5) 1.0884(4) 0.1877(4)
C1 C 0.3428(6) 0.5410(5) 0.6962(5)
C2 C 0.2690(6) 0.5831(5) 0.6136(5)
C3 C 0.1597(6) 0.5709(5) 0.5829(5)
H1 H 0.1310 0.5390 0.6162
C4 C 0.0928(6) 0.6058(5) 0.5032(5)
H2 H 0.0196 0.5963 0.4833
C5 C 0.1325(5) 0.6545(5) 0.4522(5)
C6 C 0.2421(6) 0.6694(6) 0.4846(6)
H3 H 0.2707 0.7034 0.4526
C7 C 0.3088(7) 0.6341(6) 0.5641(6)
H4 H 0.3820 0.6447 0.5850
C8 C 0.0653(6) 0.6877(5) 0.3634(6)
C9 C -0.0883(6) 0.6932(5) 0.2275(5)
C10 C -0.1842(5) 0.6471(5) 0.1753(5)
H5 H -0.2132 0.6076 0.2024
C11 C -0.2379(5) 0.6603(5) 0.0806(5)
C12 C -0.1977(5) 0.7223(5) 0.0413(5)
H6 H -0.2332 0.7302 -0.0215
C13 C -0.1040(5) 0.7730(4) 0.0959(5)
C14 C -0.0492(5) 0.7579(4) 0.1885(5)
H7 H 0.0138 0.7910 0.2249
C15 C -0.3341(5) 0.6030(5) 0.0180(5)
C16 C -0.0626(5) 0.8443(5) 0.0557(5)
C17 C 0.1108(6) 0.9821(5) 0.3033(5)
C18 C 0.1116(6) 0.9427(5) 0.3882(5)
C19 C 0.2066(6) 0.9263(6) 0.4600(6)
H8 H 0.2704 0.9367 0.4537
C20 C 0.2086(6) 0.8949(6) 0.5407(6)
H9 H 0.2733 0.8849 0.5882
C21 C 0.1139(6) 0.8783(5) 0.5507(5)
C22 C 0.0186(6) 0.8927(5) 0.4786(5)
H10 H -0.0455 0.8803 0.4838
C23 C 0.0182(6) 0.9255(5) 0.3987(5)
H11 H -0.0463 0.9360 0.3513
C24 C 0.1178(6) 0.8489(5) 0.6388(5)
C25 C 0.2134(5) 0.8065(5) 0.7892(5)
C26 C 0.2825(5) 0.7411(5) 0.8280(5)
H12 H 0.3139 0.7088 0.7926
C27 C 0.3058(5) 0.7229(4) 0.9190(5)
C28 C 0.2615(5) 0.7742(5) 0.9727(5)
H13 H 0.2776 0.7638 1.0343
C29 C 0.1932(5) 0.8412(4) 0.9344(5)
C30 C 0.1664(5) 0.8549(4) 0.8412(5)
H14 H 0.1168 0.8966 0.8141
C31 C 0.3790(6) 0.6495(5) 0.9573(5)
C32 C 0.1574(5) 0.9029(4) 0.9966(5)
C33 C 0.7032(12) 0.3804(14) 0.8123(8)
H15 H 0.6846 0.3359 0.8413
C34 C 0.7911(13) 0.362(2) 0.7949(14)
H16 H 0.8258 0.3087 0.8010
C35 C 0.8200(15) 0.4429(17) 0.7648(13)
H17 H 0.8844 0.4418 0.7578
C36 C 0.7686(13) 0.5195(13) 0.7453(11)
H18 H 0.7894 0.5681 0.7227
C37 C 0.6774(9) 0.5118(10) 0.7658(8)
H19 H 0.6357 0.5615 0.7557
C38 C 0.3942(6) 1.0309(5) 0.2141(5)
H20 H 0.3769 0.9712 0.2159
C39 C 0.5008(6) 1.0583(6) 0.2392(6)
H21 H 0.5537 1.0171 0.2561
C40 C 0.5262(6) 1.1474(6) 0.2386(6)
H22 H 0.5967 1.1675 0.2565
C41 C 0.4472(6) 1.2048(6) 0.2114(6)
H23 H 0.4629 1.2648 0.2092
C42 C 0.3441(6) 1.1750(5) 0.1872(5)
H24 H 0.2909 1.2158 0.1696
H40 H 0.111(6) 0.732(6) 0.343(6)
H41 H 0.060(7) 0.839(6) 0.653(6)
Nd1_2 Nd -0.50699(3) 0.47973(2) -0.13396(2)
Nd1A Nd -0.49301(3) 0.52027(2) 0.13396(2)
Nd1A_2 Nd 0.50699(3) 0.52027(2) 1.13396(2)
Nd2A Nd -0.11033(3) 0.96851(2) -0.13106(2)
Nd2_2 Nd 0.11033(3) 1.03149(2) 1.13106(2)
Nd2A_2 Nd -0.11033(3) 0.96851(2) 0.86894(2)
O3_2 O 0.6428(4) 0.5937(4) 0.9308(3)
O4_2 O 0.6110(4) 0.5613(4) 1.0525(4)
O4A O 0.3890(4) 0.4387(4) 0.9475(4)
O6A O 0.1173(4) 1.1425(3) 0.0292(3)
O8A O 0.6068(5) 0.3718(4) 0.9634(3)
O11_2 O 0.2132(4) 0.9134(3) 0.0831(3)
O12_2 O 0.0751(3) 0.9475(3) -0.0389(3)
O12A O -0.0751(3) 1.0525(3) 0.0389(3)
N5 N 0.3806(5) 0.1748(5) 0.8260(5)
C43 C 0.4545(7) 0.1591(8) 0.9085(7)
H25 H 0.5223 0.1860 0.9274
C44 C 0.4355(10) 0.1052(8) 0.9673(7)
H26 H 0.4892 0.0964 1.0244
C45 C 0.3385(10) 0.0657(6) 0.9408(8)
H27 H 0.3244 0.0292 0.9797
C46 C 0.2596(7) 0.0789(5) 0.8559(7)
H28 H 0.1916 0.0519 0.8357
C47 C 0.2861(6) 0.1334(5) 0.8032(6)
H29 H 0.2331 0.1425 0.7458
N6 N 0.0219(6) 1.3278(5) 1.1708(7)
C48 C 0.0248(8) 1.3440(7) 1.0902(8)
H30 H 0.0729 1.3141 1.0707
C49 C -0.0406(9) 1.4036(8) 1.0329(9)
H31 H -0.0373 1.4124 0.9761
C50 C -0.1088(10) 1.4481(8) 1.0626(12)
H32 H -0.1525 1.4891 1.0266
C51 C -0.1138(9) 1.4328(7) 1.1462(11)
H33 H -0.1600 1.4637 1.1675
C52 C -0.0482(8) 1.3701(6) 1.1983(9)
H34 H -0.0533 1.3575 1.2534
N7 N 0.1795(9) 0.2135(8) 0.4104(7)
C53 C 0.2458(11) 0.1653(9) 0.4768(9)
H35 H 0.2810 0.1166 0.4634
C54 C 0.2563(14) 0.1984(13) 0.5725(14)
H36 H 0.2859 0.1594 0.6175
C55 C 0.2284(10) 0.2782(11) 0.6032(11)
H37 H 0.2382 0.2970 0.6646
C56 C 0.1843(12) 0.3255(12) 0.5299(12)
H38 H 0.1664 0.3830 0.5445
C57 C 0.1620(14) 0.3020(13) 0.4377(12)
H39 H 0.1360 0.3431 0.3943
loop_
_geom_bond_atom_site_label_1
_geom_bond_atom_site_label_2
_geom_bond_site_symmetry_1
_geom_bond_site_symmetry_2
Nd1 O1 1_555 1_555
Nd2 O5 1_555 1_555
O1 C1 1_555 1_555
O2 Nd1 1_555 1_555
O3 C15 1_555 1_555
O4 C15 1_555 1_555
O5 C16 1_555 1_555
O6 C16 1_555 1_555
O7 Nd1 1_555 1_555
O8 C31 1_555 1_555
O9 Nd2 1_555 1_555
O10 Nd2 1_555 1_555
O11 C32 1_555 1_555
O12 C32 1_555 1_555
O13 Nd1 1_555 1_555
O14 Nd2 1_555 1_555
N1 C8 1_555 1_555
N2 C24 1_555 1_555
N3 Nd1 1_555 1_555
N4 Nd2 1_555 1_555
N5 C43 1_555 1_555
N6 C48 1_555 1_555
N7 C53 1_555 1_555
C1 O2 1_555 1_555
C2 C1 1_555 1_555
C3 C2 1_555 1_555
H1 C3 1_555 1_555
C4 C3 1_555 1_555
H2 C4 1_555 1_555
C5 C4 1_555 1_555
C6 C5 1_555 1_555
H3 C6 1_555 1_555
C7 C2 1_555 1_555
H4 C7 1_555 1_555
C8 C5 1_555 1_555
C9 N1 1_555 1_555
C10 C9 1_555 1_555
H5 C10 1_555 1_555
C11 C10 1_555 1_555
C12 C11 1_555 1_555
H6 C12 1_555 1_555
C13 C12 1_555 1_555
C14 C9 1_555 1_555
H7 C14 1_555 1_555
C15 C11 1_555 1_555
C16 C13 1_555 1_555
C17 O9 1_555 1_555
C18 C17 1_555 1_555
C19 C18 1_555 1_555
H8 C19 1_555 1_555
C20 C19 1_555 1_555
H9 C20 1_555 1_555
C21 C20 1_555 1_555
C22 C21 1_555 1_555
H10 C22 1_555 1_555
C23 C18 1_555 1_555
H11 C23 1_555 1_555
C24 C21 1_555 1_555
C25 N2 1_555 1_555
C26 C25 1_555 1_555
H12 C26 1_555 1_555
C27 C26 1_555 1_555
C28 C27 1_555 1_555
H13 C28 1_555 1_555
C29 C28 1_555 1_555
C30 C25 1_555 1_555
H14 C30 1_555 1_555
C31 O7 1_555 1_555
C32 C29 1_555 1_555
C33 N3 1_555 1_555
H15 C33 1_555 1_555
C34 C33 1_555 1_555
H16 C34 1_555 1_555
C35 C34 1_555 1_555
H17 C35 1_555 1_555
C36 C35 1_555 1_555
H18 C36 1_555 1_555
C37 N3 1_555 1_555
H19 C37 1_555 1_555
C38 N4 1_555 1_555
H20 C38 1_555 1_555
C39 C38 1_555 1_555
H21 C39 1_555 1_555
C40 C39 1_555 1_555
H22 C40 1_555 1_555
C41 C40 1_555 1_555
H23 C41 1_555 1_555
C42 N4 1_555 1_555
H24 C42 1_555 1_555
C43 H25 1_555 1_555
C44 C43 1_555 1_555
H26 C44 1_555 1_555
C45 C44 1_555 1_555
H27 C45 1_555 1_555
C46 C45 1_555 1_555
H28 C46 1_555 1_555
C47 N5 1_555 1_555
H29 C47 1_555 1_555
C48 H30 1_555 1_555
C49 C48 1_555 1_555
H31 C49 1_555 1_555
C50 C49 1_555 1_555
H32 C50 1_555 1_555
C51 C50 1_555 1_555
H33 C51 1_555 1_555
C52 N6 1_555 1_555
H34 C52 1_555 1_555
C53 H35 1_555 1_555
C54 C53 1_555 1_555
H36 C54 1_555 1_555
C55 C54 1_555 1_555
H37 C55 1_555 1_555
C56 C55 1_555 1_555
H38 C56 1_555 1_555
C57 N7 1_555 1_555
H39 C57 1_555 1_555
H40 C8 1_555 1_555
H41 C24 1_555 1_555
Nd1_2 O3 1_555 1_555
Nd1A O4 1_555 1_555
Nd1A_2 O8 1_555 1_555
Nd2A O6 1_555 1_555
Nd2_2 O11 1_555 1_555
Nd2A_2 O12 1_555 1_555
O3_2 Nd1 1_555 1_555
O4_2 Nd1 1_555 1_555
O4A Nd1 1_555 1_555
O6A Nd2 1_555 1_555
O8A Nd1 1_555 1_555
O11_2 Nd2 1_555 1_555
O12_2 Nd2 1_555 1_555
O12A Nd2 1_555 1_555
O4 Nd1_2 1_555 1_555
O10 C17 1_555 1_555
O12 Nd2_2 1_555 1_555
C6 C7 1_555 1_555
C13 C14 1_555 1_555
C22 C23 1_555 1_555
C27 C31 1_555 1_555
C29 C30 1_555 1_555
C36 C37 1_555 1_555
C41 C42 1_555 1_555
C46 C47 1_555 1_555
C51 C52 1_555 1_555
C56 C57 1_555 1_555
Nd1A_2 O4_2 1_555 1_555
Nd1A_2 O4A 1_555 1_555
Nd2A O12_2 1_555 1_555
Nd2A O12A 1_555 1_555

#END
