
#######################################################################
#
#                 Cambridge Crystallographic Data Centre
#                                CCDC 
#
#######################################################################
#
# If this CIF has been generated from an entry in the Cambridge 
# Structural Database, then it will include bibliographic, chemical, 
# crystal, experimental, refinement or atomic coordinate data resulting 
# from the CCDC's data processing and validation procedures.
#
#######################################################################

data_GELVID01
_symmetry_cell_setting           trigonal
_symmetry_space_group_name_H-M   'P 31 2 1'
_symmetry_Int_Tables_number      152
_space_group_name_Hall           'P 31 2"'
loop_
_symmetry_equiv_pos_site_id
_symmetry_equiv_pos_as_xyz
1 x,y,z
2 -y,x-y,1/3+z
3 -x+y,-x,2/3+z
4 x-y,-y,2/3-z
5 -x,-x+y,1/3-z
6 y,x,-z
_cell_length_a                   8.8079(3)
_cell_length_b                   8.8079(3)
_cell_length_c                   21.1663(6)
_cell_angle_alpha                90
_cell_angle_beta                 90
_cell_angle_gamma                120
_cell_volume                     1422.07
loop_
_atom_site_label
_atom_site_type_symbol
_atom_site_fract_x
_atom_site_fract_y
_atom_site_fract_z
Ni1 Ni 0.03473(3) 0.98102(3) 0.082815(12)
O1 O 0.0986(2) 1.0986(2) 0.00000
O2 O 0.7858(2) 1.8113(2) 0.05265(7)
O3 O 0.00000 0.8714(2) 0.1667
O4 O 0.3035(2) 1.1736(2) 0.09919(7)
O5 O -0.0393(2) 0.1520(2) 0.11524(7)
O6 O 0.1021(2) 0.7829(2) 0.06322(7)
C1 C 0.00000 0.7205(4) 0.1667
C2 C 0.00000 0.2366(4) 0.1667
C3 C 0.7330(4) 1.7330(4) 0.00000
C4 C 0.2492(4) 1.2492(4) 0.00000
C5 C 0.5646(4) 1.5646(4) 0.00000
C6 C 0.3624(3) 1.2977(3) 0.05180(10)
C7 C 0.0477(3) 0.5071(3) 0.11181(11)
H1 H 0.0779 0.4679 0.0746
C8 C 0.5183(3) 1.4553(3) 0.05286(11)
H2 H 0.5926 1.4888 0.0888
C9 C 0.0504(3) 0.6661(3) 0.11235(10)
C10 C 0.00000 0.4056(4) 0.1667
H7 H 0.364(3) 1.214(3) 0.1331(7)
H8 H 0.116(4) 0.746(3) 0.0276(6)
Ni1_2 Ni 1.03473(3) 1.98102(3) 0.082815(12)
Ni1E Ni -0.01898(3) 1.03473(3) -0.082815(12)
Ni1D Ni -0.03473(3) 0.94629(4) 0.250518(12)
Ni1_3 Ni 0.03473(3) -0.01898(3) 0.082815(12)
Ni1E_2 Ni 0.98102(3) 2.03473(3) -0.082815(12)
Ni1D_2 Ni -0.03473(3) -0.05371(4) 0.250518(12)
O1_2 O 1.0986(2) 2.0986(2) 0.00000
O2E O 0.8113(2) 1.7858(2) -0.05265(7)
O2_2 O -0.2142(2) 0.8113(2) 0.05265(7)
O3_2 O 1.00000 1.8714(2) 0.1667
O4E O 0.1736(2) 1.3035(2) -0.09919(7)
O4_2 O 1.3035(2) 2.1736(2) 0.09919(7)
O5D O 0.0393(2) 0.1913(3) 0.21809(7)
O5_2 O -0.0393(2) 1.1520(2) 0.11524(7)
O5_3 O 0.9607(2) 2.1520(2) 0.11524(7)
O6D O -0.1021(2) 0.6808(3) 0.27011(7)
O6_2 O 1.1021(2) 1.7829(2) 0.06322(7)
C6E C 0.2977(3) 1.3624(3) -0.05180(10)
C7D C -0.0477(3) 0.4594(4) 0.22152(11)
H1D H -0.0779 0.3900 0.2587
C8E C 0.4553(3) 1.5183(3) -0.05286(11)
H2E H 0.4888 1.5926 -0.0888
C9D C -0.0504(3) 0.6157(4) 0.22098(10)
H7E H 0.214(3) 1.364(3) -0.1331(7)
H7_2 H 1.364(3) 2.214(3) 0.1331(7)
H8D H -0.116(4) 0.630(5) 0.3057(6)
H8_2 H 1.116(4) 1.746(3) 0.0276(6)
O7 O 0.6816(3) 0.1339(3) 0.04806(8)
H5 H 0.776(3) 0.158(5) 0.0693(17)
H6 H 0.590(3) 0.045(4) 0.0658(17)
O8 O 0.5288(2) 0.8070(3) 0.12579(8)
H3 H 0.424(2) 0.718(4) 0.1187(18)
H4 H 0.602(4) 0.801(5) 0.0992(16)
loop_
_geom_bond_atom_site_label_1
_geom_bond_atom_site_label_2
_geom_bond_site_symmetry_1
_geom_bond_site_symmetry_2
Ni1 O1 1_555 1_555
O1 C4 1_555 1_555
O2 C3 1_555 1_555
O3 Ni1 1_555 1_555
O4 Ni1 1_555 1_555
O5 C2 1_555 1_555
O6 Ni1 1_555 1_555
C1 O3 1_555 1_555
C2 C10 1_555 1_555
C3 C5 1_555 1_555
C4 C6 1_555 1_555
C5 C8 1_555 1_555
C6 O4 1_555 1_555
O7 H5 1_555 1_555
O8 H3 1_555 1_555
C7 H1 1_555 1_555
C8 C6 1_555 1_555
H2 C8 1_555 1_555
C9 O6 1_555 1_555
C10 C7 1_555 1_555
H4 O8 1_555 1_555
H6 O7 1_555 1_555
H7 O4 1_555 1_555
H8 O6 1_555 1_555
Ni1_2 O2 1_555 1_555
Ni1E O1 1_555 1_555
Ni1D O3 1_555 1_555
Ni1_3 O5 1_555 1_555
Ni1E_2 O1_2 1_555 1_555
Ni1D_2 O5D 1_555 1_555
O1_2 Ni1_2 1_555 1_555
O2E C3 1_555 1_555
O2_2 Ni1 1_555 1_555
O3_2 Ni1_2 1_555 1_555
O4E Ni1E 1_555 1_555
O4_2 Ni1_2 1_555 1_555
O5D C2 1_555 1_555
O5_2 Ni1 1_555 1_555
O5_3 Ni1_2 1_555 1_555
O6D Ni1D 1_555 1_555
O6_2 Ni1_2 1_555 1_555
C6E C4 1_555 1_555
C7D C10 1_555 1_555
H1D C7D 1_555 1_555
C8E C5 1_555 1_555
H2E C8E 1_555 1_555
C9D C1 1_555 1_555
H7E O4E 1_555 1_555
H7_2 O4_2 1_555 1_555
H8D O6D 1_555 1_555
H8_2 O6_2 1_555 1_555
C1 C9 1_555 1_555
C7 C9 1_555 1_555
Ni1E_2 O2E 1_555 1_555
O4E C6E 1_555 1_555
O6D C9D 1_555 1_555
C6E C8E 1_555 1_555
C7D C9D 1_555 1_555

#END
