
#######################################################################
#
#                 Cambridge Crystallographic Data Centre
#                                CCDC 
#
#######################################################################
#
# If this CIF has been generated from an entry in the Cambridge 
# Structural Database, then it will include bibliographic, chemical, 
# crystal, experimental, refinement or atomic coordinate data resulting 
# from the CCDC's data processing and validation procedures.
#
#######################################################################

data_GELVEZ02
_symmetry_cell_setting           trigonal
_symmetry_space_group_name_H-M   'P 32 2 1'
_symmetry_Int_Tables_number      154
_space_group_name_Hall           'P 32 2"'
loop_
_symmetry_equiv_pos_site_id
_symmetry_equiv_pos_as_xyz
1 x,y,z
2 -y,x-y,2/3+z
3 -x+y,-x,1/3+z
4 y,x,-z
5 x-y,-y,1/3-z
6 -x,-x+y,2/3-z
_cell_length_a                   9.0553(2)
_cell_length_b                   9.0553(2)
_cell_length_c                   10.8872(3)
_cell_angle_alpha                90
_cell_angle_beta                 90
_cell_angle_gamma                120
_cell_volume                     773.13
loop_
_atom_site_label
_atom_site_type_symbol
_atom_site_fract_x
_atom_site_fract_y
_atom_site_fract_z
Mn1 Mn -0.03001(4) -0.0300 0.5000
O1 O -0.1227(2) 0.0000(2) 0.6666
O2 O -0.78270(18) 0.0450(2) 0.56949(13)
O3 O -0.3097(3) -0.0984(2) 0.46516(12)
H1 H -0.374(4) -0.127(3) 0.4030(14)
C1 C -0.7402(3) 0.0000(3) 0.6667
C2 C -0.2693(3) 0.0000(3) 0.6666
C3 C -0.3728(3) -0.0493(3) 0.56246(17)
C4 C -0.5233(3) -0.0461(3) 0.56065(18)
H2 H -0.5888 -0.0743 0.4895
C5 C -0.5755(3) 0.0000(3) 0.6667
Mn1B Mn 0.00001(4) 0.03001(4) 0.8333
Mn1_2 Mn -1.03001(4) -0.0300 0.5000
Mn1D Mn -1.00001(4) 0.0300 0.8333
O1A O 0.0000(2) -0.1227(3) 0.3333
O2D O -0.82770(27) -0.0450(2) 0.76384(13)
O2_2 O 0.21730(18) 0.0450(2) 0.56949(13)
O2C O 0.0450(2) 0.21730(18) 0.43051(13)
O3D O -0.2113(4) 0.0984(2) 0.86817(12)
O3C O -0.0984(2) -0.3097(3) 0.53484(12)
H1D H -0.247(5) 0.127(3) 0.9303(14)
H1C H -0.127(3) -0.374(4) 0.5970(14)
C3D C -0.3235(4) 0.0493(3) 0.77087(17)
C4D C -0.4772(4) 0.0461(3) 0.77268(18)
H2D H -0.5145 0.0743 0.8438
O4 O 0.1671(5) -0.3010(4) -0.08070(19)
H3 H 0.177(6) -0.218(4) -0.128(3)
H4 H 0.200(6) -0.362(5) -0.121(3)
loop_
_geom_bond_atom_site_label_1
_geom_bond_atom_site_label_2
_geom_bond_site_symmetry_1
_geom_bond_site_symmetry_2
Mn1 O1 1_555 1_555
O1 C2 1_555 1_555
O2 C1 1_555 1_555
O3 Mn1 1_555 1_555
H1 O3 1_555 1_555
C1 C5 1_555 1_555
C2 C3 1_555 1_555
C3 O3 1_555 1_555
C4 C3 1_555 1_555
H2 C4 1_555 1_555
C5 C4 1_555 1_555
O4 H3 1_555 1_555
H4 O4 1_555 1_555
Mn1B O1 1_555 1_555
Mn1_2 O2 1_555 1_555
Mn1D O2D 1_555 1_555
O1A Mn1 1_555 1_555
O2D C1 1_555 1_555
O2_2 Mn1 1_555 1_555
O2C Mn1 1_555 1_555
O3D Mn1B 1_555 1_555
O3C Mn1 1_555 1_555
H1D O3D 1_555 1_555
H1C O3C 1_555 1_555
C3D C2 1_555 1_555
C4D C5 1_555 1_555
H2D C4D 1_555 1_555
O3D C3D 1_555 1_555
C3D C4D 1_555 1_555

#END
