
#######################################################################
#
#                 Cambridge Crystallographic Data Centre
#                                CCDC 
#
#######################################################################
#
# If this CIF has been generated from an entry in the Cambridge 
# Structural Database, then it will include bibliographic, chemical, 
# crystal, experimental, refinement or atomic coordinate data resulting 
# from the CCDC's data processing and validation procedures.
#
#######################################################################

data_GELVID
_symmetry_cell_setting           trigonal
_symmetry_space_group_name_H-M   'P 31 2 1'
_symmetry_Int_Tables_number      152
_space_group_name_Hall           'P 31 2"'
loop_
_symmetry_equiv_pos_site_id
_symmetry_equiv_pos_as_xyz
1 x,y,z
2 -y,x-y,1/3+z
3 -x+y,-x,2/3+z
4 y,x,-z
5 x-y,-y,2/3-z
6 -x,-x+y,1/3-z
_cell_length_a                   8.824(2)
_cell_length_b                   8.824(2)
_cell_length_c                   10.644(2)
_cell_angle_alpha                90
_cell_angle_beta                 90
_cell_angle_gamma                120
_cell_volume                     717.739
loop_
_atom_site_label
_atom_site_type_symbol
_atom_site_fract_x
_atom_site_fract_y
_atom_site_fract_z
Ni1 Ni 1.0000 0.95806(9) 0.1667
O1 O 0.8041(5) 0.6896(4) 0.2018(3)
H1 H 0.789(8) 0.653(7) 0.271(3)
O2 O 0.1710(4) 0.2031(4) 0.1031(2)
O3 O 0.8867(5) 0.8867(5) 0.0000
C1 C 0.7367(7) 0.7367(7) 0.0000
C2 C 0.5272(6) 0.4717(6) 0.1067(4)
H2 H 0.488(9) 0.392(8) 0.169(5)
C3 C 0.2526(8) 0.2526(8) 0.0000
C4 C 0.6852(6) 0.6278(6) 0.1056(4)
C5 C 0.4209(7) 0.4209(7) 0.0000
Ni1_2 Ni 0.0000 -0.04194(9) 0.1667
Ni1B Ni 0.95806(9) 1.0000 -0.1666
Ni1B_2 Ni -0.04194(9) 0.0000 -0.1666
O1C O 0.6896(4) 0.8041(5) -0.2018(3)
O1E O 1.1959(5) 0.8855(6) 0.1315(3)
H1C H 0.653(7) 0.789(8) -0.271(3)
H1E H 1.211(8) 0.864(11) 0.062(3)
O2C O 0.2031(4) 0.1710(4) -0.1031(2)
O2_2 O 1.1710(4) 1.2031(4) 0.1031(2)
O2E O 0.8290(4) 1.0321(6) 0.2302(2)
O3A O 1.1133(5) 1.0000(7) 0.3333
C2C C 0.4717(6) 0.5272(6) -0.1067(4)
H2C H 0.392(8) 0.488(9) -0.169(5)
C4C C 0.6278(6) 0.6852(6) -0.1056(4)
O4 O 0.8306(9) 0.2967(8) 0.0854(4)
H3 H 0.76(2) 0.191(8) 0.106(17)
H4 H 0.85(2) 0.378(17) 0.138(15)
loop_
_geom_bond_atom_site_label_1
_geom_bond_atom_site_label_2
_geom_bond_site_symmetry_1
_geom_bond_site_symmetry_2
Ni1 O1 1_555 1_555
O1 H1 1_555 1_555
O2 C3 1_555 1_555
O3 Ni1 1_555 1_555
C1 O3 1_555 1_555
C2 H2 1_555 1_555
C3 C5 1_555 1_555
C4 O1 1_555 1_555
C5 C2 1_555 1_555
O4 H3 1_555 1_555
H4 O4 1_555 1_555
Ni1_2 O2 1_555 1_555
Ni1B O3 1_555 1_555
Ni1B_2 O2C 1_555 1_555
O1C Ni1B 1_555 1_555
O1E Ni1 1_555 1_555
H1C O1C 1_555 1_555
H1E O1E 1_555 1_555
O2C C3 1_555 1_555
O2_2 Ni1 1_555 1_555
O2E Ni1 1_555 1_555
O3A Ni1 1_555 1_555
C2C C5 1_555 1_555
H2C C2C 1_555 1_555
C4C C1 1_555 1_555
C1 C4 1_555 1_555
C2 C4 1_555 1_555
O1C C4C 1_555 1_555
C2C C4C 1_555 1_555

#END
