
#######################################################################
#
#                 Cambridge Crystallographic Data Centre
#                                CCDC 
#
#######################################################################
#
# If this CIF has been generated from an entry in the Cambridge 
# Structural Database, then it will include bibliographic, chemical, 
# crystal, experimental, refinement or atomic coordinate data resulting 
# from the CCDC's data processing and validation procedures.
#
#######################################################################

data_GEVXIQ
_symmetry_cell_setting           triclinic
_symmetry_space_group_name_H-M   'P -1'
_symmetry_Int_Tables_number      2
_space_group_name_Hall           '-P 1'
loop_
_symmetry_equiv_pos_site_id
_symmetry_equiv_pos_as_xyz
1 x,y,z
2 -x,-y,-z
_cell_length_a                   10.0662(6)
_cell_length_b                   11.4492(6)
_cell_length_c                   12.7746(7)
_cell_angle_alpha                108.730(4)
_cell_angle_beta                 96.948(5)
_cell_angle_gamma                96.802(5)
_cell_volume                     1364.56
loop_
_atom_site_label
_atom_site_type_symbol
_atom_site_fract_x
_atom_site_fract_y
_atom_site_fract_z
Gd1 Gd 0.068141(19) 0.076336(17) 0.383948(16)
Gd2 Gd -0.548364(19) 0.598164(17) 0.758218(16)
C1 C -0.0650(4) 0.1780(4) 0.6241(3)
C2 C -0.0483(4) 0.3140(3) 0.6365(3)
C3 C 0.0684(4) 0.3846(3) 0.6251(3)
C4 C 0.1978(4) 0.3304(4) 0.6065(3)
C5 C 0.0659(4) 0.5090(4) 0.6335(3)
C6 C -0.0485(4) 0.5639(3) 0.6547(3)
C7 C -0.0526(4) 0.6937(4) 0.6520(3)
C8 C -0.1618(4) 0.4943(4) 0.6722(3)
C9 C -0.2880(4) 0.5443(3) 0.7036(3)
C10 C -0.1605(4) 0.3709(4) 0.6642(3)
C11 C -0.7708(4) 0.4628(4) 0.8840(3)
C12 C -0.8860(4) 0.4831(4) 0.9480(3)
C13 C -0.8986(4) 0.6022(4) 1.0187(3)
C14 C -0.7893(4) 0.7148(4) 1.0456(3)
C15 C -0.9879(4) 0.3830(4) 0.9310(3)
O1 O -0.0755(3) 0.0949(2) 0.5266(2)
O2 O -0.0780(3) 0.1463(2) 0.7071(2)
O3 O 0.1855(3) 0.2121(2) 0.5647(2)
O4 O 0.3088(3) 0.4031(2) 0.6325(2)
O5 O 0.0552(3) 0.7629(2) 0.6525(2)
O6 O -0.1652(3) 0.7304(3) 0.6452(2)
O7 O -0.2886(3) 0.6119(3) 0.8025(2)
O8 O -0.3956(3) 0.5072(3) 0.6304(2)
O9 O -0.7187(3) 0.5540(3) 0.8593(2)
O10 O -0.7349(3) 0.3567(3) 0.8555(3)
O11 O -0.8227(3) 0.8063(3) 1.0200(3)
O12 O -0.6737(3) 0.7117(2) 1.0940(2)
O13 O -0.1647(3) -0.0350(3) 0.3083(3)
O14 O 0.0735(4) 0.0240(4) 0.1869(3)
O15 O 0.2978(3) 0.0581(3) 0.3947(3)
O16 O -0.6358(3) 0.6223(4) 0.5851(3)
O17 O -0.7030(3) 0.7593(3) 0.7924(3)
O18 O -0.4268(4) 0.7925(3) 0.7510(4)
O19 O -0.4879(4) 0.7249(3) 0.9504(3)
O20 O -0.4885(4) 0.4271(3) 0.8153(3)
H1 H 0.139(4) 0.554(4) 0.625(3)
H2 H -0.238(4) 0.324(4) 0.681(3)
H3 H -0.980(4) 0.307(4) 0.890(3)
H4 H -0.180(6) -0.058(5) 0.250(5)
H5 H -0.188(5) -0.095(5) 0.340(4)
H6 H 0.062(5) 0.064(5) 0.156(4)
H7 H 0.096(5) -0.033(5) 0.152(5)
H8 H 0.344(6) 0.012(6) 0.356(5)
H9 H 0.339(5) 0.088(5) 0.443(4)
H10 H -0.626(6) 0.582(5) 0.531(5)
H11 H -0.642(5) 0.679(5) 0.584(4)
H12 H -0.735(7) 0.766(6) 0.847(6)
H13 H -0.753(6) 0.760(5) 0.749(5)
H14 H -0.370(7) 0.795(6) 0.727(6)
H15 H -0.402(6) 0.848(5) 0.802(5)
H16 H -0.421(6) 0.755(5) 0.978(4)
H17 H -0.537(5) 0.724(4) 0.987(4)
H18 H -0.427(6) 0.413(5) 0.848(4)
H19 H -0.543(5) 0.395(4) 0.822(4)
C11A C -1.2292(4) 0.5372(4) 1.1160(3)
C12A C -1.1140(4) 0.5169(4) 1.0520(3)
C13A C -1.1014(4) 0.3978(4) 0.9813(3)
C14A C -1.2107(4) 0.2852(4) 0.9544(3)
C15A C -1.0121(4) 0.6170(4) 1.0690(3)
O9A O -1.2813(3) 0.4460(3) 1.1407(2)
O10A O -1.2651(3) 0.6433(3) 1.1445(3)
O11A O -1.1773(3) 0.1937(3) 0.9800(3)
O12A O -1.3263(3) 0.2883(2) 0.9060(2)
H3A H -1.020(4) 0.693(4) 1.110(3)
Gd1A Gd -2.068141(19) 0.923664(17) 1.616052(16)
Gd2A Gd -1.451636(19) 0.401836(17) 1.241782(16)
C1A C -1.9350(4) 0.8220(4) 1.3759(3)
C2A C -1.9517(4) 0.6860(3) 1.3635(3)
C3A C -2.0684(4) 0.6154(3) 1.3749(3)
C4A C -2.1978(4) 0.6696(4) 1.3935(3)
C5A C -2.0659(4) 0.4910(4) 1.3665(3)
C6A C -1.9515(4) 0.4361(3) 1.3453(3)
C7A C -1.9474(4) 0.3063(4) 1.3480(3)
C8A C -1.8382(4) 0.5057(4) 1.3278(3)
C9A C -1.7120(4) 0.4557(3) 1.2964(3)
C10A C -1.8395(4) 0.6291(4) 1.3358(3)
O1A O -1.9245(3) 0.9051(2) 1.4734(2)
O2A O -1.9220(3) 0.8537(2) 1.2929(2)
O3A O -2.1855(3) 0.7879(2) 1.4353(2)
O4A O -2.3088(3) 0.5969(2) 1.3675(2)
O5A O -2.0552(3) 0.2371(2) 1.3475(2)
O6A O -1.8348(3) 0.2696(3) 1.3548(2)
O7A O -1.7114(3) 0.3881(3) 1.1975(2)
O8A O -1.6044(3) 0.4928(3) 1.3696(2)
O13A O -1.8353(3) 1.0350(3) 1.6917(3)
O14A O -2.0735(4) 0.9760(4) 1.8131(3)
O15A O -2.2978(3) 0.9419(3) 1.6053(3)
O16A O -1.3642(3) 0.3777(4) 1.4149(3)
O17A O -1.2970(3) 0.2407(3) 1.2076(3)
O18A O -1.5732(4) 0.2075(3) 1.2490(4)
O19A O -1.5121(4) 0.2751(3) 1.0496(3)
O20A O -1.5115(4) 0.5729(3) 1.1847(3)
H1A H -2.139(4) 0.446(4) 1.375(3)
H2A H -1.762(4) 0.676(4) 1.319(3)
H4A H -1.820(6) 1.058(5) 1.750(5)
H5A H -1.812(5) 1.095(5) 1.660(4)
H6A H -2.062(5) 0.936(5) 1.844(4)
H7A H -2.096(5) 1.033(5) 1.848(5)
H8A H -2.344(6) 0.988(6) 1.644(5)
H9A H -2.339(5) 0.912(5) 1.557(4)
H10A H -1.374(6) 0.418(5) 1.469(5)
H11A H -1.358(5) 0.321(5) 1.416(4)
H12A H -1.265(7) 0.234(6) 1.153(6)
H13A H -1.247(6) 0.240(5) 1.251(5)
H14A H -1.630(7) 0.205(6) 1.273(6)
H15A H -1.598(6) 0.152(5) 1.198(5)
H16A H -1.579(6) 0.245(5) 1.022(4)
H17A H -1.463(5) 0.276(4) 1.013(4)
H18A H -1.573(6) 0.587(5) 1.152(4)
H19A H -1.457(5) 0.605(4) 1.178(4)
Gd1_2 Gd -1.931859(19) 0.076336(17) 1.383948(16)
Gd1_3 Gd -1.931859(19) 1.076336(17) 1.383948(16)
Gd1A_2 Gd -0.068141(19) -0.076336(17) 0.616052(16)
Gd1A_3 Gd -0.068141(19) 0.923664(17) 0.616052(16)
Gd2_2 Gd 0.451636(19) 0.598164(17) 0.758218(16)
Gd2A_2 Gd -2.451636(19) 0.401836(17) 1.241782(16)
O1_2 O -2.0755(3) 1.0949(2) 1.5266(2)
O1A_2 O 0.0755(3) -0.0949(2) 0.4734(2)
O2_2 O -2.0780(3) 1.1463(2) 1.7071(2)
O2A_2 O 0.0780(3) -0.1463(2) 0.2929(2)
O4_2 O -0.6912(3) 0.4031(2) 0.6325(2)
O4A_2 O -1.3088(3) 0.5969(2) 1.3675(2)
O5_2 O -1.9448(3) 0.7629(2) 1.6525(2)
O5A_2 O -0.0552(3) 0.2371(2) 0.3475(2)
O6_2 O -2.1652(3) 0.7304(3) 1.6452(2)
O6A_2 O 0.1652(3) 0.2696(3) 0.3548(2)
O21 O -0.2409(3) 0.8421(3) 0.0839(3)
O22 O 0.0776(3) 0.1926(3) 0.0811(2)
O23 O -0.3812(4) -0.0050(3) -0.0559(4)
O24 O -0.3472(3) 0.1404(3) 0.4147(3)
O25 O 0.4654(3) -0.0808(3) 0.2797(3)
O26 O 0.4865(3) 0.2079(3) 0.5747(3)
loop_
_geom_bond_atom_site_label_1
_geom_bond_atom_site_label_2
_geom_bond_site_symmetry_1
_geom_bond_site_symmetry_2
Gd1 O1 1_555 1_555
Gd2 O7 1_555 1_555
C1 C2 1_555 1_555
C2 C3 1_555 1_555
C3 C4 1_555 1_555
C4 O3 1_555 1_555
C5 C3 1_555 1_555
C6 C5 1_555 1_555
C7 C6 1_555 1_555
C8 C6 1_555 1_555
C9 C8 1_555 1_555
C10 C2 1_555 1_555
C11 C12 1_555 1_555
C12 C13 1_555 1_555
C13 C14 1_555 1_555
C14 O11 1_555 1_555
C15 C12 1_555 1_555
O1 C1 1_555 1_555
O2 C1 1_555 1_555
O3 Gd1 1_555 1_555
O4 C4 1_555 1_555
O5 C7 1_555 1_555
O6 C7 1_555 1_555
O7 C9 1_555 1_555
O8 Gd2 1_555 1_555
O9 Gd2 1_555 1_555
O10 C11 1_555 1_555
O12 C14 1_555 1_555
O13 Gd1 1_555 1_555
O14 Gd1 1_555 1_555
O15 Gd1 1_555 1_555
O16 Gd2 1_555 1_555
O17 Gd2 1_555 1_555
O18 Gd2 1_555 1_555
O19 Gd2 1_555 1_555
O20 Gd2 1_555 1_555
H1 C5 1_555 1_555
H2 C10 1_555 1_555
H3 C15 1_555 1_555
H4 O13 1_555 1_555
H5 O13 1_555 1_555
H6 O14 1_555 1_555
H7 O14 1_555 1_555
H8 O15 1_555 1_555
H9 O15 1_555 1_555
H10 O16 1_555 1_555
H11 O16 1_555 1_555
H12 O17 1_555 1_555
H13 O17 1_555 1_555
H14 O18 1_555 1_555
H15 O18 1_555 1_555
H16 O19 1_555 1_555
H17 O19 1_555 1_555
H18 O20 1_555 1_555
H19 O20 1_555 1_555
C11A C12A 1_555 1_555
C12A C13A 1_555 1_555
C13A C15 1_555 1_555
C14A C13A 1_555 1_555
C15A C13 1_555 1_555
O9A C11A 1_555 1_555
O10A C11A 1_555 1_555
O11A C14A 1_555 1_555
O12A C14A 1_555 1_555
H3A C15A 1_555 1_555
Gd1A O1A 1_555 1_555
Gd2A O9A 1_555 1_555
C1A C2A 1_555 1_555
C2A C3A 1_555 1_555
C3A C4A 1_555 1_555
C4A O3A 1_555 1_555
C5A C3A 1_555 1_555
C6A C5A 1_555 1_555
C7A C6A 1_555 1_555
C8A C6A 1_555 1_555
C9A C8A 1_555 1_555
C10A C2A 1_555 1_555
O1A C1A 1_555 1_555
O2A C1A 1_555 1_555
O3A Gd1A 1_555 1_555
O4A C4A 1_555 1_555
O5A C7A 1_555 1_555
O6A C7A 1_555 1_555
O7A Gd2A 1_555 1_555
O8A Gd2A 1_555 1_555
O13A Gd1A 1_555 1_555
O14A Gd1A 1_555 1_555
O15A Gd1A 1_555 1_555
O16A Gd2A 1_555 1_555
O17A Gd2A 1_555 1_555
O18A Gd2A 1_555 1_555
O19A Gd2A 1_555 1_555
O20A Gd2A 1_555 1_555
H1A C5A 1_555 1_555
H2A C10A 1_555 1_555
H4A O13A 1_555 1_555
H5A O13A 1_555 1_555
H6A O14A 1_555 1_555
H7A O14A 1_555 1_555
H8A O15A 1_555 1_555
H9A O15A 1_555 1_555
H10A O16A 1_555 1_555
H11A O16A 1_555 1_555
H12A O17A 1_555 1_555
H13A O17A 1_555 1_555
H14A O18A 1_555 1_555
H15A O18A 1_555 1_555
H16A O19A 1_555 1_555
H17A O19A 1_555 1_555
H18A O20A 1_555 1_555
H19A O20A 1_555 1_555
Gd1_2 O5A 1_555 1_555
Gd1_3 O1A 1_555 1_555
Gd1A_2 O1 1_555 1_555
Gd1A_3 O5 1_555 1_555
Gd2_2 O4 1_555 1_555
Gd2A_2 O4A 1_555 1_555
O1_2 Gd1A 1_555 1_555
O1A_2 Gd1 1_555 1_555
O2_2 Gd1A 1_555 1_555
O2A_2 Gd1 1_555 1_555
O4_2 Gd2 1_555 1_555
O4A_2 Gd2A 1_555 1_555
O5_2 Gd1A 1_555 1_555
O5A_2 Gd1 1_555 1_555
O6_2 Gd1A 1_555 1_555
O6A_2 Gd1 1_555 1_555
C8 C10 1_555 1_555
C9 O8 1_555 1_555
C11 O9 1_555 1_555
O2 Gd1A_2 1_555 1_555
O6 Gd1A_3 1_555 1_555
C12A C15A 1_555 1_555
C8A C10A 1_555 1_555
C9A O7A 1_555 1_555
C9A O8A 1_555 1_555
O2A Gd1_3 1_555 1_555
O6A Gd1_2 1_555 1_555
Gd1_3 O1_2 1_555 1_555
Gd1A_2 O1A_2 1_555 1_555

#END
