
#######################################################################
#
#                 Cambridge Crystallographic Data Centre
#                                CCDC 
#
#######################################################################
#
# If this CIF has been generated from an entry in the Cambridge 
# Structural Database, then it will include bibliographic, chemical, 
# crystal, experimental, refinement or atomic coordinate data resulting 
# from the CCDC's data processing and validation procedures.
#
#######################################################################

data_GIKMOD08
_symmetry_cell_setting           monoclinic
_symmetry_space_group_name_H-M   'P 21/n'
_symmetry_Int_Tables_number      14
_space_group_name_Hall           '-P 2yn'
loop_
_symmetry_equiv_pos_site_id
_symmetry_equiv_pos_as_xyz
1 x,y,z
2 1/2-x,1/2+y,1/2-z
3 -x,-y,-z
4 1/2+x,1/2-y,1/2+z
_cell_length_a                   7.3378(10)
_cell_length_b                   18.201(3)
_cell_length_c                   10.1447(14)
_cell_angle_alpha                90
_cell_angle_beta                 94.393(2)
_cell_angle_gamma                90
_cell_volume                     1350.9
loop_
_atom_site_label
_atom_site_type_symbol
_atom_site_fract_x
_atom_site_fract_y
_atom_site_fract_z
Cu1 Cu 0.13348(5) 0.093992(19) 0.78213(3)
Cu2 Cu -0.04737(5) 0.068433(18) 1.06671(3)
S1 S 0.11687(10) 0.43423(4) 1.30830(7)
O1 O 0.0484(4) 0.16793(12) 1.0847(2)
O2 O 0.1292(3) 0.03527(11) 0.9437(2)
O3 O 0.3403(4) 0.51181(13) 0.8366(2)
O4 O 0.1163(4) 0.18594(12) 0.8743(2)
O5 O 0.1173(5) 0.51287(17) 1.2971(3)
O6 O 0.3068(4) 0.41021(13) 0.7109(2)
O7 O 0.2755(4) 0.40485(17) 1.3845(3)
O8 O -0.0495(4) 0.40431(17) 1.3573(3)
C1 C 0.1345(4) 0.39542(16) 1.1499(3)
C2 C 0.2257(4) 0.40387(15) 0.9281(3)
C3 C 0.1924(5) 0.32881(16) 0.9129(3)
H1 H 0.2135 0.3062 0.8332
C4 C 0.1287(4) 0.28712(16) 1.0141(3)
C5 C 0.0945(4) 0.20696(15) 0.9902(3)
C6 C 0.0976(4) 0.32044(16) 1.1338(3)
H2 H 0.0530 0.2933 1.2020
C7 C 0.1956(5) 0.43748(16) 1.0488(3)
H3 H 0.2165 0.4875 1.0607
C8 C 0.2958(4) 0.44574(17) 0.8165(3)
O9 O 0.1145(4) 0.15385(15) 0.6217(2)
Cu1B Cu -0.13348(5) -0.093992(19) 1.21787(3)
Cu1A Cu 0.36652(5) -0.406008(19) 0.71787(3)
Cu1A_2 Cu 0.36652(5) 0.593992(19) 0.71787(3)
Cu1C Cu -0.36652(5) -0.593992(19) 1.28213(3)
Cu1C_2 Cu -0.36652(5) 0.406008(19) 1.28213(3)
Cu2B Cu 0.04737(5) -0.068433(18) 0.93329(3)
Cu2A Cu -0.45263(5) -0.431567(18) 0.43329(3)
Cu2A_2 Cu -0.45263(5) -0.431567(18) 1.43329(3)
Cu2C Cu 0.45263(5) 0.431567(18) 0.56671(3)
Cu2C_2 Cu 0.45263(5) 0.431567(18) 1.56671(3)
S1B S -0.11687(10) -0.43423(4) 0.69170(7)
O1B O -0.0484(4) -0.16793(12) 0.9153(2)
O2B O -0.1292(3) -0.03527(11) 1.0563(2)
O3B O -0.3403(4) -0.51181(13) 1.1634(2)
O3A O 0.1597(4) 0.01181(13) 0.6634(2)
O3C O -0.1597(4) -0.01181(13) 1.3366(2)
O4B O -0.1163(4) -0.18594(12) 1.1257(2)
O5B O -0.1173(5) -0.51287(17) 0.7029(3)
O6B O -0.3068(4) -0.41021(13) 1.2891(2)
O6A O 0.1932(4) -0.08979(13) 0.7891(2)
O6C O -0.1932(4) 0.08979(13) 1.2109(2)
O7B O -0.2755(4) -0.40485(17) 0.6155(3)
O7A O 0.2245(4) -0.09515(17) 1.1155(3)
O7C O -0.2245(4) 0.09515(17) 0.8845(3)
O8B O 0.0495(4) -0.40431(17) 0.6427(3)
O8A O -0.4505(4) -0.09569(17) 1.1427(3)
O8C O 0.4505(4) 0.09569(17) 0.8573(3)
C1B C -0.1345(4) -0.39542(16) 0.8501(3)
C2B C -0.2257(4) -0.40387(15) 1.0719(3)
C3B C -0.1924(5) -0.32881(16) 1.0871(3)
H1B H -0.2135 -0.3062 1.1668
C4B C -0.1287(4) -0.28712(16) 0.9859(3)
C5B C -0.0945(4) -0.20696(15) 1.0098(3)
C6B C -0.0976(4) -0.32044(16) 0.8662(3)
H2B H -0.0530 -0.2933 0.7980
C7B C -0.1956(5) -0.43748(16) 0.9512(3)
H3B H -0.2165 -0.4875 0.9393
C8B C -0.2958(4) -0.44574(17) 1.1835(3)
O9B O -0.1145(4) -0.15385(15) 1.3783(2)
O10 O 0.0375(6) 0.30058(19) 0.5864(4)
O11 O 0.2126(6) 0.1306(3) 0.3622(4)
loop_
_geom_bond_atom_site_label_1
_geom_bond_atom_site_label_2
_geom_bond_site_symmetry_1
_geom_bond_site_symmetry_2
Cu1 O2 1_555 1_555
Cu2 O1 1_555 1_555
S1 O5 1_555 1_555
O1 C5 1_555 1_555
O2 Cu2 1_555 1_555
O3 C8 1_555 1_555
O4 Cu1 1_555 1_555
O6 C8 1_555 1_555
O7 S1 1_555 1_555
O8 S1 1_555 1_555
C1 S1 1_555 1_555
C2 C3 1_555 1_555
C3 H1 1_555 1_555
C4 C3 1_555 1_555
C5 O4 1_555 1_555
C6 C1 1_555 1_555
H2 C6 1_555 1_555
C7 C1 1_555 1_555
H3 C7 1_555 1_555
C8 C2 1_555 1_555
O9 Cu1 1_555 1_555
Cu1B O2B 1_555 1_555
Cu1A O8B 1_555 1_555
Cu1A_2 O3 1_555 1_555
Cu1C O3B 1_555 1_555
Cu1C_2 O8 1_555 1_555
Cu2B O2 1_555 1_555
Cu2A O7B 1_555 1_555
Cu2A_2 O6B 1_555 1_555
Cu2C O6 1_555 1_555
Cu2C_2 O7 1_555 1_555
S1B O5B 1_555 1_555
O1B Cu2B 1_555 1_555
O2B Cu2 1_555 1_555
O3B C8B 1_555 1_555
O3A Cu1 1_555 1_555
O3C Cu1B 1_555 1_555
O4B Cu1B 1_555 1_555
O6B C8B 1_555 1_555
O6A Cu2B 1_555 1_555
O6C Cu2 1_555 1_555
O7B S1B 1_555 1_555
O7A Cu2B 1_555 1_555
O7C Cu2 1_555 1_555
O8B S1B 1_555 1_555
O8A Cu1B 1_555 1_555
O8C Cu1 1_555 1_555
C1B S1B 1_555 1_555
C2B C3B 1_555 1_555
C3B H1B 1_555 1_555
C4B C3B 1_555 1_555
C5B O1B 1_555 1_555
C6B C1B 1_555 1_555
H2B C6B 1_555 1_555
C7B C1B 1_555 1_555
H3B C7B 1_555 1_555
C8B C2B 1_555 1_555
O9B Cu1B 1_555 1_555
C2 C7 1_555 1_555
C4 C5 1_555 1_555
C4 C6 1_555 1_555
Cu2B O2B 1_555 1_555
O4B C5B 1_555 1_555
C2B C7B 1_555 1_555
C4B C5B 1_555 1_555
C4B C6B 1_555 1_555

#END
