
#######################################################################
#
#                 Cambridge Crystallographic Data Centre
#                                CCDC 
#
#######################################################################
#
# If this CIF has been generated from an entry in the Cambridge 
# Structural Database, then it will include bibliographic, chemical, 
# crystal, experimental, refinement or atomic coordinate data resulting 
# from the CCDC's data processing and validation procedures.
#
#######################################################################

data_GIKMOD12
_symmetry_cell_setting           monoclinic
_symmetry_space_group_name_H-M   'P 21/n'
_symmetry_Int_Tables_number      14
_space_group_name_Hall           '-P 2yn'
loop_
_symmetry_equiv_pos_site_id
_symmetry_equiv_pos_as_xyz
1 x,y,z
2 1/2-x,1/2+y,1/2-z
3 -x,-y,-z
4 1/2+x,1/2-y,1/2+z
_cell_length_a                   7.306(3)
_cell_length_b                   18.111(8)
_cell_length_c                   10.205(4)
_cell_angle_alpha                90
_cell_angle_beta                 94.248(7)
_cell_angle_gamma                90
_cell_volume                     1346.61
loop_
_atom_site_label
_atom_site_type_symbol
_atom_site_fract_x
_atom_site_fract_y
_atom_site_fract_z
Cu1 Cu 0.13542(10) 0.09472(3) 0.78411(6)
Cu2 Cu -0.03948(10) 0.06841(3) 1.07022(6)
S1 S 0.1239(2) 0.43491(7) 1.30958(13)
O1 O 0.0559(6) 0.16783(19) 1.0856(3)
O2 O 0.1303(5) 0.03442(18) 0.9417(3)
O3 O 0.3440(6) 0.5138(2) 0.8383(4)
O4 O 0.1225(6) 0.1865(2) 0.8757(4)
O5 O 0.1405(10) 0.5131(3) 1.2994(5)
O6 O 0.3222(7) 0.4108(2) 0.7176(4)
O7 O 0.2738(7) 0.4012(3) 1.3889(5)
O8 O -0.0484(6) 0.4085(3) 1.3529(5)
C1 C 0.1414(8) 0.3960(3) 1.1517(5)
C2 C 0.2340(8) 0.4049(3) 0.9309(5)
C3 C 0.2001(8) 0.3304(3) 0.9150(5)
H1 H 0.2206 0.3081 0.8353
C4 C 0.1361(8) 0.2880(3) 1.0153(5)
C5 C 0.1008(8) 0.2076(3) 0.9908(5)
C6 C 0.1067(8) 0.3208(3) 1.1347(5)
H2 H 0.0642 0.2930 1.2027
C7 C 0.2050(8) 0.4392(3) 1.0509(5)
H3 H 0.2275 0.4893 1.0632
C8 C 0.3058(8) 0.4470(3) 0.8200(5)
O9 O 0.1201(7) 0.1564(2) 0.6242(4)
Cu1B Cu -0.13542(10) -0.09472(3) 1.21589(6)
Cu1A Cu 0.36458(10) -0.40528(3) 0.71589(6)
Cu1A_2 Cu 0.36458(10) 0.59472(3) 0.71589(6)
Cu1C Cu -0.36458(10) -0.59472(3) 1.28411(6)
Cu1C_2 Cu -0.36458(10) 0.40528(3) 1.28411(6)
Cu2B Cu 0.03948(10) -0.06841(3) 0.92978(6)
Cu2A Cu -0.46052(10) -0.43159(3) 0.42978(6)
Cu2A_2 Cu -0.46052(10) -0.43159(3) 1.42978(6)
Cu2C Cu 0.46052(10) 0.43159(3) 0.57022(6)
Cu2C_2 Cu 0.46052(10) 0.43159(3) 1.57022(6)
S1B S -0.1239(2) -0.43491(7) 0.69042(13)
O1B O -0.0559(6) -0.16783(19) 0.9144(3)
O2B O -0.1303(5) -0.03442(18) 1.0583(3)
O3B O -0.3440(6) -0.5138(2) 1.1617(4)
O3A O 0.1560(6) 0.0138(2) 0.6617(4)
O3C O -0.1560(6) -0.0138(2) 1.3383(4)
O4B O -0.1225(6) -0.1865(2) 1.1243(4)
O5B O -0.1405(10) -0.5131(3) 0.7006(5)
O6B O -0.3222(7) -0.4108(2) 1.2824(4)
O6A O 0.1778(7) -0.0892(2) 0.7824(4)
O6C O -0.1778(7) 0.0892(2) 1.2176(4)
O7B O -0.2738(7) -0.4012(3) 0.6111(5)
O7A O 0.2262(7) -0.0988(3) 1.1111(5)
O7C O -0.2262(7) 0.0988(3) 0.8889(5)
O8B O 0.0484(6) -0.4085(3) 0.6471(5)
O8A O -0.4516(6) -0.0915(3) 1.1471(5)
O8C O 0.4516(6) 0.0915(3) 0.8529(5)
C1B C -0.1414(8) -0.3960(3) 0.8483(5)
C2B C -0.2340(8) -0.4049(3) 1.0691(5)
C3B C -0.2001(8) -0.3304(3) 1.0850(5)
H1B H -0.2206 -0.3081 1.1647
C4B C -0.1361(8) -0.2880(3) 0.9847(5)
C5B C -0.1008(8) -0.2076(3) 1.0092(5)
C6B C -0.1067(8) -0.3208(3) 0.8653(5)
H2B H -0.0642 -0.2930 0.7973
C7B C -0.2050(8) -0.4392(3) 0.9491(5)
H3B H -0.2275 -0.4893 0.9368
C8B C -0.3058(8) -0.4470(3) 1.1800(5)
O9B O -0.1201(7) -0.1564(2) 1.3758(4)
O10 O 0.0405(11) 0.3010(4) 0.5849(7)
O11 O 0.2119(19) 0.1365(10) 0.3708(11)
loop_
_geom_bond_atom_site_label_1
_geom_bond_atom_site_label_2
_geom_bond_site_symmetry_1
_geom_bond_site_symmetry_2
Cu1 O2 1_555 1_555
Cu2 O1 1_555 1_555
S1 O5 1_555 1_555
O1 C5 1_555 1_555
O2 Cu2 1_555 1_555
O3 C8 1_555 1_555
O4 Cu1 1_555 1_555
O6 C8 1_555 1_555
O7 S1 1_555 1_555
O8 S1 1_555 1_555
C1 S1 1_555 1_555
C2 C3 1_555 1_555
C3 H1 1_555 1_555
C4 C3 1_555 1_555
C5 O4 1_555 1_555
C6 C1 1_555 1_555
H2 C6 1_555 1_555
C7 C1 1_555 1_555
H3 C7 1_555 1_555
C8 C2 1_555 1_555
O9 Cu1 1_555 1_555
Cu1B O2B 1_555 1_555
Cu1A O8B 1_555 1_555
Cu1A_2 O3 1_555 1_555
Cu1C O3B 1_555 1_555
Cu1C_2 O8 1_555 1_555
Cu2B O2 1_555 1_555
Cu2A O7B 1_555 1_555
Cu2A_2 O6B 1_555 1_555
Cu2C O6 1_555 1_555
Cu2C_2 O7 1_555 1_555
S1B O5B 1_555 1_555
O1B Cu2B 1_555 1_555
O2B Cu2 1_555 1_555
O3B C8B 1_555 1_555
O3A Cu1 1_555 1_555
O3C Cu1B 1_555 1_555
O4B Cu1B 1_555 1_555
O6B C8B 1_555 1_555
O6A Cu2B 1_555 1_555
O6C Cu2 1_555 1_555
O7B S1B 1_555 1_555
O7A Cu2B 1_555 1_555
O7C Cu2 1_555 1_555
O8B S1B 1_555 1_555
O8A Cu1B 1_555 1_555
O8C Cu1 1_555 1_555
C1B S1B 1_555 1_555
C2B C3B 1_555 1_555
C3B H1B 1_555 1_555
C4B C3B 1_555 1_555
C5B O1B 1_555 1_555
C6B C1B 1_555 1_555
H2B C6B 1_555 1_555
C7B C1B 1_555 1_555
H3B C7B 1_555 1_555
C8B C2B 1_555 1_555
O9B Cu1B 1_555 1_555
C2 C7 1_555 1_555
C4 C5 1_555 1_555
C4 C6 1_555 1_555
Cu2B O2B 1_555 1_555
O4B C5B 1_555 1_555
C2B C7B 1_555 1_555
C4B C5B 1_555 1_555
C4B C6B 1_555 1_555

#END
