
#######################################################################
#
#                 Cambridge Crystallographic Data Centre
#                                CCDC 
#
#######################################################################
#
# If this CIF has been generated from an entry in the Cambridge 
# Structural Database, then it will include bibliographic, chemical, 
# crystal, experimental, refinement or atomic coordinate data resulting 
# from the CCDC's data processing and validation procedures.
#
#######################################################################

data_GIXJEE
_symmetry_cell_setting           rhombohedral
_symmetry_space_group_name_H-M   'R -3'
_symmetry_Int_Tables_number      148
_space_group_name_Hall           '-R 3'
loop_
_symmetry_equiv_pos_site_id
_symmetry_equiv_pos_as_xyz
1 x,y,z
2 -y,x-y,z
3 -x+y,-x,z
4 2/3+x,1/3+y,1/3+z
5 2/3-y,1/3+x-y,1/3+z
6 2/3-x+y,1/3-x,1/3+z
7 1/3+x,2/3+y,2/3+z
8 1/3-y,2/3+x-y,2/3+z
9 1/3-x+y,2/3-x,2/3+z
10 -x,-y,-z
11 y,-x+y,-z
12 x-y,x,-z
13 1/3-x,2/3-y,2/3-z
14 1/3+y,2/3-x+y,2/3-z
15 1/3+x-y,2/3+x,2/3-z
16 2/3-x,1/3-y,1/3-z
17 2/3+y,1/3-x+y,1/3-z
18 2/3+x-y,1/3+x,1/3-z
_cell_length_a                   53.8629(12)
_cell_length_b                   53.8629(12)
_cell_length_c                   14.0649(7)
_cell_angle_alpha                90
_cell_angle_beta                 90
_cell_angle_gamma                120
_cell_volume                     35338.4
loop_
_atom_site_label
_atom_site_type_symbol
_atom_site_fract_x
_atom_site_fract_y
_atom_site_fract_z
Co1 Co 0.50000 0.00000 1.50000
O1 O 0.48489(5) -0.04277(6) 1.48463(18)
C1 C 0.49266(9) -0.05408(10) 1.4210(3)
C2 C 0.51628(9) -0.03934(10) 1.3601(3)
H1 H 0.5197 -0.0505 1.3154
C3 C 0.53518(7) -0.00996(9) 1.3589(2)
O2 O 0.53114(5) 0.00812(6) 1.40328(16)
C4 C 0.47362(13) -0.08504(9) 1.4094(6)
C5 C 0.44441(13) -0.09665(16) 1.4253(8)
H2 H 0.4371 -0.0846 1.4436
C6 C 0.42592(16) -0.12592(19) 1.4142(12)
H3 H 0.406 -0.1339 1.425
C7 C 0.4366(3) -0.14360(12) 1.3874(14)
H4 H 0.424 -0.1636 1.3799
C8 C 0.4659(3) -0.13199(12) 1.3716(13)
H5 H 0.4732 -0.1441 1.3533
C9 C 0.48434(18) -0.10272(13) 1.3826(9)
H6 H 0.5043 -0.0948 1.3718
C10 C 0.56212(7) 0.00182(8) 1.3023(2)
C11 C 0.57484(8) -0.01413(10) 1.2792(3)
H7 H 0.5657 -0.0338 1.2967
C12 C 0.60083(9) -0.00192(10) 1.2306(3)
H8 H 0.6092 -0.0132 1.2149
C13 C 0.61402(9) 0.02591(11) 1.2057(3)
H9 H 0.6321 0.0344 1.1748
C14 C 0.60130(10) 0.04239(11) 1.2252(3)
H10 H 0.6101 0.0617 1.2041
C15 C 0.57555(9) 0.03025(10) 1.2758(3)
H11 H 0.5672 0.0416 1.292
N1 N 0.47031(6) -0.00500(7) 1.3893(2)
C16 C 0.44196(7) -0.02340(10) 1.3993(3)
H12 H 0.4351 -0.0332 1.4581
C17 C 0.42285(8) -0.02847(10) 1.3278(3)
H13 H 0.403 -0.0415 1.3373
C18 C 0.43249(7) -0.01454(9) 1.2413(3)
H14 H 0.4193 -0.0176 1.1917
C19 C 0.46133(7) 0.00369(8) 1.2281(2)
C20 C 0.47948(7) 0.00824(8) 1.3054(2)
H15 H 0.4994 0.0214 1.298
N2 N 0.49542(6) 0.04938(7) 0.9690(2)
C21 C 0.51030(8) 0.04017(9) 1.0206(2)
C22 C 0.49948(7) 0.02436(8) 1.1035(2)
H16 H 0.51 0.0172 1.1362
C23 C 0.47306(7) 0.01910(8) 1.1383(2)
C24 C 0.45812(7) 0.02962(8) 1.0858(2)
H17 H 0.4402 0.0268 1.1075
C25 C 0.46995(7) 0.04421(8) 1.0015(2)
N3 N 0.59515(11) 0.06925(8) 0.9176(2)
C26 C 0.58472(13) 0.05131(10) 0.9919(3)
H18 H 0.5969 0.0459 1.0228
C27 C 0.55730(7) 0.04045(9) 1.0257(3)
H19 H 0.5508 0.0275 1.0779
C28 C 0.53918(8) 0.04861(9) 0.9825(3)
C29 C 0.54946(10) 0.06597(12) 0.9029(3)
H20 H 0.5375 0.0712 0.869
C30 C 0.57710(10) 0.07549(13) 0.8736(3)
H21 H 0.5837 0.0873 0.8185
N4 N 0.43366(7) 0.08614(7) 0.8444(2)
C31 C 0.45894(8) 0.08908(9) 0.8224(2)
H22 H 0.4693 0.1013 0.7708
C32 C 0.47092(8) 0.07561(9) 0.8696(2)
H23 H 0.4891 0.0785 0.8507
C33 C 0.45635(7) 0.05756(8) 0.9459(2)
C34 C 0.42942(8) 0.05364(8) 0.9676(3)
H24 H 0.4183 0.0412 1.0177
C35 C 0.41909(8) 0.06818(8) 0.9153(2)
H25 H 0.4006 0.0653 0.9304
Co2 Co 0.419475(12) 0.114501(11) 0.79153(3)
O3 O 0.42261(6) 0.12691(6) 0.93139(19)
C36 C 0.44561(12) 0.13945(14) 0.9765(4)
C37 C 0.47260(16) 0.15484(16) 0.9370(5)
H26 H 0.4885 0.1625 0.9793
C38 C 0.47857(14) 0.16012(13) 0.8385(5)
O4 O 0.46065(8) 0.14826(7) 0.7747(2)
C39 C 0.44282(8) 0.12856(8) 1.0854(2)
C40 C 0.42152(9) 0.12896(11) 1.1400(3)
H27 H 0.4094 0.1352 1.1127
C41 C 0.41794(9) 0.12029(11) 1.2345(3)
H28 H 0.4034 0.1206 1.2718
C42 C 0.43565(10) 0.11120(12) 1.2744(2)
H29 H 0.4332 0.1053 1.339
C43 C 0.45696(11) 0.11080(13) 1.2198(3)
H30 H 0.4691 0.1046 1.247
C44 C 0.46054(10) 0.11947(10) 1.1253(3)
H31 H 0.4751 0.1192 1.088
C45 C 0.50699(13) 0.18178(18) 0.8087(4)
C46 C 0.52586(13) 0.20179(17) 0.8736(4)
H32 H 0.5202 0.2012 0.9379
C47 C 0.55304(15) 0.2227(2) 0.8444(5)
H33 H 0.5659 0.2364 0.8887
C48 C 0.56134(16) 0.2237(3) 0.7503(5)
H34 H 0.5799 0.238 0.7303
C49 C 0.54247(14) 0.20365(12) 0.6854(6)
H35 H 0.5481 0.2043 0.6211
C50 C 0.51530(13) 0.18271(11) 0.7146(5)
H36 H 0.5024 0.169 0.6703
O5 O 0.37807(6) 0.08053(5) 0.79400(16)
C51 C 0.36892(9) 0.05789(8) 0.7448(2)
C52 C 0.38430(10) 0.05496(9) 0.6668(3)
H37 H 0.3765 0.0365 0.6391
C53 C 0.40950(10) 0.07660(10) 0.6279(3)
O6 O 0.42204(7) 0.10237(6) 0.65602(18)
C54 C 0.34032(9) 0.03348(9) 0.7724(3)
C55 C 0.32623(10) 0.03623(10) 0.8506(3)
H38 H 0.335 0.0538 0.8849
C56 C 0.30018(11) 0.01447(11) 0.8799(4)
H39 H 0.2913 0.0168 0.9349
C57 C 0.28674(12) -0.01090(13) 0.8298(4)
H40 H 0.2687 -0.0262 0.8497
C58 C 0.29969(14) -0.01347(14) 0.7526(5)
H41 H 0.2902 -0.0309 0.7175
C59 C 0.32598(12) 0.00771(11) 0.7211(4)
H42 H 0.3343 0.005 0.6654
C60 C 0.42319(7) 0.07024(8) 0.5469(2)
C61 C 0.41283(8) 0.04302(8) 0.5086(2)
H43 H 0.3957 0.0273 0.5329
C62 C 0.42750(9) 0.03880(9) 0.4349(3)
H44 H 0.4204 0.0202 0.4087
C63 C 0.45253(10) 0.06181(12) 0.3994(3)
H45 H 0.4626 0.0589 0.349
C64 C 0.46289(10) 0.08903(10) 0.4376(3)
H46 H 0.48 0.1047 0.4133
C65 C 0.44822(8) 0.09324(8) 0.5114(2)
H47 H 0.4553 0.1118 0.5375
O1I O 0.51511(5) 0.04277(6) 1.51537(18)
C1I C 0.50734(9) 0.05408(10) 1.5790(3)
C2I C 0.48372(9) 0.03934(10) 1.6399(3)
H1I H 0.4803 0.0505 1.6846
C3I C 0.46482(7) 0.00996(9) 1.6411(2)
O2I O 0.46886(5) -0.00812(6) 1.59672(16)
C4I C 0.52638(13) 0.08504(9) 1.5906(6)
C5I C 0.55559(13) 0.09665(16) 1.5747(8)
H2I H 0.5629 0.0846 1.5564
C6I C 0.57408(16) 0.12592(19) 1.5858(12)
H3I H 0.594 0.1339 1.575
C7I C 0.5634(3) 0.14360(12) 1.6126(14)
H4I H 0.576 0.1636 1.6201
C8I C 0.5341(3) 0.13199(12) 1.6284(13)
H5I H 0.5268 0.1441 1.6467
C9I C 0.51566(18) 0.10272(13) 1.6174(9)
H6I H 0.4957 0.0948 1.6282
C10I C 0.43788(7) -0.00182(8) 1.6977(2)
C11I C 0.42516(8) 0.01413(10) 1.7208(3)
H7I H 0.4343 0.0338 1.7033
C12I C 0.39917(9) 0.00192(10) 1.7694(3)
H8I H 0.3908 0.0132 1.7851
C13I C 0.38598(9) -0.02591(11) 1.7943(3)
H9I H 0.3679 -0.0344 1.8252
C14I C 0.39870(10) -0.04239(11) 1.7748(3)
H10I H 0.3899 -0.0617 1.7959
C15I C 0.42445(9) -0.03025(10) 1.7242(3)
H11I H 0.4328 -0.0416 1.708
N1I N 0.52969(6) 0.00500(7) 1.6107(2)
C16I C 0.55804(7) 0.02340(10) 1.6007(3)
H12I H 0.5649 0.0332 1.5419
C17I C 0.57715(8) 0.02847(10) 1.6722(3)
H13I H 0.597 0.0415 1.6627
C18I C 0.56751(7) 0.01454(9) 1.7587(3)
H14I H 0.5807 0.0176 1.8083
C19I C 0.53867(7) -0.00369(8) 1.7719(2)
C20I C 0.52052(7) -0.00824(8) 1.6946(2)
H15I H 0.5006 -0.0214 1.702
N2I N 0.50458(6) -0.04938(7) 2.0310(2)
C21I C 0.48970(8) -0.04017(9) 1.9794(2)
C22I C 0.50052(7) -0.02436(8) 1.8965(2)
H16I H 0.49 -0.0172 1.8638
C23I C 0.52694(7) -0.01910(8) 1.8617(2)
C24I C 0.54188(7) -0.02962(8) 1.9142(2)
H17I H 0.5598 -0.0268 1.8925
C25I C 0.53005(7) -0.04421(8) 1.9985(2)
N3I N 0.40485(11) -0.06925(8) 2.0824(2)
C26I C 0.41528(13) -0.05131(10) 2.0081(3)
H18I H 0.4031 -0.0459 1.9772
C27I C 0.44270(7) -0.04045(9) 1.9743(3)
H19I H 0.4492 -0.0275 1.9221
C28I C 0.46082(8) -0.04861(9) 2.0175(3)
C29I C 0.45054(10) -0.06597(12) 2.0971(3)
H20I H 0.4625 -0.0712 2.131
C30I C 0.42290(10) -0.07549(13) 2.1264(3)
H21I H 0.4163 -0.0873 2.1815
N4I N 0.56634(7) -0.08614(7) 2.1556(2)
C31I C 0.54106(8) -0.08908(9) 2.1776(2)
H22I H 0.5307 -0.1013 2.2292
C32I C 0.52908(8) -0.07561(9) 2.1304(2)
H23I H 0.5109 -0.0785 2.1493
C33I C 0.54365(7) -0.05756(8) 2.0541(2)
C34I C 0.57058(8) -0.05364(8) 2.0324(3)
H24I H 0.5817 -0.0412 1.9823
C35I C 0.58091(8) -0.06818(8) 2.0847(2)
H25I H 0.5994 -0.0653 2.0696
Co2I Co 0.580525(12) -0.114501(11) 2.20847(3)
O3I O 0.57739(6) -0.12691(6) 2.06861(19)
C36I C 0.55439(12) -0.13945(14) 2.0235(4)
C37I C 0.52740(16) -0.15484(16) 2.0630(5)
H26I H 0.5115 -0.1625 2.0207
C38I C 0.52143(14) -0.16012(13) 2.1615(5)
O4I O 0.53935(8) -0.14826(7) 2.2253(2)
C39I C 0.55718(8) -0.12856(8) 1.9146(2)
C40I C 0.57848(9) -0.12896(11) 1.8600(3)
H27I H 0.5906 -0.1352 1.8873
C41I C 0.58206(9) -0.12029(11) 1.7655(3)
H28I H 0.5966 -0.1206 1.7282
C42I C 0.56435(10) -0.11120(12) 1.7256(2)
H29I H 0.5668 -0.1053 1.661
C43I C 0.54304(11) -0.11080(13) 1.7802(3)
H30I H 0.5309 -0.1046 1.753
C44I C 0.53946(10) -0.11947(10) 1.8747(3)
H31I H 0.5249 -0.1192 1.912
C45I C 0.49301(13) -0.18178(18) 2.1913(4)
C46I C 0.47414(13) -0.20179(17) 2.1264(4)
H32I H 0.4798 -0.2012 2.0621
C47I C 0.44696(15) -0.2227(2) 2.1556(5)
H33I H 0.4341 -0.2364 2.1113
C48I C 0.43866(16) -0.2237(3) 2.2497(5)
H34I H 0.4201 -0.238 2.2697
C49I C 0.45753(14) -0.20365(12) 2.3146(6)
H35I H 0.4519 -0.2043 2.3789
C50I C 0.48470(13) -0.18271(11) 2.2854(5)
H36I H 0.4976 -0.169 2.3297
O5I O 0.62193(6) -0.08053(5) 2.20600(16)
C51I C 0.63108(9) -0.05789(8) 2.2552(2)
C52I C 0.61570(10) -0.05496(9) 2.3332(3)
H37I H 0.6235 -0.0365 2.3609
C53I C 0.59050(10) -0.07660(10) 2.3721(3)
O6I O 0.57796(7) -0.10237(6) 2.34398(18)
C54I C 0.65968(9) -0.03348(9) 2.2276(3)
C55I C 0.67377(10) -0.03623(10) 2.1494(3)
H38I H 0.665 -0.0538 2.1151
C56I C 0.69982(11) -0.01447(11) 2.1201(4)
H39I H 0.7087 -0.0168 2.0651
C57I C 0.71326(12) 0.01090(13) 2.1702(4)
H40I H 0.7313 0.0262 2.1503
C58I C 0.70031(14) 0.01347(14) 2.2474(5)
H41I H 0.7098 0.0309 2.2825
C59I C 0.67402(12) -0.00771(11) 2.2789(4)
H42I H 0.6657 -0.005 2.3346
C60I C 0.57681(7) -0.07024(8) 2.4531(2)
C61I C 0.58717(8) -0.04302(8) 2.4914(2)
H43I H 0.6043 -0.0273 2.4671
C62I C 0.57250(9) -0.03880(9) 2.5651(3)
H44I H 0.5796 -0.0202 2.5913
C63I C 0.54747(10) -0.06181(12) 2.6006(3)
H45I H 0.5374 -0.0589 2.651
C64I C 0.53711(10) -0.08903(10) 2.5624(3)
H46I H 0.52 -0.1047 2.5867
C65I C 0.55178(8) -0.09324(8) 2.4886(2)
H47I H 0.5447 -0.1118 2.4625
N3D N 0.59742(8) -0.14077(14) 2.2509(2)
N3M N 0.40258(8) 0.14077(14) 0.7491(2)
Co2E Co 0.361693(16) -0.086142(12) 2.12486(3)
Co2N Co 0.638307(16) 0.086142(12) 0.87514(3)
loop_
_geom_bond_atom_site_label_1
_geom_bond_atom_site_label_2
_geom_bond_site_symmetry_1
_geom_bond_site_symmetry_2
Co1 O1 1_555 1_555
O1 C1 1_555 1_555
C1 C2 1_555 1_555
C2 H1 1_555 1_555
C3 C2 1_555 1_555
O2 Co1 1_555 1_555
C4 C1 1_555 1_555
C5 C4 1_555 1_555
H2 C5 1_555 1_555
C6 C5 1_555 1_555
H3 C6 1_555 1_555
C7 C6 1_555 1_555
H4 C7 1_555 1_555
C8 C7 1_555 1_555
H5 C8 1_555 1_555
C9 C4 1_555 1_555
H6 C9 1_555 1_555
C10 C3 1_555 1_555
C11 C10 1_555 1_555
H7 C11 1_555 1_555
C12 C11 1_555 1_555
H8 C12 1_555 1_555
C13 C12 1_555 1_555
H9 C13 1_555 1_555
C14 C13 1_555 1_555
H10 C14 1_555 1_555
C15 C10 1_555 1_555
H11 C15 1_555 1_555
N1 Co1 1_555 1_555
C16 N1 1_555 1_555
H12 C16 1_555 1_555
C17 C16 1_555 1_555
H13 C17 1_555 1_555
C18 C17 1_555 1_555
H14 C18 1_555 1_555
C19 C18 1_555 1_555
C20 N1 1_555 1_555
H15 C20 1_555 1_555
N2 C21 1_555 1_555
C21 C22 1_555 1_555
C22 H16 1_555 1_555
C23 C19 1_555 1_555
C24 C23 1_555 1_555
H17 C24 1_555 1_555
C25 N2 1_555 1_555
N3 C26 1_555 1_555
C26 H18 1_555 1_555
C27 C26 1_555 1_555
H19 C27 1_555 1_555
C28 C21 1_555 1_555
C29 C28 1_555 1_555
H20 C29 1_555 1_555
C30 N3 1_555 1_555
H21 C30 1_555 1_555
N4 C31 1_555 1_555
C31 H22 1_555 1_555
C32 C31 1_555 1_555
H23 C32 1_555 1_555
C33 C25 1_555 1_555
C34 C33 1_555 1_555
H24 C34 1_555 1_555
C35 N4 1_555 1_555
H25 C35 1_555 1_555
Co2 N4 1_555 1_555
O3 Co2 1_555 1_555
C36 O3 1_555 1_555
C37 C36 1_555 1_555
H26 C37 1_555 1_555
C38 C37 1_555 1_555
O4 Co2 1_555 1_555
C39 C36 1_555 1_555
C40 C39 1_555 1_555
H27 C40 1_555 1_555
C41 C40 1_555 1_555
H28 C41 1_555 1_555
C42 C41 1_555 1_555
H29 C42 1_555 1_555
C43 C42 1_555 1_555
H30 C43 1_555 1_555
C44 C39 1_555 1_555
H31 C44 1_555 1_555
C45 C38 1_555 1_555
C46 C45 1_555 1_555
H32 C46 1_555 1_555
C47 C46 1_555 1_555
H33 C47 1_555 1_555
C48 C47 1_555 1_555
H34 C48 1_555 1_555
C49 C48 1_555 1_555
H35 C49 1_555 1_555
C50 C45 1_555 1_555
H36 C50 1_555 1_555
O5 Co2 1_555 1_555
C51 O5 1_555 1_555
C52 C51 1_555 1_555
H37 C52 1_555 1_555
C53 C52 1_555 1_555
O6 Co2 1_555 1_555
C54 C51 1_555 1_555
C55 C54 1_555 1_555
H38 C55 1_555 1_555
C56 C55 1_555 1_555
H39 C56 1_555 1_555
C57 C56 1_555 1_555
H40 C57 1_555 1_555
C58 C57 1_555 1_555
H41 C58 1_555 1_555
C59 C54 1_555 1_555
H42 C59 1_555 1_555
C60 C53 1_555 1_555
C61 C60 1_555 1_555
H43 C61 1_555 1_555
C62 C61 1_555 1_555
H44 C62 1_555 1_555
C63 C62 1_555 1_555
H45 C63 1_555 1_555
C64 C63 1_555 1_555
H46 C64 1_555 1_555
C65 C60 1_555 1_555
H47 C65 1_555 1_555
O1I Co1 1_555 1_555
C1I O1I 1_555 1_555
C2I C1I 1_555 1_555
H1I C2I 1_555 1_555
C3I C2I 1_555 1_555
O2I Co1 1_555 1_555
C4I C1I 1_555 1_555
C5I C4I 1_555 1_555
H2I C5I 1_555 1_555
C6I C5I 1_555 1_555
H3I C6I 1_555 1_555
C7I C6I 1_555 1_555
H4I C7I 1_555 1_555
C8I C7I 1_555 1_555
H5I C8I 1_555 1_555
C9I C4I 1_555 1_555
H6I C9I 1_555 1_555
C10I C3I 1_555 1_555
C11I C10I 1_555 1_555
H7I C11I 1_555 1_555
C12I C11I 1_555 1_555
H8I C12I 1_555 1_555
C13I C12I 1_555 1_555
H9I C13I 1_555 1_555
C14I C13I 1_555 1_555
H10I C14I 1_555 1_555
C15I C10I 1_555 1_555
H11I C15I 1_555 1_555
N1I Co1 1_555 1_555
C16I N1I 1_555 1_555
H12I C16I 1_555 1_555
C17I C16I 1_555 1_555
H13I C17I 1_555 1_555
C18I C17I 1_555 1_555
H14I C18I 1_555 1_555
C19I C18I 1_555 1_555
C20I N1I 1_555 1_555
H15I C20I 1_555 1_555
N2I C21I 1_555 1_555
C21I C22I 1_555 1_555
C22I H16I 1_555 1_555
C23I C19I 1_555 1_555
C24I C23I 1_555 1_555
H17I C24I 1_555 1_555
C25I N2I 1_555 1_555
N3I C26I 1_555 1_555
C26I H18I 1_555 1_555
C27I C26I 1_555 1_555
H19I C27I 1_555 1_555
C28I C21I 1_555 1_555
C29I C28I 1_555 1_555
H20I C29I 1_555 1_555
C30I N3I 1_555 1_555
H21I C30I 1_555 1_555
N4I C31I 1_555 1_555
C31I H22I 1_555 1_555
C32I C31I 1_555 1_555
H23I C32I 1_555 1_555
C33I C25I 1_555 1_555
C34I C33I 1_555 1_555
H24I C34I 1_555 1_555
C35I N4I 1_555 1_555
H25I C35I 1_555 1_555
Co2I N4I 1_555 1_555
O3I Co2I 1_555 1_555
C36I O3I 1_555 1_555
C37I C36I 1_555 1_555
H26I C37I 1_555 1_555
C38I C37I 1_555 1_555
O4I Co2I 1_555 1_555
C39I C36I 1_555 1_555
C40I C39I 1_555 1_555
H27I C40I 1_555 1_555
C41I C40I 1_555 1_555
H28I C41I 1_555 1_555
C42I C41I 1_555 1_555
H29I C42I 1_555 1_555
C43I C42I 1_555 1_555
H30I C43I 1_555 1_555
C44I C39I 1_555 1_555
H31I C44I 1_555 1_555
C45I C38I 1_555 1_555
C46I C45I 1_555 1_555
H32I C46I 1_555 1_555
C47I C46I 1_555 1_555
H33I C47I 1_555 1_555
C48I C47I 1_555 1_555
H34I C48I 1_555 1_555
C49I C48I 1_555 1_555
H35I C49I 1_555 1_555
C50I C45I 1_555 1_555
H36I C50I 1_555 1_555
O5I Co2I 1_555 1_555
C51I O5I 1_555 1_555
C52I C51I 1_555 1_555
H37I C52I 1_555 1_555
C53I C52I 1_555 1_555
O6I Co2I 1_555 1_555
C54I C51I 1_555 1_555
C55I C54I 1_555 1_555
H38I C55I 1_555 1_555
C56I C55I 1_555 1_555
H39I C56I 1_555 1_555
C57I C56I 1_555 1_555
H40I C57I 1_555 1_555
C58I C57I 1_555 1_555
H41I C58I 1_555 1_555
C59I C54I 1_555 1_555
H42I C59I 1_555 1_555
C60I C53I 1_555 1_555
C61I C60I 1_555 1_555
H43I C61I 1_555 1_555
C62I C61I 1_555 1_555
H44I C62I 1_555 1_555
C63I C62I 1_555 1_555
H45I C63I 1_555 1_555
C64I C63I 1_555 1_555
H46I C64I 1_555 1_555
C65I C60I 1_555 1_555
H47I C65I 1_555 1_555
N3D Co2I 1_555 1_555
N3M Co2 1_555 1_555
Co2E N3I 1_555 1_555
Co2N N3 1_555 1_555
C3 O2 1_555 1_555
C8 C9 1_555 1_555
C14 C15 1_555 1_555
C19 C20 1_555 1_555
C22 C23 1_555 1_555
C24 C25 1_555 1_555
C27 C28 1_555 1_555
C29 C30 1_555 1_555
C32 C33 1_555 1_555
C34 C35 1_555 1_555
C38 O4 1_555 1_555
C43 C44 1_555 1_555
C49 C50 1_555 1_555
C53 O6 1_555 1_555
C58 C59 1_555 1_555
C64 C65 1_555 1_555
C3I O2I 1_555 1_555
C8I C9I 1_555 1_555
C14I C15I 1_555 1_555
C19I C20I 1_555 1_555
C22I C23I 1_555 1_555
C24I C25I 1_555 1_555
C27I C28I 1_555 1_555
C29I C30I 1_555 1_555
C32I C33I 1_555 1_555
C34I C35I 1_555 1_555
C38I O4I 1_555 1_555
C43I C44I 1_555 1_555
C49I C50I 1_555 1_555
C53I O6I 1_555 1_555
C58I C59I 1_555 1_555
C64I C65I 1_555 1_555

#END
