
#######################################################################
#
#                 Cambridge Crystallographic Data Centre
#                                CCDC 
#
#######################################################################
#
# If this CIF has been generated from an entry in the Cambridge 
# Structural Database, then it will include bibliographic, chemical, 
# crystal, experimental, refinement or atomic coordinate data resulting 
# from the CCDC's data processing and validation procedures.
#
#######################################################################

data_GIXMUX
_symmetry_cell_setting           orthorhombic
_symmetry_space_group_name_H-M   'P 21 21 21'
_symmetry_Int_Tables_number      19
_space_group_name_Hall           'P 2ac 2ab'
loop_
_symmetry_equiv_pos_site_id
_symmetry_equiv_pos_as_xyz
1 x,y,z
2 1/2-x,-y,1/2+z
3 -x,1/2+y,1/2-z
4 1/2+x,1/2-y,-z
_cell_length_a                   8.5911(3)
_cell_length_b                   8.5872(3)
_cell_length_c                   52.7295(15)
_cell_angle_alpha                90
_cell_angle_beta                 90
_cell_angle_gamma                90
_cell_volume                     3890.04
loop_
_atom_site_label
_atom_site_type_symbol
_atom_site_fract_x
_atom_site_fract_y
_atom_site_fract_z
Cu1 Cu 0.40519(10) 0.89784(11) 0.734822(15)
O1 O 0.1756(5) 0.8821(5) 0.73205(7)
O2 O 0.2014(6) 0.6499(6) 0.71399(10)
C1 C 0.1201(7) 0.7570(8) 0.72241(12)
C2 C -0.0590(7) 0.7481(9) 0.72180(12)
H1 H -0.0998 0.8253 0.7096
H2 H -0.0916 0.6432 0.7161
C3 C -0.1267(6) 0.7807(8) 0.74818(11)
H3 H -0.1007 0.8906 0.7528
O3 O -0.0608(5) 0.6821(6) 0.76670(9)
H4 H -0.0998 0.7024 0.7809
C4 C -0.3047(7) 0.7668(7) 0.74677(10)
O4 O -0.3681(4) 0.8817(5) 0.73521(8)
O5 O -0.3708(5) 0.6545(5) 0.75608(8)
Cu2 Cu 0.18384(11) 1.15471(10) 0.487586(15)
O6 O 0.2010(5) 0.9262(5) 0.48469(7)
O7 O 0.4318(6) 0.9526(6) 0.46595(9)
C5 C 0.3245(7) 0.8718(6) 0.47429(10)
C6 C 0.3352(9) 0.6940(8) 0.47373(12)
H5 H 0.2604 0.6529 0.4611
H6 H 0.4412 0.6630 0.4683
C7 C 0.3008(8) 0.6234(7) 0.49929(11)
H7 H 0.1917 0.6515 0.5040
O8 O 0.4023(6) 0.6849(5) 0.51832(8)
H8 H 0.4503 0.6116 0.5254
C8 C 0.3107(9) 0.4479(7) 0.49762(11)
O9 O 0.1861(5) 0.3813(4) 0.48886(8)
O10 O 0.4304(5) 0.3770(5) 0.50361(8)
N1 N 0.4171(7) 0.9367(6) 0.69721(9)
C9 C 0.5030(9) 0.8492(10) 0.68151(11)
H9 H 0.5719 0.7743 0.6885
C10 C 0.4948(10) 0.8639(11) 0.65554(12)
H10 H 0.5543 0.7960 0.6451
C11 C 0.4020(9) 0.9753(9) 0.64432(12)
C12 C 0.3190(9) 1.0722(8) 0.66085(12)
H11 H 0.2558 1.1539 0.6544
C13 C 0.3301(9) 1.0473(9) 0.68696(12)
H12 H 0.2722 1.1131 0.6979
C14 C 0.3896(10) 0.9857(10) 0.61673(13)
H13 H 0.4497 0.9161 0.6067
C15 C 0.2963(8) 1.0902(9) 0.60465(12)
H14 H 0.2377 1.1601 0.6148
C16 C 0.2797(7) 1.1026(9) 0.57686(12)
C17 C 0.3708(7) 1.0252(8) 0.55939(12)
H15 H 0.4525 0.9589 0.5650
C18 C 0.3436(7) 1.0440(7) 0.53410(11)
H16 H 0.4075 0.9892 0.5224
C19 C 0.1460(8) 1.2155(8) 0.54151(13)
H17 H 0.0675 1.2831 0.5352
C20 C 0.1664(9) 1.2046(9) 0.56747(13)
H18 H 0.1046 1.2651 0.5787
N2 N 0.2312(5) 1.1359(6) 0.52499(8)
N3 N 0.3917(7) 0.8626(7) 0.77227(8)
C21 C 0.4832(8) 0.9430(8) 0.78807(12)
H19 H 0.5576 1.0129 0.7811
C22 C 0.4733(10) 0.9279(10) 0.81419(15)
H20 H 0.5397 0.9872 0.8249
C23 C 0.3641(9) 0.8240(12) 0.82484(15)
C24 C 0.2786(10) 0.7376(11) 0.80841(14)
H21 H 0.2077 0.6628 0.8149
C25 C 0.2916(8) 0.7554(9) 0.78229(12)
H22 H 0.2304 0.6926 0.7713
C26 C 0.3442(13) 0.7962(12) 0.85186(15)
H23 H 0.2675 0.7226 0.8568
C27 C 0.4231(12) 0.8641(12) 0.86969(16)
H24 H 0.5050 0.9319 0.8647
C28 C 0.3947(14) 0.8435(12) 0.89730(15)
C29 C 0.2819(12) 0.7480(11) 0.90817(14)
H25 H 0.2161 0.6867 0.8977
C30 C 0.2657(9) 0.7423(10) 0.93461(12)
H26 H 0.1910 0.6744 0.9420
C31 C 0.4644(9) 0.9218(8) 0.93913(12)
H27 H 0.5287 0.9834 0.9498
C32 C 0.4883(12) 0.9287(10) 0.91304(13)
H28 H 0.5688 0.9920 0.9062
N4 N 0.3556(7) 0.8329(7) 0.94986(9)
Cu1_2 Cu -0.59481(10) 0.89784(11) 0.734822(15)
Cu1B Cu -0.40519(10) 0.39784(11) 0.765178(15)
O4_2 O 0.6319(4) 0.8817(5) 0.73521(8)
O5B O 0.3708(5) 1.1545(5) 0.74392(8)
Cu2_2 Cu 0.18384(11) 0.15471(10) 0.487586(15)
Cu2A Cu 0.31616(11) 0.84529(10) 0.987586(15)
Cu2C Cu 0.68384(11) 0.34529(10) 0.512414(15)
O9_2 O 0.1861(5) 1.3813(4) 0.48886(8)
O10C O -0.0696(5) 1.1230(5) 0.49639(8)
N4A N 0.1444(7) 1.1671(7) 0.44986(9)
O11 O 0.0921(9) 0.3897(8) 0.68994(10)
O12 O 0.6764(8) 0.8376(9) 0.43812(10)
O13 O 0.4584(17) 0.6638(18) 0.4080(2)
O15 O 0.0490(15) 0.5141(15) 0.8655(2)
O17 O 0.185(2) 1.419(2) 0.6407(2)
O14? O 0.321(2) 0.770(2) 0.4061(2)
O16? O 0.0402(19) 0.400(2) 0.8452(3)
O18? O 0.056(2) 1.361(2) 0.6371(3)
loop_
_geom_bond_atom_site_label_1
_geom_bond_atom_site_label_2
_geom_bond_site_symmetry_1
_geom_bond_site_symmetry_2
Cu1 O1 1_555 1_555
O1 C1 1_555 1_555
O2 C1 1_555 1_555
C1 C2 1_555 1_555
C2 H1 1_555 1_555
H2 C2 1_555 1_555
C3 C2 1_555 1_555
H3 C3 1_555 1_555
O3 C3 1_555 1_555
H4 O3 1_555 1_555
C4 C3 1_555 1_555
O4 C4 1_555 1_555
O5 C4 1_555 1_555
Cu2 O6 1_555 1_555
O6 C5 1_555 1_555
O7 C5 1_555 1_555
C5 C6 1_555 1_555
C6 H5 1_555 1_555
H6 C6 1_555 1_555
C7 C6 1_555 1_555
H7 C7 1_555 1_555
O8 C7 1_555 1_555
H8 O8 1_555 1_555
C8 C7 1_555 1_555
O9 C8 1_555 1_555
O10 C8 1_555 1_555
N1 Cu1 1_555 1_555
C9 N1 1_555 1_555
H9 C9 1_555 1_555
C10 C9 1_555 1_555
H10 C10 1_555 1_555
C11 C10 1_555 1_555
C12 C11 1_555 1_555
H11 C12 1_555 1_555
C13 N1 1_555 1_555
H12 C13 1_555 1_555
C14 C11 1_555 1_555
H13 C14 1_555 1_555
C15 C14 1_555 1_555
H14 C15 1_555 1_555
C16 C15 1_555 1_555
C17 C16 1_555 1_555
H15 C17 1_555 1_555
C18 C17 1_555 1_555
H16 C18 1_555 1_555
C19 H17 1_555 1_555
C20 C16 1_555 1_555
H18 C20 1_555 1_555
N2 Cu2 1_555 1_555
N3 Cu1 1_555 1_555
C21 N3 1_555 1_555
H19 C21 1_555 1_555
C22 C21 1_555 1_555
H20 C22 1_555 1_555
C23 C22 1_555 1_555
C24 C23 1_555 1_555
H21 C24 1_555 1_555
C25 N3 1_555 1_555
H22 C25 1_555 1_555
C26 C23 1_555 1_555
H23 C26 1_555 1_555
C27 C26 1_555 1_555
H24 C27 1_555 1_555
C28 C27 1_555 1_555
C29 C28 1_555 1_555
H25 C29 1_555 1_555
C30 C29 1_555 1_555
H26 C30 1_555 1_555
C31 H27 1_555 1_555
C32 C28 1_555 1_555
H28 C32 1_555 1_555
N4 C30 1_555 1_555
Cu1_2 O4 1_555 1_555
Cu1B O5 1_555 1_555
O4_2 Cu1 1_555 1_555
O5B Cu1 1_555 1_555
Cu2_2 O9 1_555 1_555
Cu2A N4 1_555 1_555
Cu2C O10 1_555 1_555
O9_2 Cu2 1_555 1_555
O10C Cu2 1_555 1_555
N4A Cu2 1_555 1_555
C12 C13 1_555 1_555
C18 N2 1_555 1_555
C19 C20 1_555 1_555
C19 N2 1_555 1_555
C24 C25 1_555 1_555
C31 C32 1_555 1_555
C31 N4 1_555 1_555

#END
