
#######################################################################
#
#                 Cambridge Crystallographic Data Centre
#                                CCDC 
#
#######################################################################
#
# If this CIF has been generated from an entry in the Cambridge 
# Structural Database, then it will include bibliographic, chemical, 
# crystal, experimental, refinement or atomic coordinate data resulting 
# from the CCDC's data processing and validation procedures.
#
#######################################################################

data_GIYTAK
_symmetry_cell_setting           triclinic
_symmetry_space_group_name_H-M   'P -1'
_symmetry_Int_Tables_number      2
_space_group_name_Hall           '-P 1'
loop_
_symmetry_equiv_pos_site_id
_symmetry_equiv_pos_as_xyz
1 x,y,z
2 -x,-y,-z
_cell_length_a                   8.9436(14)
_cell_length_b                   9.4538(15)
_cell_length_c                   19.005(3)
_cell_angle_alpha                95.166(3)
_cell_angle_beta                 93.050(3)
_cell_angle_gamma                117.534(3)
_cell_volume                     1410.9
loop_
_atom_site_label
_atom_site_type_symbol
_atom_site_fract_x
_atom_site_fract_y
_atom_site_fract_z
O8 O 0.2079(17) 0.7253(13) 0.3011(6)
Cd1 Cd 0.01638(4) 0.10181(4) 0.179222(16)
Cd2 Cd 0.0000 0.0000 0.0000
N1 N 0.1718(6) 0.2049(5) 0.2862(2)
N2 N -0.3038(10) 0.3409(11) 0.2024(4)
O1 O 0.1383(4) -0.0024(4) 0.10409(17)
O2 O 0.1158(5) -0.1436(5) 0.1921(2)
O3 O 0.7501(4) -0.1229(4) 0.16293(19)
O4 O 0.8021(4) 0.0135(4) 0.07139(18)
O5 O 0.1564(4) -0.6671(4) 0.13065(18)
O6 O 0.1378(4) -0.7326(3) 0.01373(18)
O7 O -0.1447(5) 0.2232(5) 0.2248(2)
C1 C 0.1540(5) -0.1142(5) 0.1324(3)
C2 C 0.2322(5) -0.1992(5) 0.0881(2)
H1 H 0.2130 -0.1906 0.0378
C3 C 0.1584(5) -0.3764(5) 0.0984(3)
H2 H 0.0387 -0.4317 0.0812
H3 H 0.1691 -0.3852 0.1487
C4 C 0.2495(5) -0.4579(5) 0.0585(2)
H4 H 0.2358 -0.4504 0.0077
C5 C 0.4392(5) -0.3691(5) 0.0849(3)
H5 H 0.4543 -0.3777 0.1350
H6 H 0.4968 -0.4196 0.0594
C6 C 0.5184(5) -0.1923(5) 0.0744(2)
H7 H 0.5090 -0.1845 0.0234
C7 C 0.4240(5) -0.1113(5) 0.1121(3)
H8 H 0.4421 -0.1094 0.1630
H9 H 0.4709 -0.0008 0.1022
C8 C 0.1748(5) -0.6343(5) 0.0688(2)
C9 C 0.7024(5) -0.0985(5) 0.1039(3)
C10 C 0.2302(9) 0.3623(7) 0.3078(3)
H10 H 0.2024 0.4223 0.2785
C11 C 0.3286(9) 0.4387(7) 0.3707(3)
H11 H 0.3701 0.5490 0.3824
C12 C 0.3662(8) 0.3524(7) 0.4168(3)
C13 C 0.4697(9) 0.4239(8) 0.4863(3)
H12 H 0.4939 0.3572 0.5126
C14 C 0.3081(10) 0.1919(8) 0.3941(3)
H13 H 0.3351 0.1295 0.4221
C15 C 0.2110(9) 0.1239(7) 0.3305(3)
H14 H 0.1699 0.0141 0.3175
C16 C -0.1973(8) 0.2920(8) 0.1899(4)
H15 H -0.1530 0.3131 0.1466
C17 C -0.4270(19) 0.255(2) 0.2567(8)
H16 H -0.5401 0.1946 0.2331
H17 H -0.4237 0.3336 0.2934
H18 H -0.3938 0.1835 0.2775
C18 C -0.3591(18) 0.4264(19) 0.1569(7)
H19 H -0.3141 0.5362 0.1778
H20 H -0.4807 0.3765 0.1514
H21 H -0.3191 0.4230 0.1112
Cd1A Cd -0.01638(4) -0.10181(4) -0.179222(16)
Cd1_2 Cd 1.01638(4) 0.10181(4) 0.179222(16)
Cd1_3 Cd 0.01638(4) -0.89819(4) 0.179222(16)
Cd1A_2 Cd 0.98362(4) 0.89819(4) 0.820778(16)
Cd1A_3 Cd -1.01638(4) -0.10181(4) -0.179222(16)
Cd1A_4 Cd -0.01638(4) 0.89819(4) -0.179222(16)
Cd2_2 Cd 1.0000 0.0000 0.0000
Cd2_3 Cd 0.0000 -1.0000 0.0000
Cd2_4 Cd -1.0000 0.0000 0.0000
Cd2_5 Cd 0.0000 1.0000 0.0000
N1A N 0.8282(6) 0.7951(5) 0.7138(2)
N1A_2 N -0.1718(6) -0.2049(5) -0.2862(2)
N2A N 0.3038(10) -0.3409(11) -0.2024(4)
O1A O -0.1383(4) 0.0024(4) -0.10409(17)
O2A O -0.1158(5) 0.1436(5) -0.1921(2)
O3A O -0.7501(4) 0.1229(4) -0.16293(19)
O3_2 O -0.2499(4) -0.1229(4) 0.16293(19)
O3A_2 O 0.2499(4) 0.1229(4) -0.16293(19)
O4A O -0.8021(4) -0.0135(4) -0.07139(18)
O4_2 O -0.1979(4) 0.0135(4) 0.07139(18)
O4A_2 O 0.1979(4) -0.0135(4) -0.07139(18)
O5A O -0.1564(4) 0.6671(4) -0.13065(18)
O5_2 O 0.1564(4) 0.3329(4) 0.13065(18)
O5A_2 O -0.1564(4) -0.3329(4) -0.13065(18)
O6A O -0.1378(4) 0.7326(3) -0.01373(18)
O6_2 O 0.1378(4) 0.2674(3) 0.01373(18)
O6A_2 O -0.1378(4) -0.2674(3) -0.01373(18)
O7A O 0.1447(5) -0.2232(5) -0.2248(2)
C1A C -0.1540(5) 0.1142(5) -0.1324(3)
C2A C -0.2322(5) 0.1992(5) -0.0881(2)
H1A H -0.2130 0.1906 -0.0378
C3A C -0.1584(5) 0.3764(5) -0.0984(3)
H2A H -0.0387 0.4317 -0.0812
H3A H -0.1691 0.3852 -0.1487
C4A C -0.2495(5) 0.4579(5) -0.0585(2)
H4A H -0.2358 0.4504 -0.0077
C5A C -0.4392(5) 0.3691(5) -0.0849(3)
H5A H -0.4543 0.3777 -0.1350
H6A H -0.4968 0.4196 -0.0594
C6A C -0.5184(5) 0.1923(5) -0.0744(2)
H7A H -0.5090 0.1845 -0.0234
C7A C -0.4240(5) 0.1113(5) -0.1121(3)
H8A H -0.4421 0.1094 -0.1630
H9A H -0.4709 0.0008 -0.1022
C8A C -0.1748(5) 0.6343(5) -0.0688(2)
C9A C -0.7024(5) 0.0985(5) -0.1039(3)
C10A C 0.7698(9) 0.6377(7) 0.6922(3)
H10A H 0.7976 0.5777 0.7215
C11A C 0.6714(9) 0.5613(7) 0.6293(3)
H11A H 0.6299 0.4510 0.6176
C12A C 0.6338(8) 0.6476(7) 0.5832(3)
C13A C 0.5303(9) 0.5761(8) 0.5137(3)
H12A H 0.5061 0.6428 0.4874
C14A C 0.6919(10) 0.8081(8) 0.6059(3)
H13A H 0.6649 0.8705 0.5779
C15A C 0.7890(9) 0.8761(7) 0.6695(3)
H14A H 0.8301 0.9859 0.6825
C16A C 0.1973(8) -0.2920(8) -0.1899(4)
H15A H 0.1530 -0.3131 -0.1466
C17A C 0.4270(19) -0.255(2) -0.2567(8)
H16A H 0.5401 -0.1946 -0.2331
H17A H 0.4237 -0.3336 -0.2934
H18A H 0.3938 -0.1835 -0.2775
C18A C 0.3591(18) -0.4264(19) -0.1569(7)
H19A H 0.3141 -0.5362 -0.1778
H20A H 0.4807 -0.3765 -0.1514
H21A H 0.3191 -0.4230 -0.1112
loop_
_geom_bond_atom_site_label_1
_geom_bond_atom_site_label_2
_geom_bond_site_symmetry_1
_geom_bond_site_symmetry_2
Cd1 N1 1_555 1_555
Cd2 O1 1_555 1_555
N1 C10 1_555 1_555
N2 C16 1_555 1_555
O1 Cd1 1_555 1_555
O2 C1 1_555 1_555
O3 C9 1_555 1_555
O4 C9 1_555 1_555
O5 C8 1_555 1_555
O6 C8 1_555 1_555
O7 Cd1 1_555 1_555
C1 O1 1_555 1_555
C2 C1 1_555 1_555
H1 C2 1_555 1_555
C3 C2 1_555 1_555
H2 C3 1_555 1_555
H3 C3 1_555 1_555
C4 C3 1_555 1_555
H4 C4 1_555 1_555
C5 C4 1_555 1_555
H5 C5 1_555 1_555
H6 C5 1_555 1_555
C6 C5 1_555 1_555
H7 C6 1_555 1_555
C7 C2 1_555 1_555
H8 C7 1_555 1_555
H9 C7 1_555 1_555
C8 C4 1_555 1_555
C9 C6 1_555 1_555
C10 H10 1_555 1_555
C11 C10 1_555 1_555
H11 C11 1_555 1_555
C12 C11 1_555 1_555
C13 C12 1_555 1_555
H12 C13 1_555 1_555
C14 C12 1_555 1_555
H13 C14 1_555 1_555
C15 N1 1_555 1_555
H14 C15 1_555 1_555
C16 O7 1_555 1_555
H15 C16 1_555 1_555
C17 N2 1_555 1_555
H16 C17 1_555 1_555
H17 C17 1_555 1_555
H18 C17 1_555 1_555
C18 N2 1_555 1_555
H19 C18 1_555 1_555
H20 C18 1_555 1_555
H21 C18 1_555 1_555
Cd1A N1A_2 1_555 1_555
Cd1_2 O3 1_555 1_555
Cd1_3 O5 1_555 1_555
Cd1A_2 N1A 1_555 1_555
Cd1A_3 O3A 1_555 1_555
Cd1A_4 O5A 1_555 1_555
Cd2_2 O4 1_555 1_555
Cd2_3 O6 1_555 1_555
Cd2_4 O4A 1_555 1_555
Cd2_5 O6A 1_555 1_555
N1A C10A 1_555 1_555
N2A C16A 1_555 1_555
O1A Cd2 1_555 1_555
O2A C1A 1_555 1_555
O3A C9A 1_555 1_555
O3_2 Cd1 1_555 1_555
O3A_2 Cd1A 1_555 1_555
O4A Cd1A_3 1_555 1_555
O4_2 Cd1 1_555 1_555
O4A_2 Cd2 1_555 1_555
O5A C8A 1_555 1_555
O5_2 Cd1 1_555 1_555
O5A_2 Cd1A 1_555 1_555
O6A C8A 1_555 1_555
O6_2 Cd2 1_555 1_555
O6A_2 Cd2 1_555 1_555
O7A Cd1A 1_555 1_555
C1A O1A 1_555 1_555
C2A C1A 1_555 1_555
H1A C2A 1_555 1_555
C3A C2A 1_555 1_555
H2A C3A 1_555 1_555
H3A C3A 1_555 1_555
C4A C3A 1_555 1_555
H4A C4A 1_555 1_555
C5A C4A 1_555 1_555
H5A C5A 1_555 1_555
H6A C5A 1_555 1_555
C6A C5A 1_555 1_555
H7A C6A 1_555 1_555
C7A C2A 1_555 1_555
H8A C7A 1_555 1_555
H9A C7A 1_555 1_555
C8A C4A 1_555 1_555
C9A O4A 1_555 1_555
C10A H10A 1_555 1_555
C11A C10A 1_555 1_555
H11A C11A 1_555 1_555
C12A C11A 1_555 1_555
C13A C13 1_555 1_555
H12A C13A 1_555 1_555
C14A C12A 1_555 1_555
H13A C14A 1_555 1_555
C15A N1A 1_555 1_555
H14A C15A 1_555 1_555
C16A O7A 1_555 1_555
H15A C16A 1_555 1_555
C17A N2A 1_555 1_555
H16A C17A 1_555 1_555
H17A C17A 1_555 1_555
H18A C17A 1_555 1_555
C18A N2A 1_555 1_555
H19A C18A 1_555 1_555
H20A C18A 1_555 1_555
H21A C18A 1_555 1_555
Cd2 O4_2 1_555 1_555
O4 Cd1_2 1_555 1_555
C6 C7 1_555 1_555
C14 C15 1_555 1_555
Cd1A O1A 1_555 1_555
Cd1A O4A_2 1_555 1_555
C6A C7A 1_555 1_555
C6A C9A 1_555 1_555
C12A C13A 1_555 1_555
C14A C15A 1_555 1_555

#END
