
#######################################################################
#
#                 Cambridge Crystallographic Data Centre
#                                CCDC 
#
#######################################################################
#
# If this CIF has been generated from an entry in the Cambridge 
# Structural Database, then it will include bibliographic, chemical, 
# crystal, experimental, refinement or atomic coordinate data resulting 
# from the CCDC's data processing and validation procedures.
#
#######################################################################

data_GIYTEO
_symmetry_cell_setting           monoclinic
_symmetry_space_group_name_H-M   'C 2/m'
_symmetry_Int_Tables_number      12
_space_group_name_Hall           '-C 2y'
loop_
_symmetry_equiv_pos_site_id
_symmetry_equiv_pos_as_xyz
1 x,y,z
2 1/2+x,1/2+y,z
3 -x,y,-z
4 1/2-x,1/2+y,-z
5 -x,-y,-z
6 1/2-x,1/2-y,-z
7 x,-y,z
8 1/2+x,1/2-y,z
_cell_length_a                   16.016(3)
_cell_length_b                   8.9028(18)
_cell_length_c                   17.642(4)
_cell_angle_alpha                90.00
_cell_angle_beta                 102.93(3)
_cell_angle_gamma                90.00
_cell_volume                     2451.74
loop_
_atom_site_label
_atom_site_type_symbol
_atom_site_fract_x
_atom_site_fract_y
_atom_site_fract_z
Zn1 Zn 1.0000 0.5000 0.0000
Zn2 Zn 0.99776(5) 0.5000 0.18549(4)
N1 N 1.0056(5) 0.5000 0.3013(3)
O1 O 1.0778(3) 0.5000 0.1170(3)
O2 O 1.1731(7) 0.5000 0.2227(7)
O3 O 1.4241(3) 0.1686(5) 0.0291(2)
O4 O 1.4257(4) 0.1752(5) 0.1555(3)
C1 C 1.4003(5) 0.5000 0.0879(4)
H1 H 1.4326 0.5000 0.1414
H2 H 1.4408 0.5000 0.0544
C2 C 1.3448(3) 0.3579(6) 0.0727(3)
H3 H 1.3143 0.3585 0.0179
C3 C 1.2226(5) 0.5000 0.1060(4)
H4 H 1.1945 0.5000 0.0506
C4 C 1.4017(4) 0.2230(6) 0.0860(3)
C5 C 1.2785(4) 0.3602(6) 0.1227(3)
H5 H 1.2428 0.2713 0.1120
H6 H 1.3074 0.3585 0.1772
C6 C 1.1543(5) 0.5000 0.1520(4)
C7 C 1.0006(7) 0.5000 0.4578(5)
C8 C 1.0744(10) 0.5000 0.3565(8)
H7 H 1.1272 0.5000 0.3429
C9 C 1.0730(10) 0.5000 0.4339(9)
H8 H 1.1247 0.5000 0.4707
C10 C 0.9378(13) 0.572(2) 0.4033(10)
C11 C 0.9410(12) 0.571(2) 0.3256(10)
Zn1A Zn 1.5000 0.0000 0.0000
Zn1A_2 Zn 1.5000 1.0000 0.0000
Zn1A_3 Zn 0.5000 1.0000 0.0000
Zn1A_4 Zn 0.5000 0.0000 0.0000
Zn2D Zn 1.00224(5) 0.5000 -0.18549(4)
Zn2A Zn 1.49776(5) 0.0000 0.18549(4)
Zn2D_2 Zn 1.00224(5) 0.5000 0.81451(4)
Zn2A_2 Zn 1.49776(5) 1.0000 0.18549(4)
Zn2E Zn 0.50224(5) 1.0000 -0.18549(4)
Zn2E_2 Zn 0.50224(5) 0.0000 -0.18549(4)
N1D N 0.9944(5) 0.5000 0.6987(3)
N1D_2 N 0.9944(5) 0.5000 -0.3013(3)
O1D O 0.9222(3) 0.5000 -0.1170(3)
O2D O 0.8269(7) 0.5000 -0.2227(7)
O3F O 1.4241(3) 0.8314(5) 0.0291(2)
O3D O 0.5759(3) 0.8314(5) -0.0291(2)
O3B O 0.5759(3) 0.1686(5) -0.0291(2)
O3A O 0.9241(3) 0.6686(5) 0.0291(2)
O3G O 0.9241(3) 0.3314(5) 0.0291(2)
O3E O 1.0759(3) 0.3314(5) -0.0291(2)
O3C O 1.0759(3) 0.6686(5) -0.0291(2)
O4F O 1.4257(4) 0.8248(5) 0.1555(3)
O4D O 0.5743(4) 0.8248(5) -0.1555(3)
O4B O 0.5743(4) 0.1752(5) -0.1555(3)
O4A O 0.9257(4) 0.6752(5) 0.1555(3)
O4G O 0.9257(4) 0.3248(5) 0.1555(3)
O4E O 1.0743(4) 0.3248(5) -0.1555(3)
O4C O 1.0743(4) 0.6752(5) -0.1555(3)
C1D C 0.5997(5) 0.5000 -0.0879(4)
H1D H 0.5674 0.5000 -0.1414
H2D H 0.5592 0.5000 -0.0544
C2F C 1.3448(3) 0.6421(6) 0.0727(3)
C2D C 0.6552(3) 0.6421(6) -0.0727(3)
C2B C 0.6552(3) 0.3579(6) -0.0727(3)
H3F H 1.3143 0.6415 0.0179
H3D H 0.6857 0.6415 -0.0179
H3B H 0.6857 0.3585 -0.0179
C3D C 0.7774(5) 0.5000 -0.1060(4)
H4D H 0.8055 0.5000 -0.0506
C4F C 1.4017(4) 0.7770(6) 0.0860(3)
C4D C 0.5983(4) 0.7770(6) -0.0860(3)
C4B C 0.5983(4) 0.2230(6) -0.0860(3)
C5F C 1.2785(4) 0.6398(6) 0.1227(3)
C5D C 0.7215(4) 0.6398(6) -0.1227(3)
C5B C 0.7215(4) 0.3602(6) -0.1227(3)
H5F H 1.2428 0.7287 0.1120
H5D H 0.7572 0.7287 -0.1120
H5B H 0.7572 0.2713 -0.1120
H6F H 1.3074 0.6415 0.1772
H6D H 0.6926 0.6415 -0.1772
H6B H 0.6926 0.3585 -0.1772
C6D C 0.8457(5) 0.5000 -0.1520(4)
C7D C 0.9994(7) 0.5000 0.5422(5)
C8D C 0.9256(10) 0.5000 0.6435(8)
H7D H 0.8728 0.5000 0.6571
C9D C 0.9270(10) 0.5000 0.5661(9)
H8D H 0.8753 0.5000 0.5293
C10D C 1.0622(13) 0.428(2) 0.5967(10)
C10B C 1.0622(13) 0.572(2) 0.5967(10)
C10F C 0.9378(13) 0.428(2) 0.4033(10)
C11D C 1.0590(12) 0.429(2) 0.6744(10)
C11B C 1.0590(12) 0.571(2) 0.6744(10)
C11F C 0.9410(12) 0.429(2) 0.3256(10)
loop_
_geom_bond_atom_site_label_1
_geom_bond_atom_site_label_2
_geom_bond_site_symmetry_1
_geom_bond_site_symmetry_2
Zn1 O1 1_555 1_555
Zn2 N1 1_555 1_555
N1 C8 1_555 1_555
O1 Zn2 1_555 1_555
O2 C6 1_555 1_555
O3 C4 1_555 1_555
O4 C4 1_555 1_555
C1 H1 1_555 1_555
H2 C1 1_555 1_555
C2 C1 1_555 1_555
H3 C2 1_555 1_555
C3 H4 1_555 1_555
C4 C2 1_555 1_555
C5 C2 1_555 1_555
H5 C5 1_555 1_555
H6 C5 1_555 1_555
C6 O1 1_555 1_555
C7 C9 1_555 1_555
C8 H7 1_555 1_555
C9 C8 1_555 1_555
H8 C9 1_555 1_555
C10 C7 1_555 1_555
C11 N1 1_555 1_555
Zn1A O3 1_555 1_555
Zn1A_2 O3F 1_555 1_555
Zn1A_3 O3D 1_555 1_555
Zn1A_4 O3B 1_555 1_555
Zn2D N1D_2 1_555 1_555
Zn2A O4 1_555 1_555
Zn2D_2 N1D 1_555 1_555
Zn2A_2 O4F 1_555 1_555
Zn2E O4D 1_555 1_555
Zn2E_2 O4B 1_555 1_555
N1D C8D 1_555 1_555
O1D Zn1 1_555 1_555
O2D C6D 1_555 1_555
O3F C4F 1_555 1_555
O3D C4D 1_555 1_555
O3B C4B 1_555 1_555
O3A Zn1 1_555 1_555
O3G Zn1 1_555 1_555
O3E Zn1 1_555 1_555
O3C Zn1 1_555 1_555
O4F C4F 1_555 1_555
O4D C4D 1_555 1_555
O4B C4B 1_555 1_555
O4A Zn2 1_555 1_555
O4G Zn2 1_555 1_555
O4E Zn2D 1_555 1_555
O4C Zn2D 1_555 1_555
C1D H1D 1_555 1_555
H2D C1D 1_555 1_555
C2F C1 1_555 1_555
C2D C1D 1_555 1_555
C2B C1D 1_555 1_555
H3F C2F 1_555 1_555
H3D C2D 1_555 1_555
H3B C2B 1_555 1_555
C3D H4D 1_555 1_555
C4F C2F 1_555 1_555
C4D C2D 1_555 1_555
C4B C2B 1_555 1_555
C5F C3 1_555 1_555
C5D C2D 1_555 1_555
C5B C2B 1_555 1_555
H5F C5F 1_555 1_555
H5D C5D 1_555 1_555
H5B C5B 1_555 1_555
H6F C5F 1_555 1_555
H6D C5D 1_555 1_555
H6B C5B 1_555 1_555
C6D O1D 1_555 1_555
C7D C7 1_555 1_555
C8D H7D 1_555 1_555
C9D C7D 1_555 1_555
H8D C9D 1_555 1_555
C10D C7D 1_555 1_555
C10B C7D 1_555 1_555
C10F C7 1_555 1_555
C11D N1D 1_555 1_555
C11B N1D 1_555 1_555
C11F N1 1_555 1_555
C3 C5 1_555 1_555
C3 C6 1_555 1_555
C10 C11 1_555 1_555
C10 C10F 1_555 1_555
C10 C11F 1_555 1_555
C11 C10F 1_555 1_555
C11 C11F 1_555 1_555
Zn2D O1D 1_555 1_555
C2F C5F 1_555 1_555
C3D C5D 1_555 1_555
C3D C5B 1_555 1_555
C3D C6D 1_555 1_555
C8D C9D 1_555 1_555
C10D C10B 1_555 1_555
C10D C11D 1_555 1_555
C10D C11B 1_555 1_555
C10B C11D 1_555 1_555
C10B C11B 1_555 1_555
C10F C11F 1_555 1_555
C11D C11B 1_555 1_555

#END
