
#######################################################################
#
#                 Cambridge Crystallographic Data Centre
#                                CCDC 
#
#######################################################################
#
# If this CIF has been generated from an entry in the Cambridge 
# Structural Database, then it will include bibliographic, chemical, 
# crystal, experimental, refinement or atomic coordinate data resulting 
# from the CCDC's data processing and validation procedures.
#
#######################################################################

data_GOBTIB
_symmetry_cell_setting           triclinic
_symmetry_space_group_name_H-M   'P 1'
_symmetry_Int_Tables_number      1
_space_group_name_Hall           'P 1'
loop_
_symmetry_equiv_pos_site_id
_symmetry_equiv_pos_as_xyz
1 x,y,z
_cell_length_a                   8.5421(6)
_cell_length_b                   12.6379(9)
_cell_length_c                   16.1571(11)
_cell_angle_alpha                104.594(5)
_cell_angle_beta                 98.425(6)
_cell_angle_gamma                97.440(5)
_cell_volume                     1644.31
loop_
_atom_site_label
_atom_site_type_symbol
_atom_site_fract_x
_atom_site_fract_y
_atom_site_fract_z
Cu1 Cu 0.64405(6) 0.85980(4) -0.02963(4)
Cu2 Cu 1.16541(6) 0.87745(5) 0.48003(4)
Cr1 Cr 0.69825(7) 1.01243(5) 0.30253(4)
Cr2 Cr 0.63114(7) 0.73763(5) -0.35363(4)
N1 N 0.8338(5) 0.9421(3) -0.0596(3)
N2 N 0.5948(4) 1.0119(3) 0.0225(3)
N3 N 0.6878(5) 0.7051(3) -0.0787(3)
N4 N 0.4502(5) 0.7817(3) -0.0001(3)
N5 N 0.7968(5) 0.8699(3) 0.1290(3)
N6 N 0.8217(5) 1.2403(4) 0.2588(3)
N7 N 0.3644(5) 0.9660(4) 0.1689(3)
N8 N 0.5417(6) 1.1641(4) 0.4489(3)
N9 N 0.5842(5) 0.7908(4) 0.3564(3)
N10 N 1.0423(5) 1.0294(3) 0.4230(3)
N11 N 0.9615(4) 0.7696(3) 0.4165(2)
N12 N 1.2424(4) 0.8299(3) 0.3673(2)
N13 N 1.3654(4) 0.9906(3) 0.5405(2)
N14 N 1.0936(4) 0.9207(3) 0.5951(2)
N15 N 0.2807(5) 0.7186(3) -0.4704(3)
N16 N 0.7491(5) 0.9630(4) -0.4013(3)
N17 N 0.7814(6) 0.5847(4) -0.5034(3)
N18 N 0.9661(5) 0.7877(4) -0.2189(3)
N19 N 0.5151(5) 0.5123(3) -0.3034(3)
N20 N 0.5017(5) 0.8678(4) -0.1860(3)
C1 C 0.8082(6) 1.0581(4) -0.0525(3)
C2 C 0.9615(8) 1.1361(5) -0.0487(5)
C3 C 0.9218(10) 1.2536(5) -0.0407(4)
C4 C 0.8518(7) 1.2928(4) 0.0410(4)
C5 C 0.7020(6) 1.2129(4) 0.0393(3)
C6 C 0.7380(5) 1.0964(3) 0.0283(3)
C7 C 0.4327(6) 0.6598(3) -0.0373(3)
C8 C 0.6002(6) 0.6322(3) -0.0356(3)
C9 C 0.5960(8) 0.5076(4) -0.0752(3)
C10 C 0.4998(7) 0.4413(4) -0.0285(3)
C11 C 0.3322(8) 0.4687(4) -0.0293(4)
C12 C 0.3380(7) 0.5919(4) 0.0097(4)
C13 C 0.7706(5) 0.9202(4) 0.1940(3)
C14 C 0.7766(6) 1.1582(4) 0.2714(3)
C15 C 0.4787(6) 0.9853(4) 0.2187(3)
C16 C 0.6023(5) 1.1093(4) 0.4007(3)
C17 C 0.6248(5) 0.8703(4) 0.3371(3)
C18 C 0.9217(5) 1.0261(3) 0.3812(3)
C19 C 0.9671(5) 0.7349(3) 0.3222(3)
C20 C 0.8525(6) 0.6296(4) 0.2708(3)
C21 C 0.8705(6) 0.5980(4) 0.1767(3)
C22 C 1.0408(6) 0.5841(4) 0.1684(3)
C23 C 1.1600(6) 0.6916(4) 0.2203(3)
C24 C 1.1385(5) 0.7239(3) 0.3144(3)
C25 C 1.2297(5) 0.9909(3) 0.6627(2)
C26 C 1.1770(6) 1.0605(4) 0.7413(3)
C27 C 1.3228(6) 1.1344(4) 0.8072(3)
C28 C 1.4238(6) 1.2053(4) 0.7640(3)
C29 C 1.4756(6) 1.1332(4) 0.6848(3)
C30 C 1.3274(4) 1.0629(3) 0.6203(2)
C31 C 0.4063(5) 0.7222(3) -0.4301(3)
C32 C 0.7249(5) 0.6411(4) -0.4524(3)
C33 C 0.5569(5) 0.5933(4) -0.3197(3)
C34 C 0.8498(5) 0.7654(4) -0.2703(3)
C35 C 0.5451(5) 0.8242(4) -0.2473(3)
C36 C 0.7056(5) 0.8821(4) -0.3853(3)
H1 H 0.72820 1.05800 -0.10440
H2 H 0.92590 0.94220 -0.02210
H3 H 0.84510 0.90820 -0.11540
H4 H 1.00590 1.11060 -0.10220
H5 H 0.50690 1.02420 -0.01180
H6 H 0.57180 1.01680 0.07710
H7 H 1.04280 1.13720 0.00200
H8 H 1.02070 1.30580 -0.03790
H9 H 0.65200 0.68170 -0.13800
H10 H 0.79620 0.70410 -0.06740
H11 H 0.84350 1.25260 -0.09260
H12 H 0.82480 1.36760 0.04480
H13 H 0.45970 0.79820 0.05940
H14 H 0.36010 0.80590 -0.02190
H15 H 0.61690 1.21310 -0.00930
H16 H 0.66200 1.23730 0.09430
H17 H 0.93290 1.29840 0.09310
H18 H 0.81950 1.09750 0.07980
H19 H 0.37670 0.64020 -0.09940
H20 H 0.65510 0.65200 0.02660
H21 H 0.54690 0.48610 -0.13780
H22 H 0.70690 0.49160 -0.07000
H23 H 0.55600 0.45700 0.03250
H24 H 0.49200 0.36110 -0.05680
H25 H 0.27470 0.42640 0.00430
H26 H 0.95290 0.70850 0.43780
H27 H 0.87340 0.80300 0.42490
H28 H 0.27200 0.44610 -0.09000
H29 H 0.38850 0.61310 0.07210
H30 H 1.23660 0.88340 0.33800
H31 H 1.34760 0.82000 0.37770
H32 H 0.22720 0.60810 0.00550
H33 H 1.44900 0.95540 0.55500
H34 H 1.39500 1.03240 0.50440
H35 H 1.01010 0.95940 0.59040
H36 H 1.05770 0.85800 0.61070
H37 H 0.93920 0.79610 0.29690
H38 H 0.87380 0.56850 0.29660
H39 H 0.74070 0.64050 0.27430
H40 H 0.79670 0.52760 0.14520
H41 H 0.84030 0.65630 0.14960
H42 H 1.05040 0.56670 0.10630
H43 H 1.06790 0.52130 0.19070
H44 H 1.27150 0.67940 0.21780
H45 H 1.14080 0.75250 0.19390
H46 H 1.16730 0.66390 0.34080
H47 H 1.29890 0.94090 0.68290
H48 H 1.10320 1.10770 0.72230
H49 H 1.11800 1.01120 0.76960
H50 H 1.28520 1.18330 0.85570
H51 H 1.38970 1.08720 0.83160
H52 H 1.52040 1.24840 0.80660
H53 H 1.36070 1.25850 0.74550
H54 H 1.53660 1.18120 0.65630
H55 H 1.54640 1.08430 0.70360
H56 H 1.25880 1.11450 0.60210
Cu2_2 Cu 0.16541(6) 0.87745(5) -0.51997(4)
N15_2 N 1.2807(5) 0.7186(3) 0.5296(3)
Cu3 Cu 0.17172(7) 0.37356(4) 0.47730(4)
O1 O 0.3807(4) 0.3071(3) 0.5597(2)
O2 O -0.0393(4) 0.4436(3) 0.3961(3)
N21 N 0.1596(4) 0.4900(3) 0.5868(2)
N22 N 0.0053(5) 0.2781(3) 0.5160(2)
N23 N 0.3339(5) 0.4716(3) 0.4373(3)
N24 N 0.1833(5) 0.2578(3) 0.3659(2)
C37 C 0.3840(5) 0.4073(3) 0.3588(3)
C38 C 0.4455(6) 0.4781(4) 0.3033(3)
C39 C 0.4856(6) 0.4074(4) 0.2203(3)
C40 C 0.3450(6) 0.3169(5) 0.1685(3)
C41 C 0.2857(6) 0.2465(4) 0.2260(3)
C42 C 0.2418(5) 0.3191(3) 0.3061(3)
C43 C 0.0324(5) 0.4490(3) 0.6300(3)
C44 C 0.0636(6) 0.5028(4) 0.7286(3)
C45 C -0.0699(6) 0.4533(5) 0.7684(3)
C46 C -0.0921(6) 0.3280(5) 0.7458(3)
C47 C -0.1181(6) 0.2752(5) 0.6488(3)
C48 C 0.0186(5) 0.3244(3) 0.6115(3)
H57 H 0.440(6) 0.271(5) 0.525(3)
H58 H 0.452(6) 0.358(4) 0.600(3)
H59 H -0.097(8) 0.398(6) 0.351(4)
H60 H -0.104(8) 0.475(6) 0.415(4)
H61 H 0.25700 0.50720 0.62430
H62 H 0.13770 0.55350 0.57300
H63 H -0.09590 0.27870 0.48740
H64 H 0.02310 0.20600 0.50350
H65 H 0.28920 0.52970 0.42510
H66 H 0.42230 0.50060 0.48110
H67 H 0.25280 0.21140 0.37770
H68 H 0.08350 0.21570 0.34110
H69 H 0.47220 0.36890 0.37790
H70 H 0.54300 0.53110 0.33740
H71 H 0.36290 0.52150 0.28780
H72 H 0.51600 0.45570 0.18360
H73 H 0.57910 0.37260 0.23570
H74 H 0.37900 0.26880 0.11820
H75 H 0.25630 0.35120 0.14590
H76 H 0.19050 0.19090 0.19240
H77 H 0.37100 0.20630 0.24380
H78 H 0.15450 0.35780 0.28630
H79 H -0.07200 0.46560 0.60390
H80 H 0.16860 0.48990 0.75550
H81 H 0.06740 0.58400 0.74040
H82 H -0.04390 0.48400 0.83250
H83 H -0.17210 0.47530 0.74720
H84 H 0.00410 0.30610 0.77460
H85 H -0.18580 0.29970 0.76850
H86 H -0.22160 0.28850 0.62030
H87 H -0.12260 0.19400 0.63710
H88 H 0.12110 0.30880 0.64090
O3 O 0.0727(5) 0.8760(8) 0.0593(3)
H89 H 0.12150 0.88760 0.01870
H90 H 0.14880 0.89160 0.10350
O4 O 0.0254(7) 0.6958(5) 0.9343(4)
O5 O 0.2514(5) 0.9076(4) 0.9046(3)
loop_
_geom_bond_atom_site_label_1
_geom_bond_atom_site_label_2
_geom_bond_site_symmetry_1
_geom_bond_site_symmetry_2
Cu1 N1 1_555 1_555
Cu2 N10 1_555 1_555
Cr1 C13 1_555 1_555
Cr2 C31 1_555 1_555
N1 C1 1_555 1_555
N2 Cu1 1_555 1_555
N3 Cu1 1_555 1_555
N4 Cu1 1_555 1_555
N5 Cu1 1_555 1_555
N6 C14 1_555 1_555
N7 C15 1_555 1_555
N8 C16 1_555 1_555
N9 C17 1_555 1_555
N10 C18 1_555 1_555
N11 Cu2 1_555 1_555
N12 Cu2 1_555 1_555
N13 Cu2 1_555 1_555
N14 Cu2 1_555 1_555
N15 C31 1_555 1_555
N16 C36 1_555 1_555
N17 C32 1_555 1_555
N18 C34 1_555 1_555
N19 C33 1_555 1_555
N20 Cu1 1_555 1_555
C1 C2 1_555 1_555
C2 C3 1_555 1_555
C3 C4 1_555 1_555
C4 C5 1_555 1_555
C5 C6 1_555 1_555
C6 N2 1_555 1_555
C7 N4 1_555 1_555
C8 N3 1_555 1_555
C9 C8 1_555 1_555
C10 C9 1_555 1_555
C11 C10 1_555 1_555
C12 C7 1_555 1_555
C13 N5 1_555 1_555
C14 Cr1 1_555 1_555
C15 Cr1 1_555 1_555
C16 Cr1 1_555 1_555
C17 Cr1 1_555 1_555
C18 Cr1 1_555 1_555
C19 N11 1_555 1_555
C20 C19 1_555 1_555
C21 C20 1_555 1_555
C22 C21 1_555 1_555
C23 C22 1_555 1_555
C24 N12 1_555 1_555
C25 N14 1_555 1_555
C26 C25 1_555 1_555
C27 C26 1_555 1_555
C28 C27 1_555 1_555
C29 C28 1_555 1_555
C30 N13 1_555 1_555
C32 Cr2 1_555 1_555
C33 Cr2 1_555 1_555
C34 Cr2 1_555 1_555
C35 Cr2 1_555 1_555
C36 Cr2 1_555 1_555
Cu3 O1 1_555 1_555
O1 H57 1_555 1_555
O2 Cu3 1_555 1_555
N21 Cu3 1_555 1_555
N22 Cu3 1_555 1_555
N23 Cu3 1_555 1_555
N24 Cu3 1_555 1_555
C37 N23 1_555 1_555
C38 C37 1_555 1_555
C39 C38 1_555 1_555
C40 C39 1_555 1_555
C41 C40 1_555 1_555
C42 N24 1_555 1_555
C43 N21 1_555 1_555
C44 C43 1_555 1_555
C45 C44 1_555 1_555
C46 C45 1_555 1_555
C47 C46 1_555 1_555
C48 N22 1_555 1_555
O3 H89 1_555 1_555
H1 C1 1_555 1_555
H2 N1 1_555 1_555
H3 N1 1_555 1_555
H4 C2 1_555 1_555
H5 N2 1_555 1_555
H6 N2 1_555 1_555
H7 C2 1_555 1_555
H8 C3 1_555 1_555
H9 N3 1_555 1_555
H10 N3 1_555 1_555
H11 C3 1_555 1_555
H12 C4 1_555 1_555
H13 N4 1_555 1_555
H14 N4 1_555 1_555
H15 C5 1_555 1_555
H16 C5 1_555 1_555
H17 C4 1_555 1_555
H18 C6 1_555 1_555
H19 C7 1_555 1_555
H20 C8 1_555 1_555
H21 C9 1_555 1_555
H22 C9 1_555 1_555
H23 C10 1_555 1_555
H24 C10 1_555 1_555
H25 C11 1_555 1_555
H26 N11 1_555 1_555
H27 N11 1_555 1_555
H28 C11 1_555 1_555
H29 C12 1_555 1_555
H30 N12 1_555 1_555
H31 N12 1_555 1_555
H32 C12 1_555 1_555
H33 N13 1_555 1_555
H34 N13 1_555 1_555
H35 N14 1_555 1_555
H36 N14 1_555 1_555
H37 C19 1_555 1_555
H38 C20 1_555 1_555
H39 C20 1_555 1_555
H40 C21 1_555 1_555
H41 C21 1_555 1_555
H42 C22 1_555 1_555
H43 C22 1_555 1_555
H44 C23 1_555 1_555
H45 C23 1_555 1_555
H46 C24 1_555 1_555
H47 C25 1_555 1_555
H48 C26 1_555 1_555
H49 C26 1_555 1_555
H50 C27 1_555 1_555
H51 C27 1_555 1_555
H52 C28 1_555 1_555
H53 C28 1_555 1_555
H54 C29 1_555 1_555
H55 C29 1_555 1_555
H56 C30 1_555 1_555
H58 O1 1_555 1_555
H59 O2 1_555 1_555
H60 O2 1_555 1_555
H61 N21 1_555 1_555
H62 N21 1_555 1_555
H63 N22 1_555 1_555
H64 N22 1_555 1_555
H65 N23 1_555 1_555
H66 N23 1_555 1_555
H67 N24 1_555 1_555
H68 N24 1_555 1_555
H69 C37 1_555 1_555
H70 C38 1_555 1_555
H71 C38 1_555 1_555
H72 C39 1_555 1_555
H73 C39 1_555 1_555
H74 C40 1_555 1_555
H75 C40 1_555 1_555
H76 C41 1_555 1_555
H77 C41 1_555 1_555
H78 C42 1_555 1_555
H79 C43 1_555 1_555
H80 C44 1_555 1_555
H81 C44 1_555 1_555
H82 C45 1_555 1_555
H83 C45 1_555 1_555
H84 C46 1_555 1_555
H85 C46 1_555 1_555
H86 C47 1_555 1_555
H87 C47 1_555 1_555
H88 C48 1_555 1_555
H90 O3 1_555 1_555
Cu2_2 N15 1_555 1_555
N15_2 Cu2 1_555 1_555
N20 C35 1_555 1_555
C1 C6 1_555 1_555
C7 C8 1_555 1_555
C11 C12 1_555 1_555
C19 C24 1_555 1_555
C23 C24 1_555 1_555
C25 C30 1_555 1_555
C29 C30 1_555 1_555
C37 C42 1_555 1_555
C41 C42 1_555 1_555
C43 C48 1_555 1_555
C47 C48 1_555 1_555

#END
