
#######################################################################
#
#                 Cambridge Crystallographic Data Centre
#                                CCDC 
#
#######################################################################
#
# If this CIF has been generated from an entry in the Cambridge 
# Structural Database, then it will include bibliographic, chemical, 
# crystal, experimental, refinement or atomic coordinate data resulting 
# from the CCDC's data processing and validation procedures.
#
#######################################################################

data_GOLQII
_symmetry_cell_setting           monoclinic
_symmetry_space_group_name_H-M   'P 21/c'
_symmetry_Int_Tables_number      14
_space_group_name_Hall           '-P 2ybc'
loop_
_symmetry_equiv_pos_site_id
_symmetry_equiv_pos_as_xyz
1 x,y,z
2 -x,1/2+y,1/2-z
3 -x,-y,-z
4 x,1/2-y,1/2+z
_cell_length_a                   9.74410(10)
_cell_length_b                   22.4015(4)
_cell_length_c                   9.20500(10)
_cell_angle_alpha                90
_cell_angle_beta                 116.9920(10)
_cell_angle_gamma                90
_cell_volume                     1790.42
loop_
_atom_site_label
_atom_site_type_symbol
_atom_site_fract_x
_atom_site_fract_y
_atom_site_fract_z
Ag1 Ag 0.17888(6) 0.14737(2) 0.01878(7)
C1 C 0.6142(6) 0.0646(2) 0.0829(6)
N1 N 0.3736(5) 0.1161(2) -0.0156(6)
Nd1 Nd 0.85827(3) -0.008870(12) 0.61711(3)
O1 O 0.7086(4) 0.00473(16) 0.3221(4)
C2 C 0.4841(6) 0.0809(2) 0.0945(7)
H3 H 0.4714 0.0671 0.1828
N2 N 0.0364(5) 0.2168(2) 0.0474(6)
O3 O 0.8663(4) 0.02728(19) 0.2129(4)
C3 C 0.3935(7) 0.1347(3) -0.1434(7)
H6 H 0.3196 0.1597 -0.2194
O5 O 0.1134(4) 0.38638(16) -0.0591(5)
C4 C 0.5176(7) 0.1187(3) -0.1673(7)
H7 H 0.5255 0.1310 -0.2597
O6 O -0.0282(5) 0.42752(17) 0.0429(5)
C5 C 0.6294(7) 0.0841(3) -0.0515(7)
H8 H 0.7162 0.0736 -0.0633
O7 O 0.1169(4) 0.05546(16) 0.1296(4)
C6 C 0.7400(6) 0.0288(2) 0.2168(6)
O8 O -0.0401(4) 0.05896(15) -0.1370(4)
C7 C -0.0146(6) 0.3216(2) 0.0401(6)
O9 O 0.6147(4) -0.06386(16) 0.5503(4)
C8 C 0.0645(6) 0.2733(2) 0.0224(7)
H9 H 0.1414 0.2804 -0.0087
O10 O 0.3584(4) -0.05526(16) 0.4212(4)
C9 C -0.0735(7) 0.2077(3) 0.0938(8)
H10 H -0.0935 0.1687 0.1131
C10 C -0.1580(8) 0.2526(3) 0.1142(9)
H11 H -0.2342 0.2441 0.1455
C11 C -0.1288(7) 0.3105(3) 0.0878(7)
H12 H -0.1844 0.3419 0.1017
C12 C 0.0257(6) 0.3829(2) 0.0058(6)
C13 C 0.0207(6) 0.0329(2) -0.0029(6)
C14 C 0.4924(6) -0.0349(2) 0.4910(6)
Ag1B Ag -0.17888(6) -0.14737(2) -0.01878(7)
Ag1B_2 Ag 1.82112(6) -0.14737(2) 0.98122(7)
Ag1A Ag 0.82112(6) -0.35263(2) 0.48122(7)
C1B C 1.3858(6) -0.0646(2) 0.9171(6)
N1B N 1.6264(5) -0.1161(2) 1.0156(6)
N1B_2 N -0.3736(5) -0.1161(2) 0.0156(6)
Nd1B Nd 1.14173(3) 0.008870(12) 0.38289(3)
Nd1A Nd 0.14173(3) 0.491130(12) -0.11711(3)
Nd1C Nd -0.14173(3) 0.508870(12) 0.11711(3)
Nd1B_2 Nd 0.14173(3) 0.008870(12) 0.38289(3)
Nd1_2 Nd -0.14173(3) -0.008870(12) -0.38289(3)
O1B O 1.2914(4) -0.00473(16) 0.6779(4)
C2B C 1.5159(6) -0.0809(2) 0.9055(7)
H3B H 1.5286 -0.0671 0.8172
N2A N 0.9636(5) -0.2832(2) 0.4526(6)
N2B N -0.0364(5) -0.2168(2) -0.0474(6)
O3B O 1.1337(4) -0.02728(19) 0.7871(4)
C3B C 1.6065(7) -0.1347(3) 1.1434(7)
H6B H 1.6804 -0.1597 1.2194
O5A O 0.8866(4) -0.11362(16) 0.5591(5)
O5C O 1.1134(4) 0.11362(16) 0.4409(5)
C4B C 1.4824(7) -0.1187(3) 1.1673(7)
H7B H 1.4745 -0.1310 1.2597
O6A O 1.0282(5) -0.07248(17) 0.4571(5)
O6C O 0.9718(5) 0.07248(17) 0.5429(5)
C5B C 1.3706(7) -0.0841(3) 1.0515(7)
H8B H 1.2838 -0.0736 1.0633
O7B O -0.1169(4) -0.05546(16) -0.1296(4)
O7B_2 O 0.8831(4) -0.05546(16) 0.8704(4)
O7_2 O 1.1169(4) 0.05546(16) 0.1296(4)
C6B C 1.2600(6) -0.0288(2) 0.7832(6)
O8B O 0.0401(4) -0.05896(15) 0.1370(4)
O8_2 O 0.9599(4) 0.05896(15) 0.8630(4)
O8B_2 O 1.0401(4) -0.05896(15) 0.1370(4)
C7A C 1.0146(6) -0.1784(2) 0.4599(6)
O9B O 0.3853(4) 0.06386(16) 0.4497(4)
O9B_2 O 1.3853(4) 0.06386(16) 0.4497(4)
C8A C 0.9355(6) -0.2267(2) 0.4776(7)
H9A H 0.8586 -0.2196 0.5087
O10B O 0.6416(4) 0.05526(16) 0.5788(4)
O10_2 O 1.3584(4) -0.05526(16) 0.4212(4)
C9A C 1.0735(7) -0.2923(3) 0.4062(8)
H10A H 1.0935 -0.3313 0.3869
C10A C 1.1580(8) -0.2474(3) 0.3858(9)
H11A H 1.2342 -0.2559 0.3545
C11A C 1.1288(7) -0.1895(3) 0.4122(7)
H12A H 1.1844 -0.1581 0.3983
C12A C 0.9743(6) -0.1171(2) 0.4942(6)
C13B C -0.0207(6) -0.0329(2) 0.0029(6)
C14B C 0.5076(6) 0.0349(2) 0.5090(6)
O2 O 0.3918(8) 0.1959(3) 0.4391(7)
H1 H 0.4095 0.2081 0.3629
H2 H 0.3907 0.1585 0.4384
O4 O 0.4855(9) 0.7657(3) 0.7785(9)
H4 H 0.5387 0.7427 0.8560
H5 H 0.4683 0.7974 0.8159
loop_
_geom_bond_atom_site_label_1
_geom_bond_atom_site_label_2
_geom_bond_site_symmetry_1
_geom_bond_site_symmetry_2
Ag1 N1 1_555 1_555
C1 C2 1_555 1_555
N1 C2 1_555 1_555
Nd1 O1 1_555 1_555
O1 C6 1_555 1_555
O2 H1 1_555 1_555
H2 O2 1_555 1_555
C2 H3 1_555 1_555
N2 Ag1 1_555 1_555
O3 C6 1_555 1_555
O4 H4 1_555 1_555
H5 O4 1_555 1_555
C3 N1 1_555 1_555
H6 C3 1_555 1_555
O5 C12 1_555 1_555
C4 C3 1_555 1_555
H7 C4 1_555 1_555
O6 C12 1_555 1_555
C5 C1 1_555 1_555
H8 C5 1_555 1_555
O7 Ag1 1_555 1_555
C6 C1 1_555 1_555
O8 C13 1_555 1_555
C7 C8 1_555 1_555
O9 Nd1 1_555 1_555
C8 N2 1_555 1_555
H9 C8 1_555 1_555
O10 C14 1_555 1_555
C9 N2 1_555 1_555
H10 C9 1_555 1_555
C10 C9 1_555 1_555
H11 C10 1_555 1_555
C11 C7 1_555 1_555
H12 C11 1_555 1_555
C12 C7 1_555 1_555
C13 O7 1_555 1_555
C14 O9 1_555 1_555
Ag1B N1B_2 1_555 1_555
Ag1B_2 N1B 1_555 1_555
Ag1A N2A 1_555 1_555
C1B C2B 1_555 1_555
N1B C2B 1_555 1_555
Nd1B O3 1_555 1_555
Nd1A O5 1_555 1_555
Nd1C O6 1_555 1_555
Nd1B_2 O7 1_555 1_555
Nd1_2 O8 1_555 1_555
O1B Nd1B 1_555 1_555
C2B H3B 1_555 1_555
N2A C8A 1_555 1_555
N2B Ag1B 1_555 1_555
O3B Nd1 1_555 1_555
C3B N1B 1_555 1_555
H6B C3B 1_555 1_555
O5A Nd1 1_555 1_555
O5C Nd1B 1_555 1_555
C4B C3B 1_555 1_555
H7B C4B 1_555 1_555
O6A Nd1B 1_555 1_555
O6C Nd1 1_555 1_555
C5B C1B 1_555 1_555
H8B C5B 1_555 1_555
O7B Ag1B 1_555 1_555
O7B_2 Nd1 1_555 1_555
O7_2 Nd1B 1_555 1_555
C6B C1B 1_555 1_555
O8B Nd1B_2 1_555 1_555
O8_2 Nd1 1_555 1_555
O8B_2 Nd1B 1_555 1_555
C7A C8A 1_555 1_555
O9B Nd1B_2 1_555 1_555
O9B_2 Nd1B 1_555 1_555
C8A H9A 1_555 1_555
O10B Nd1 1_555 1_555
O10_2 Nd1B 1_555 1_555
C9A N2A 1_555 1_555
H10A C9A 1_555 1_555
C10A C9A 1_555 1_555
H11A C10A 1_555 1_555
C11A C7A 1_555 1_555
H12A C11A 1_555 1_555
C12A O5A 1_555 1_555
C13B C13 1_555 1_555
C14B C14 1_555 1_555
C4 C5 1_555 1_555
O10 Nd1B_2 1_555 1_555
C10 C11 1_555 1_555
Nd1_2 O7B 1_555 1_555
O1B C6B 1_555 1_555
O3B C6B 1_555 1_555
C4B C5B 1_555 1_555
O6A C12A 1_555 1_555
O7B C13B 1_555 1_555
O8B C13B 1_555 1_555
C7A C12A 1_555 1_555
O9B C14B 1_555 1_555
O10B C14B 1_555 1_555
C10A C11A 1_555 1_555

#END
