
#######################################################################
#
#                 Cambridge Crystallographic Data Centre
#                                CCDC 
#
#######################################################################
#
# If this CIF has been generated from an entry in the Cambridge 
# Structural Database, then it will include bibliographic, chemical, 
# crystal, experimental, refinement or atomic coordinate data resulting 
# from the CCDC's data processing and validation procedures.
#
#######################################################################

data_GOLYUD
_symmetry_cell_setting           triclinic
_symmetry_space_group_name_H-M   'P -1'
_symmetry_Int_Tables_number      2
_space_group_name_Hall           '-P 1'
loop_
_symmetry_equiv_pos_site_id
_symmetry_equiv_pos_as_xyz
1 x,y,z
2 -x,-y,-z
_cell_length_a                   14.2269(18)
_cell_length_b                   14.7692(11)
_cell_length_c                   21.6912(19)
_cell_angle_alpha                90.391(2)
_cell_angle_beta                 94.357(3)
_cell_angle_gamma                118.233(2)
_cell_volume                     3999.17
loop_
_atom_site_label
_atom_site_type_symbol
_atom_site_fract_x
_atom_site_fract_y
_atom_site_fract_z
C1 C 0.9327(3) 0.0920(3) -0.00476(17)
H1 H 0.9562 0.0467 0.0104
C2 C 0.8738(3) 0.0709(3) -0.06207(18)
H2 H 0.8560 0.0099 -0.0842
C3 C 0.8404(3) 0.1402(3) -0.08750(18)
C4 C 0.8667(3) 0.2288(3) -0.05163(18)
H3 H 0.8457 0.2760 -0.0665
C5 C 0.9237(4) 0.2480(3) 0.0060(2)
H4 H 0.9403 0.3078 0.0291
C6 C 0.7795(3) 0.1186(3) -0.15012(17)
C7 C 0.7187(3) 0.0190(3) -0.17358(16)
H5 H 0.7188 -0.0346 -0.1513
C8 C 0.6571(3) -0.0031(3) -0.22993(18)
C9 C 0.6599(3) 0.0758(3) -0.26463(19)
H6 H 0.6214 0.0611 -0.3033
C10 C 0.7204(3) 0.1779(3) -0.24196(17)
C11 C 0.7806(3) 0.1983(3) -0.18423(18)
H7 H 0.8216 0.2659 -0.1687
C12 C 0.8059(3) 0.4414(3) -0.30579(18)
H8 H 0.8640 0.5073 -0.3004
C13 C 0.8064(3) 0.3631(3) -0.27148(18)
H9 H 0.8651 0.3770 -0.2436
C14 C 0.7196(3) 0.2625(3) -0.27792(18)
C15 C 0.6337(3) 0.2459(3) -0.32071(18)
H10 H 0.5751 0.1805 -0.3263
C16 C 0.6343(3) 0.3254(3) -0.3552(2)
H11 H 0.5763 0.3128 -0.3834
C17 C 0.50353(13) -0.15321(17) -0.27251(11)
C18 C 0.42175(18) -0.15547(17) -0.24024(9)
H12 H 0.4381 -0.1117 -0.2055
C19 C 0.31553(15) -0.22311(19) -0.25995(10)
C20 C 0.29109(13) -0.28849(17) -0.31192(11)
H13 H 0.2200 -0.3337 -0.3251
C21 C 0.37287(17) -0.28623(18) -0.34419(9)
C22 C 0.47909(15) -0.21860(19) -0.32448(10)
H14 H 0.5338 -0.2171 -0.3461
C23 C 0.0514(3) -0.3153(3) -0.19054(18)
H15 H -0.0120 -0.3763 -0.1883
C24 C 0.1324(3) -0.3156(3) -0.22217(18)
H16 H 0.1229 -0.3763 -0.2413
C25 C 0.2283(3) -0.2247(3) -0.22530(17)
C26 C 0.2390(3) -0.1374(3) -0.19642(17)
H17 H 0.3030 -0.0766 -0.1970
C27 C 0.1561(3) -0.1375(3) -0.16617(18)
H18 H 0.1643 -0.0764 -0.1484
C28 C 0.4087(3) -0.4177(3) -0.4854(2)
H19 H 0.4643 -0.4194 -0.5044
C29 C 0.4305(4) -0.3625(3) -0.4357(2)
H20 H 0.5016 -0.3261 -0.4195
C30 C 0.3468(3) -0.3537(3) -0.40219(18)
C31 C 0.2419(3) -0.4154(3) -0.4306(2)
H21 H 0.1846 -0.4156 -0.4125
C32 C 0.2212(3) -0.4754(3) -0.4843(2)
H22 H 0.1513 -0.5158 -0.5016
C33 C 1.0538(3) 0.0671(3) 0.19653(18)
C34 C 1.0156(3) -0.0443(3) 0.21216(17)
C35 C 1.0435(3) -0.0679(3) 0.2705(2)
H23 H 1.0867 -0.0152 0.2997
C36 C 1.0072(3) -0.1690(3) 0.2850(2)
H24 H 1.0262 -0.1840 0.3241
C37 C 0.9428(3) -0.2486(3) 0.2422(2)
C38 C 0.9160(3) -0.2244(3) 0.1834(2)
H25 H 0.8743 -0.2769 0.1539
C39 C 0.9511(3) -0.1230(3) 0.1690(2)
H26 H 0.9312 -0.1076 0.1303
C40 C 0.7616(3) -0.4148(3) 0.2789(2)
C41 C 0.7497(3) -0.3701(3) 0.3323(2)
H27 H 0.8095 -0.3194 0.3555
C42 C 0.6461(3) -0.4023(3) 0.3510(2)
H28 H 0.6369 -0.3706 0.3855
C43 C 0.5586(3) -0.4814(3) 0.31774(17)
C44 C 0.5717(3) -0.5266(3) 0.26469(19)
H29 H 0.5125 -0.5792 0.2422
C45 C 0.6752(3) -0.4922(3) 0.2453(2)
H30 H 0.6846 -0.5219 0.2099
C46 C 0.4493(3) -0.5164(3) 0.33953(17)
C47 C 0.9322(3) -0.3094(3) 0.64195(18)
C48 C 1.0431(3) -0.2414(3) 0.62717(17)
C49 C 1.0811(3) -0.2684(3) 0.57607(19)
H31 H 1.0370 -0.3290 0.5527
C50 C 1.1847(3) -0.2046(3) 0.5601(2)
H32 H 1.2105 -0.2223 0.5265
C51 C 1.2485(3) -0.1142(3) 0.5954(2)
C52 C 1.2123(3) -0.0883(3) 0.64694(19)
H33 H 1.2565 -0.0284 0.6709
C53 C 1.1102(3) -0.1525(3) 0.66204(19)
H34 H 1.0858 -0.1355 0.6966
C54 C 1.3540(3) 0.0494(3) 0.52124(19)
C55 C 1.3264(4) 0.0235(3) 0.4594(2)
H35 H 1.3258 -0.0351 0.4428
C56 C 1.2998(3) 0.0832(3) 0.42165(19)
H36 H 1.2811 0.0651 0.3796
C57 C 1.3004(3) 0.1710(3) 0.44580(17)
C58 C 1.3293(3) 0.1984(3) 0.50947(19)
H37 H 1.3305 0.2572 0.5261
C59 C 1.3558(3) 0.1362(3) 0.54713(19)
H38 H 1.3746 0.1529 0.5893
C60 C 1.2762(3) 0.2412(3) 0.40548(17)
C61 C 1.1998(3) 0.4095(3) 0.14775(16)
C62 C 1.2892(3) 0.5201(3) 0.15386(17)
C63 C 1.2792(3) 0.5936(3) 0.1195(2)
H39 H 1.2182 0.5755 0.0926
C64 C 1.3606(3) 0.6953(3) 0.1250(2)
H40 H 1.3541 0.7457 0.1025
C65 C 1.4529(3) 0.7206(3) 0.16527(19)
C66 C 1.4606(3) 0.6457(3) 0.19953(19)
H41 H 1.5204 0.6636 0.2273
C67 C 1.3813(4) 0.5450(3) 0.19321(19)
H42 H 1.3889 0.4943 0.2148
C68 C 1.6269(3) 0.8424(3) 0.1038(2)
C69 C 1.6057(4) 0.8784(3) 0.0484(2)
H43 H 1.5631 0.9106 0.0465
C70 C 1.6491(4) 0.8656(3) -0.0044(2)
H44 H 1.6355 0.8898 -0.0417
C71 C 1.7118(3) 0.8176(3) -0.00197(17)
C72 C 1.7348(4) 0.7843(3) 0.05340(18)
H45 H 1.7794 0.7543 0.0553
C73 C 1.6915(4) 0.7954(3) 0.10663(18)
H46 H 1.7058 0.7715 0.1438
C74 C 1.7569(3) 0.8022(3) -0.05971(18)
Co1 Co 1.06255(4) 0.22425(4) 0.11240(2)
Co2 Co 1.28625(4) 0.45382(3) 0.39971(2)
Co3 Co 1.22151(4) 0.28000(3) 0.27108(2)
N1 N 0.9561(2) 0.1802(2) 0.02961(14)
N2 N 0.7210(2) 0.4232(2) -0.34756(13)
N3 N 0.0629(3) -0.2266(2) -0.16244(14)
N4 N 0.3065(3) -0.4743(2) -0.51173(14)
O1 O 0.6137(2) -0.10210(19) -0.25506(12)
O2 O 1.0281(2) 0.08350(19) 0.14277(11)
O3 O 1.1016(2) 0.13286(19) 0.23867(12)
O4 O 0.8854(2) -0.4367(2) 0.20684(14)
O5 O 0.9545(2) -0.3815(2) 0.31543(15)
O6 O 0.36534(19) -0.57651(16) 0.30793(10)
O7 O 0.4486(2) -0.4800(2) 0.39190(12)
O8 O 1.1318(2) 0.38367(18) 0.10043(12)
O9 O 1.19646(19) 0.34344(17) 0.18369(10)
O10 O 1.5166(2) 0.9174(2) 0.15612(14)
O11 O 1.6283(2) 0.8594(2) 0.22448(14)
O12 O 1.7126(2) 0.8118(2) -0.10943(12)
O13 O 1.8277(2) 0.7746(2) -0.05361(12)
O14 O 1.2527(2) 0.21448(18) 0.34912(12)
O15 O 1.2864(2) 0.32289(19) 0.43019(12)
O16 O 1.4075(2) -0.0978(2) 0.53409(14)
O17 O 1.4442(2) 0.0258(2) 0.62564(14)
O18 O 0.8744(2) -0.3830(2) 0.60224(13)
O19 O 0.90033(19) -0.29268(16) 0.69094(11)
O20 O 1.3297(2) 0.2566(2) 0.22449(12)
H47 H 1.3270 0.1929 0.2361
H48 H 1.3119 0.2538 0.1807
S1 S 0.89369(9) -0.37699(8) 0.25979(5)
S2 S 1.37839(9) -0.03484(8) 0.57102(5)
S3 S 1.56020(9) 0.84534(8) 0.16842(5)
Co1A Co -0.06255(4) -0.22425(4) -0.11240(2)
Co1A_2 Co 1.93745(4) 0.77575(4) -0.11240(2)
Co2_2 Co 0.28625(4) -0.54618(3) -0.60029(2)
Co2_3 Co 0.28625(4) -0.54618(3) 0.39971(2)
Co2A Co 0.71375(4) -0.45382(3) 0.60029(2)
Co2A_2 Co 0.71375(4) 0.54618(3) -0.39971(2)
Co3_2 Co 0.22151(4) -0.72000(3) 0.27108(2)
Co3A Co 0.77849(4) -0.28000(3) 0.72892(2)
N2A N 1.2790(2) 0.5768(2) 0.34756(13)
N3A N 0.9371(3) 0.2266(2) 0.16244(14)
N4_2 N 1.3065(3) 0.5257(2) 0.48827(14)
O6_2 O 1.36534(19) 0.42349(16) 0.30793(10)
O7_2 O 1.4486(2) 0.5200(2) 0.39190(12)
O13A O 1.1723(2) 0.2254(2) 0.05361(12)
O18A O 1.1256(2) 0.3830(2) 0.39776(13)
O19A O 1.09967(19) 0.29268(16) 0.30906(11)
loop_
_geom_bond_atom_site_label_1
_geom_bond_atom_site_label_2
_geom_bond_site_symmetry_1
_geom_bond_site_symmetry_2
C1 H1 1_555 1_555
C2 C1 1_555 1_555
H2 C2 1_555 1_555
C3 C2 1_555 1_555
C4 C3 1_555 1_555
H3 C4 1_555 1_555
C5 C4 1_555 1_555
H4 C5 1_555 1_555
C6 C3 1_555 1_555
C7 C6 1_555 1_555
H5 C7 1_555 1_555
C8 C7 1_555 1_555
C9 C8 1_555 1_555
H6 C9 1_555 1_555
C10 C9 1_555 1_555
C11 C6 1_555 1_555
H7 C11 1_555 1_555
C12 H8 1_555 1_555
C13 C12 1_555 1_555
H9 C13 1_555 1_555
C14 C10 1_555 1_555
C15 C14 1_555 1_555
H10 C15 1_555 1_555
C16 C15 1_555 1_555
H11 C16 1_555 1_555
C17 C18 1_555 1_555
C18 H12 1_555 1_555
C19 C18 1_555 1_555
C20 C19 1_555 1_555
H13 C20 1_555 1_555
C21 C20 1_555 1_555
C22 C17 1_555 1_555
H14 C22 1_555 1_555
C23 H15 1_555 1_555
C24 C23 1_555 1_555
H16 C24 1_555 1_555
C25 C19 1_555 1_555
C26 C25 1_555 1_555
H17 C26 1_555 1_555
C27 C26 1_555 1_555
H18 C27 1_555 1_555
C28 H19 1_555 1_555
C29 C28 1_555 1_555
H20 C29 1_555 1_555
C30 C21 1_555 1_555
C31 C30 1_555 1_555
H21 C31 1_555 1_555
C32 C31 1_555 1_555
H22 C32 1_555 1_555
C33 C34 1_555 1_555
C34 C35 1_555 1_555
C35 H23 1_555 1_555
C36 C35 1_555 1_555
H24 C36 1_555 1_555
C37 C36 1_555 1_555
C38 C37 1_555 1_555
H25 C38 1_555 1_555
C39 C34 1_555 1_555
H26 C39 1_555 1_555
C40 C41 1_555 1_555
C41 H27 1_555 1_555
C42 C41 1_555 1_555
H28 C42 1_555 1_555
C43 C42 1_555 1_555
C44 C43 1_555 1_555
H29 C44 1_555 1_555
C45 C40 1_555 1_555
H30 C45 1_555 1_555
C46 C43 1_555 1_555
C47 C48 1_555 1_555
C48 C49 1_555 1_555
C49 H31 1_555 1_555
C50 C49 1_555 1_555
H32 C50 1_555 1_555
C51 C50 1_555 1_555
C52 C51 1_555 1_555
H33 C52 1_555 1_555
C53 C48 1_555 1_555
H34 C53 1_555 1_555
C54 C55 1_555 1_555
C55 H35 1_555 1_555
C56 C55 1_555 1_555
H36 C56 1_555 1_555
C57 C56 1_555 1_555
C58 C57 1_555 1_555
H37 C58 1_555 1_555
C59 C54 1_555 1_555
H38 C59 1_555 1_555
C60 C57 1_555 1_555
C61 C62 1_555 1_555
C62 C63 1_555 1_555
C63 H39 1_555 1_555
C64 C63 1_555 1_555
H40 C64 1_555 1_555
C65 C64 1_555 1_555
C66 C65 1_555 1_555
H41 C66 1_555 1_555
C67 C62 1_555 1_555
H42 C67 1_555 1_555
C68 C69 1_555 1_555
C69 H43 1_555 1_555
C70 C69 1_555 1_555
H44 C70 1_555 1_555
C71 C70 1_555 1_555
C72 C71 1_555 1_555
H45 C72 1_555 1_555
C73 C68 1_555 1_555
H46 C73 1_555 1_555
C74 C71 1_555 1_555
Co1 N1 1_555 1_555
Co2 O15 1_555 1_555
Co3 O3 1_555 1_555
N1 C1 1_555 1_555
N2 C12 1_555 1_555
N3 C23 1_555 1_555
N4 C28 1_555 1_555
O1 C8 1_555 1_555
O2 C33 1_555 1_555
O3 C33 1_555 1_555
O4 S1 1_555 1_555
O5 S1 1_555 1_555
O6 C46 1_555 1_555
O7 C46 1_555 1_555
O8 C61 1_555 1_555
O9 C61 1_555 1_555
O10 S3 1_555 1_555
O11 S3 1_555 1_555
O12 C74 1_555 1_555
O13 C74 1_555 1_555
O14 C60 1_555 1_555
O15 C60 1_555 1_555
O16 S2 1_555 1_555
O17 S2 1_555 1_555
O18 C47 1_555 1_555
O19 C47 1_555 1_555
O20 Co3 1_555 1_555
H47 O20 1_555 1_555
H48 O20 1_555 1_555
S1 C37 1_555 1_555
S2 C51 1_555 1_555
S3 C65 1_555 1_555
Co1A N3 1_555 1_555
Co1A_2 O13 1_555 1_555
Co2_2 N4 1_555 1_555
Co2_3 O7 1_555 1_555
Co2A O18 1_555 1_555
Co2A_2 N2 1_555 1_555
Co3_2 O6 1_555 1_555
Co3A O19 1_555 1_555
N2A Co2 1_555 1_555
N3A Co1 1_555 1_555
N4_2 Co2 1_555 1_555
O6_2 Co3 1_555 1_555
O7_2 Co2 1_555 1_555
O13A Co1 1_555 1_555
O18A Co2 1_555 1_555
O19A Co3 1_555 1_555
C5 N1 1_555 1_555
C10 C11 1_555 1_555
C13 C14 1_555 1_555
C16 N2 1_555 1_555
C17 O1 1_555 1_555
C21 C22 1_555 1_555
C24 C25 1_555 1_555
C27 N3 1_555 1_555
C29 C30 1_555 1_555
C32 N4 1_555 1_555
C38 C39 1_555 1_555
C40 S1 1_555 1_555
C44 C45 1_555 1_555
C52 C53 1_555 1_555
C54 S2 1_555 1_555
C58 C59 1_555 1_555
C66 C67 1_555 1_555
C68 S3 1_555 1_555
C72 C73 1_555 1_555
Co1 O2 1_555 1_555
Co1 O8 1_555 1_555
Co1 O9 1_555 1_555
Co3 O9 1_555 1_555
Co3 O14 1_555 1_555

#END
