
#######################################################################
#
#                 Cambridge Crystallographic Data Centre
#                                CCDC 
#
#######################################################################
#
# If this CIF has been generated from an entry in the Cambridge 
# Structural Database, then it will include bibliographic, chemical, 
# crystal, experimental, refinement or atomic coordinate data resulting 
# from the CCDC's data processing and validation procedures.
#
#######################################################################

data_GOSDID
_symmetry_cell_setting           triclinic
_symmetry_space_group_name_H-M   'P -1'
_symmetry_Int_Tables_number      2
_space_group_name_Hall           '-P 1'
loop_
_symmetry_equiv_pos_site_id
_symmetry_equiv_pos_as_xyz
1 x,y,z
2 -x,-y,-z
_cell_length_a                   15.8225(5)
_cell_length_b                   16.8196(5)
_cell_length_c                   28.4760(11)
_cell_angle_alpha                96.700(2)
_cell_angle_beta                 100.221(3)
_cell_angle_gamma                109.597(2)
_cell_volume                     6897.96
loop_
_atom_site_label
_atom_site_type_symbol
_atom_site_fract_x
_atom_site_fract_y
_atom_site_fract_z
O26A O 0.1644(5) -0.1288(4) 0.2583(2)
O27A O 0.0362(6) -0.1917(5) 0.2683(3)
O28A O 0.0154(10) -0.5267(15) 0.0467(7)
O29A O 0.0102(9) -0.4173(12) 0.0144(7)
C103A C 0.0736(8) -0.2593(8) 0.1974(5)
C104A C -0.0117(10) -0.2938(11) 0.1615(4)
H55A H -0.0611 -0.2774 0.1679
C105A C -0.0290(13) -0.3540(13) 0.1145(6)
H56A H -0.0881 -0.3746 0.0928
C106A C 0.0413(11) -0.3805(13) 0.1020(7)
C107A C 0.1148(12) -0.3615(11) 0.1426(6)
H57A H 0.1558 -0.3912 0.1399
C108A C 0.1363(13) -0.3007(11) 0.1890(6)
H58A H 0.1911 -0.2895 0.2129
C109A C 0.0905(11) -0.1893(9) 0.2437(4)
C110A C 0.0248(13) -0.4448(15) 0.0545(8)
Zn4A Zn -0.07312(8) -0.25938(6) 0.28924(3)
Zn5A Zn 0.17202(6) -0.02548(5) 0.31032(3)
Zn1 Zn 0.28817(7) -0.59183(5) 0.11744(3)
O1 O 0.2847(4) -0.5101(3) 0.08321(18)
C1 C 0.3180(5) -0.2175(4) -0.0211(2)
O2 O -0.3707(11) -1.2290(13) -0.4821(7)
Zn2 Zn 0.35296(9) -0.40507(7) 0.21057(4)
O3 O 0.3606(4) -0.3830(4) 0.1481(2)
C2 C 0.3054(5) -0.2504(4) -0.0708(2)
Zn3 Zn 0.27459(14) -0.76494(9) -0.22552(4)
O4 O 0.4172(9) 0.1488(7) -0.2050(4)
C3 C 0.3120(6) -0.1891(4) -0.0963(2)
H1 H 0.3071 -0.2025 -0.1303
Zn4 Zn 0.07312(8) -0.74062(6) -0.28924(3)
O5 O 0.2891(8) 0.1568(7) -0.1901(3)
C4 C 0.3262(5) -0.1029(4) -0.0748(2)
Zn5 Zn -0.17202(6) -0.97452(5) -0.31032(3)
O6 O 0.1488(6) -0.6533(4) -0.2234(2)
C5 C 0.3345(4) -0.0704(4) -0.0248(2)
Zn6 Zn -0.25754(7) -1.17382(5) -0.40692(4)
O7 O 0.2866(6) -0.6461(4) -0.1888(2)
C6 C 0.3310(5) -0.1266(4) 0.0006(2)
H2 H 0.3365 -0.1118 0.0345
O8 O 0.2917(4) 0.2960(4) 0.0857(2)
C7 C 0.3153(5) -0.2745(4) 0.0096(2)
O9 O 0.4138(3) 0.3577(3) 0.0611(2)
C8 C 0.2487(5) -0.3599(4) -0.0034(2)
H3 H 0.2043 -0.3794 -0.0335
O10 O -0.1795(4) -0.9468(3) -0.36795(18)
C9 C 0.2519(5) -0.4089(4) 0.0275(3)
H4 H 0.2110 -0.4671 0.0212
O11 O -0.2222(4) -1.0741(3) -0.43095(17)
C10 C 0.3197(5) -0.3717(4) 0.0715(2)
O12 O -0.0047(9) -0.3428(5) -0.6790(2)
C11 C 0.3847(6) -0.2848(5) 0.0852(3)
H5 H 0.4266 -0.2653 0.1161
O13 O -0.1469(8) -0.3428(5) -0.6766(3)
C12 C 0.3851(5) -0.2355(5) 0.0558(2)
H6 H 0.4270 -0.1776 0.0625
O14 O -0.0474(6) -1.1404(4) -0.6583(3)
C13 C 0.3284(6) -0.0448(5) -0.1037(2)
O15 O -0.1620(6) -1.1716(5) -0.7182(3)
C14 C 0.2679(8) -0.0029(5) -0.1069(3)
H7 H 0.2201 -0.0159 -0.0898
O16 O -0.2927(5) -0.3145(4) -0.4306(3)
C15 C 0.2769(9) 0.0556(7) -0.1340(3)
H8 H 0.2379 0.0880 -0.1370
O17 O -0.1759(6) -0.2351(5) -0.4450(3)
C16 C 0.3468(8) 0.0666(6) -0.1579(3)
O18 O -0.0694(4) -1.0103(4) -0.2917(2)
C17 C 0.4102(8) 0.0276(6) -0.1543(3)
H9 H 0.4594 0.0417 -0.1704
O19 O -0.1653(4) -1.1465(4) -0.3451(3)
C18 C 0.3986(7) -0.0280(5) -0.1281(3)
H10 H 0.4387 -0.0593 -0.1249
O20 O 0.6327(6) -1.4538(6) -0.1835(3)
C19 C 0.2863(5) -0.3447(4) -0.0996(2)
O21 O 0.5220(7) -1.5862(6) -0.2289(3)
C20 C 0.1960(5) -0.4035(4) -0.1295(2)
H11 H 0.1448 -0.3858 -0.1305
O22 O -0.1778(4) -1.3780(3) -0.1398(2)
C21 C 0.1802(5) -0.4896(4) -0.1584(2)
H12 H 0.1203 -0.5224 -0.1780
O23 O -0.2154(5) -1.5205(4) -0.1870(3)
C22 C 0.2465(6) -0.5224(4) -0.1579(2)
O24 O 0.7032(4) -1.0529(4) -0.3126(2)
C23 C 0.3368(7) -0.4652(6) -0.1305(4)
H13 H 0.3872 -0.4838 -0.1304
O25 O 0.6399(3) -1.1747(4) -0.3773(2)
C24 C 0.3552(7) -0.3784(6) -0.1022(4)
H14 H 0.4166 -0.3444 -0.0851
O26 O -0.1644(5) -0.8712(4) -0.2583(2)
C25 C 0.3441(5) 0.0241(4) 0.0009(2)
O27 O -0.0362(6) -0.8083(5) -0.2683(3)
C26 C 0.4146(5) 0.0995(4) -0.0009(2)
H15 H 0.4626 0.0959 -0.0158
O28 O -0.0154(10) -0.4733(15) -0.0467(7)
C27 C 0.4164(5) 0.1842(4) 0.0195(2)
H16 H 0.4653 0.2328 0.0159
O29 O -0.0102(9) -0.5827(12) -0.0144(7)
C28 C 0.3530(4) 0.1999(4) 0.0438(2)
O30 O 0.3721(9) -0.2767(9) 0.2457(4)
C29 C 0.2846(6) 0.1235(5) 0.0454(3)
H17 H 0.2371 0.1265 0.0610
O31 O 0.3367(13) -0.4302(14) 0.2764(5)
C30 C 0.2815(6) 0.0393(4) 0.0247(3)
H18 H 0.2319 -0.0092 0.0278
O32 O 0.3676(7) -0.7442(7) -0.2618(6)
C31 C 0.3241(5) -0.4253(5) 0.1045(3)
C32 C 0.3509(16) 0.1289(9) -0.1866(4)
C33 C 0.2291(7) -0.6131(5) -0.1917(3)
C34 C 0.3550(5) 0.2901(5) 0.0636(3)
C35 C -0.1540(5) -0.7677(4) -0.5309(2)
C36 C -0.1388(5) -0.7869(4) -0.5763(2)
C37 C -0.1262(5) -0.7222(4) -0.5971(2)
H19 H -0.1103 -0.7268 -0.6277
C38 C -0.1343(5) -0.6406(4) -0.5775(2)
C39 C -0.1550(5) -0.6226(4) -0.5322(2)
C40 C -0.1659(5) -0.6887(4) -0.5113(2)
H20 H -0.1829 -0.6857 -0.4809
C41 C -0.1639(5) -0.8311(4) -0.5031(2)
C42 C -0.2169(6) -0.9222(5) -0.5227(2)
H21 H -0.2446 -0.9416 -0.5565
C43 C -0.2253(5) -0.9753(4) -0.4939(3)
H22 H -0.2568 -1.0355 -0.5043
C44 C -0.1828(5) -0.9354(4) -0.4443(2)
C45 C -0.1261(5) -0.8428(5) -0.4233(3)
H23 H -0.0982 -0.8236 -0.3896
C46 C -0.1173(6) -0.7923(5) -0.4523(3)
H24 H -0.0826 -0.7325 -0.4421
C47 C -0.1170(5) -0.5729(4) -0.6011(2)
C48 C -0.0351(6) -0.5399(4) -0.6123(2)
H25 H 0.0110 -0.5638 -0.6046
C49 C -0.0199(7) -0.4730(5) -0.6345(3)
H26 H 0.0373 -0.4473 -0.6429
C50 C -0.0914(8) -0.4417(5) -0.6449(3)
C51 C -0.1730(7) -0.4747(6) -0.6336(3)
H27 H -0.2197 -0.4518 -0.6422
C52 C -0.1872(6) -0.5375(5) -0.6112(3)
H28 H -0.2435 -0.5604 -0.6014
C53 C -0.1300(5) -0.8731(4) -0.6022(2)
C54 C -0.0524(5) -0.8909(4) -0.5868(3)
H29 H -0.0034 -0.8533 -0.5610
C55 C -0.0480(5) -0.9705(4) -0.6118(3)
H30 H 0.0070 -0.9811 -0.6012
C56 C -0.1182(5) -1.0349(4) -0.6510(3)
C57 C -0.1953(6) -1.0190(5) -0.6679(3)
H31 H -0.2424 -1.0564 -0.6946
C58 C -0.2025(6) -0.9383(5) -0.6420(3)
H32 H -0.2581 -0.9286 -0.6521
C59 C -0.1725(5) -0.5432(4) -0.5090(2)
C60 C -0.1058(5) -0.4562(4) -0.4985(2)
H33 H -0.0474 -0.4467 -0.5059
C61 C -0.1249(5) -0.3808(4) -0.4766(3)
H34 H -0.0785 -0.3252 -0.4709
C62 C -0.2027(6) -0.3889(4) -0.4652(3)
C63 C -0.2722(6) -0.4783(6) -0.4740(4)
H35 H -0.3290 -0.4873 -0.4648
C64 C -0.2546(6) -0.5528(5) -0.4966(3)
H36 H -0.3011 -0.6084 -0.5027
C65 C -0.1961(5) -0.9927(5) -0.4123(3)
C66 C -0.0795(10) -0.3676(7) -0.6686(3)
C67 C -0.1115(7) -1.1233(6) -0.6774(4)
C68 C -0.2260(7) -0.3104(7) -0.4446(3)
C69 C 0.3223(4) -1.2504(4) -0.2664(2)
C70 C 0.3043(5) -1.3208(4) -0.2477(2)
C71 C 0.2225(5) -1.3496(4) -0.2353(2)
H37 H 0.2084 -1.4006 -0.2221
C72 C 0.1566(4) -1.3111(4) -0.2401(2)
C73 C 0.1741(4) -1.2417(4) -0.2591(2)
C74 C 0.2576(4) -1.2117(4) -0.2708(2)
H38 H 0.2725 -1.1598 -0.2831
C75 C 0.1045(4) -1.2029(4) -0.2704(2)
C76 C 0.0146(4) -1.2592(4) -0.3004(2)
H39 H 0.0006 -1.3190 -0.3100
C77 C -0.0476(5) -1.2234(4) -0.3141(3)
H40 H -0.1068 -1.2563 -0.3344
C78 C -0.0187(4) -1.1276(4) -0.2955(3)
C79 C 0.0677(4) -1.0735(4) -0.2665(3)
H41 H 0.0818 -1.0138 -0.2561
C80 C 0.1301(4) -1.1112(4) -0.2543(3)
H42 H 0.1902 -1.0776 -0.2353
C81 C 0.3703(5) -1.3643(5) -0.2388(2)
C82 C 0.3348(7) -1.4637(6) -0.2559(3)
H43 H 0.2726 -1.4949 -0.2729
C83 C 0.3942(7) -1.5043(7) -0.2460(3)
H44 H 0.3758 -1.5647 -0.2560
C84 C 0.4873(6) -1.4519(5) -0.2194(3)
C85 C 0.5141(9) -1.3684(8) -0.1973(4)
H45 H 0.5723 -1.3423 -0.1749
C86 C 0.4568(8) -1.3180(7) -0.2068(4)
H46 H 0.4759 -1.2589 -0.1927
C87 C 0.0747(4) -1.3421(4) -0.2218(2)
C88 C 0.0193(4) -1.4353(4) -0.2365(2)
H47 H 0.0372 -1.4718 -0.2574
C89 C -0.0576(5) -1.4672(4) -0.2194(2)
H48 H -0.0959 -1.5264 -0.2277
C90 C -0.0780(5) -1.4048(5) -0.1874(3)
C91 C -0.0209(5) -1.3119(4) -0.1712(3)
H49 H -0.0357 -1.2754 -0.1486
C92 C 0.0523(5) -1.2826(4) -0.1902(2)
H50 H 0.0893 -1.2231 -0.1830
C93 C 0.4063(4) -1.2189(4) -0.2838(2)
C94 C 0.4279(6) -1.2813(6) -0.3146(3)
H51 H 0.3918 -1.3409 -0.3212
C95 C 0.5014(6) -1.2495(7) -0.3331(3)
H52 H 0.5165 -1.2862 -0.3554
C96 C 0.5595(4) -1.1572(4) -0.3186(3)
C97 C 0.5501(9) -1.1085(10) -0.2787(4)
H53 H 0.5967 -1.0549 -0.2628
C98 C 0.4705(8) -1.1413(9) -0.2633(4)
H54 H 0.4604 -1.1079 -0.2371
C99 C -0.0894(5) -1.0911(6) -0.3120(3)
C100 C 0.5491(7) -1.5013(6) -0.2101(4)
C101 C -0.1665(6) -1.4393(5) -0.1710(3)
C102 C 0.6392(4) -1.1279(4) -0.3387(3)
C103 C -0.0736(8) -0.7407(8) -0.1974(5)
C104 C 0.0117(10) -0.7062(11) -0.1615(4)
H55 H 0.0611 -0.7226 -0.1679
C105 C 0.0290(13) -0.6460(13) -0.1145(6)
H56 H 0.0881 -0.6254 -0.0928
C106 C -0.0413(11) -0.6195(13) -0.1020(7)
C107 C -0.1148(12) -0.6385(11) -0.1426(6)
H57 H -0.1558 -0.6088 -0.1399
C108 C -0.1363(13) -0.6993(11) -0.1890(6)
H58 H -0.1911 -0.7105 -0.2129
C109 C -0.0905(11) -0.8107(9) -0.2437(4)
C110 C -0.0248(13) -0.5552(15) -0.0545(8)
Zn1A Zn -0.28817(7) -1.40817(5) -1.11744(3)
O1A O -0.2847(4) -1.4899(3) -1.08321(18)
C1A C -0.3180(5) -1.7825(4) -0.9789(2)
O2A O 0.3707(11) -0.7710(13) -0.5179(7)
Zn2A Zn -0.35296(9) -1.59493(7) -1.21057(4)
O3A O -0.3606(4) -1.6170(4) -1.1481(2)
C2A C -0.3054(5) -1.7496(4) -0.9292(2)
Zn3A Zn -0.27459(14) -1.23506(9) -0.77448(4)
O4A O -0.4172(9) -2.1488(7) -0.7950(4)
C3A C -0.3120(6) -1.8109(4) -0.9037(2)
H1A H -0.3071 -1.7975 -0.8697
Zn4A_2 Zn -0.07312(8) -1.25938(6) -0.71076(3)
O5A O -0.2891(8) -2.1568(7) -0.8099(3)
C4A C -0.3262(5) -1.8971(4) -0.9252(2)
Zn5A_2 Zn 0.17202(6) -1.02548(5) -0.68968(3)
O6A O -0.1488(6) -1.3467(4) -0.7766(2)
C5A C -0.3345(4) -1.9296(4) -0.9752(2)
Zn6A Zn 0.25754(7) -0.82618(5) -0.59308(4)
O7A O -0.2866(6) -1.3539(4) -0.8112(2)
C6A C -0.3310(5) -1.8734(4) -1.0006(2)
H2A H -0.3365 -1.8882 -1.0345
O8A O -0.2917(4) -2.2960(4) -1.0857(2)
C7A C -0.3153(5) -1.7255(4) -1.0096(2)
O9A O -0.4138(3) -2.3577(3) -1.0611(2)
C8A C -0.2487(5) -1.6401(4) -0.9966(2)
H3A H -0.2043 -1.6206 -0.9665
O10A O 0.1795(4) -1.0532(3) -0.63205(18)
C9A C -0.2519(5) -1.5911(4) -1.0275(3)
H4A H -0.2110 -1.5329 -1.0212
O11A O 0.2222(4) -0.9259(3) -0.56905(17)
C10A C -0.3197(5) -1.6283(4) -1.0715(2)
O12A O 0.0047(9) -1.6572(5) -0.3210(2)
C11A C -0.3847(6) -1.7152(5) -1.0852(3)
H5A H -0.4266 -1.7347 -1.1161
O13A O 0.1469(8) -1.6572(5) -0.3234(3)
C12A C -0.3851(5) -1.7645(5) -1.0558(2)
H6A H -0.4270 -1.8224 -1.0625
O14A O 0.0474(6) -0.8596(4) -0.3417(3)
C13A C -0.3284(6) -1.9552(5) -0.8963(2)
O15A O 0.1620(6) -0.8284(5) -0.2818(3)
C14A C -0.2679(8) -1.9971(5) -0.8931(3)
H7A H -0.2201 -1.9841 -0.9102
O16A O 0.2927(5) -1.6855(4) -0.5694(3)
C15A C -0.2769(9) -2.0556(7) -0.8660(3)
H8A H -0.2379 -2.0880 -0.8630
O17A O 0.1759(6) -1.7649(5) -0.5550(3)
C16A C -0.3468(8) -2.0666(6) -0.8421(3)
O18A O 0.0694(4) -0.9897(4) -0.7083(2)
C17A C -0.4102(8) -2.0276(6) -0.8457(3)
H9A H -0.4594 -2.0417 -0.8296
O19A O 0.1653(4) -0.8535(4) -0.6549(3)
C18A C -0.3986(7) -1.9720(5) -0.8719(3)
H10A H -0.4387 -1.9407 -0.8751
O20A O -0.6327(6) -0.5462(6) -0.8165(3)
C19A C -0.2863(5) -1.6553(4) -0.9004(2)
O21A O -0.5220(7) -0.4138(6) -0.7711(3)
C20A C -0.1960(5) -1.5965(4) -0.8705(2)
H11A H -0.1448 -1.6142 -0.8695
O22A O 0.1778(4) -0.6220(3) -0.8602(2)
C21A C -0.1802(5) -1.5104(4) -0.8416(2)
H12A H -0.1203 -1.4776 -0.8220
O23A O 0.2154(5) -0.4795(4) -0.8130(3)
C22A C -0.2465(6) -1.4776(4) -0.8421(2)
O24A O -0.7032(4) -0.9471(4) -0.6874(2)
C23A C -0.3368(7) -1.5348(6) -0.8695(4)
H13A H -0.3872 -1.5162 -0.8696
O25A O -0.6399(3) -0.8253(4) -0.6227(2)
C24A C -0.3552(7) -1.6216(6) -0.8978(4)
H14A H -0.4166 -1.6556 -0.9149
C25A C -0.3441(5) -2.0241(4) -1.0009(2)
C26A C -0.4146(5) -2.0995(4) -0.9991(2)
H15A H -0.4626 -2.0959 -0.9842
C27A C -0.4164(5) -2.1842(4) -1.0195(2)
H16A H -0.4653 -2.2328 -1.0159
C28A C -0.3530(4) -2.1999(4) -1.0438(2)
O30A O -0.3721(9) -1.7233(9) -1.2457(4)
C29A C -0.2846(6) -2.1235(5) -1.0454(3)
H17A H -0.2371 -2.1265 -1.0610
O31A O -0.3367(13) -1.5698(14) -1.2764(5)
C30A C -0.2815(6) -2.0393(4) -1.0247(3)
H18A H -0.2319 -1.9908 -1.0278
O32A O -0.3676(7) -1.2558(7) -0.7382(6)
C31A C -0.3241(5) -1.5747(5) -1.1045(3)
C32A C -0.3509(16) -2.1289(9) -0.8134(4)
C33A C -0.2291(7) -1.3869(5) -0.8083(3)
C34A C -0.3550(5) -2.2901(5) -1.0636(3)
C35A C 0.1540(5) -1.2323(4) -0.4691(2)
C36A C 0.1388(5) -1.2131(4) -0.4237(2)
C37A C 0.1262(5) -1.2778(4) -0.4029(2)
H19A H 0.1103 -1.2732 -0.3723
C38A C 0.1343(5) -1.3594(4) -0.4225(2)
C39A C 0.1550(5) -1.3774(4) -0.4678(2)
C40A C 0.1659(5) -1.3113(4) -0.4887(2)
H20A H 0.1829 -1.3143 -0.5191
C41A C 0.1639(5) -1.1689(4) -0.4969(2)
C42A C 0.2169(6) -1.0778(5) -0.4773(2)
H21A H 0.2446 -1.0584 -0.4435
C43A C 0.2253(5) -1.0247(4) -0.5061(3)
H22A H 0.2568 -0.9645 -0.4957
C44A C 0.1828(5) -1.0646(4) -0.5557(2)
C45A C 0.1261(5) -1.1572(5) -0.5767(3)
H23A H 0.0982 -1.1764 -0.6104
C46A C 0.1173(6) -1.2077(5) -0.5477(3)
H24A H 0.0826 -1.2675 -0.5579
C47A C 0.1170(5) -1.4271(4) -0.3989(2)
C48A C 0.0351(6) -1.4601(4) -0.3877(2)
H25A H -0.0110 -1.4362 -0.3954
C49A C 0.0199(7) -1.5270(5) -0.3655(3)
H26A H -0.0373 -1.5527 -0.3571
C50A C 0.0914(8) -1.5583(5) -0.3551(3)
C51A C 0.1730(7) -1.5253(6) -0.3664(3)
H27A H 0.2197 -1.5482 -0.3578
C52A C 0.1872(6) -1.4625(5) -0.3888(3)
H28A H 0.2435 -1.4396 -0.3986
C53A C 0.1300(5) -1.1269(4) -0.3978(2)
C54A C 0.0524(5) -1.1091(4) -0.4132(3)
H29A H 0.0034 -1.1467 -0.4390
C55A C 0.0480(5) -1.0295(4) -0.3882(3)
H30A H -0.0070 -1.0189 -0.3988
C56A C 0.1182(5) -0.9651(4) -0.3490(3)
C57A C 0.1953(6) -0.9810(5) -0.3321(3)
H31A H 0.2424 -0.9436 -0.3054
C58A C 0.2025(6) -1.0617(5) -0.3580(3)
H32A H 0.2581 -1.0714 -0.3479
C59A C 0.1725(5) -1.4568(4) -0.4910(2)
C60A C 0.1058(5) -1.5438(4) -0.5015(2)
H33A H 0.0474 -1.5533 -0.4941
C61A C 0.1249(5) -1.6192(4) -0.5234(3)
H34A H 0.0785 -1.6748 -0.5291
C62A C 0.2027(6) -1.6111(4) -0.5348(3)
C63A C 0.2722(6) -1.5217(6) -0.5260(4)
H35A H 0.3290 -1.5127 -0.5352
C64A C 0.2546(6) -1.4472(5) -0.5034(3)
H36A H 0.3011 -1.3916 -0.4973
C65A C 0.1961(5) -1.0073(5) -0.5877(3)
C66A C 0.0795(10) -1.6324(7) -0.3314(3)
C67A C 0.1115(7) -0.8767(6) -0.3226(4)
C68A C 0.2260(7) -1.6896(7) -0.5554(3)
C69A C -0.3223(4) -0.7496(4) -0.7336(2)
C70A C -0.3043(5) -0.6792(4) -0.7523(2)
C71A C -0.2225(5) -0.6504(4) -0.7647(2)
H37A H -0.2084 -0.5994 -0.7779
C72A C -0.1566(4) -0.6889(4) -0.7599(2)
C73A C -0.1741(4) -0.7583(4) -0.7409(2)
C74A C -0.2576(4) -0.7883(4) -0.7292(2)
H38A H -0.2725 -0.8402 -0.7169
C75A C -0.1045(4) -0.7971(4) -0.7296(2)
C76A C -0.0146(4) -0.7408(4) -0.6996(2)
H39A H -0.0006 -0.6810 -0.6900
C77A C 0.0476(5) -0.7766(4) -0.6859(3)
H40A H 0.1068 -0.7437 -0.6656
C78A C 0.0187(4) -0.8724(4) -0.7045(3)
C79A C -0.0677(4) -0.9265(4) -0.7335(3)
H41A H -0.0818 -0.9862 -0.7439
C80A C -0.1301(4) -0.8888(4) -0.7457(3)
H42A H -0.1902 -0.9224 -0.7647
C81A C -0.3703(5) -0.6357(5) -0.7612(2)
C82A C -0.3348(7) -0.5363(6) -0.7441(3)
H43A H -0.2726 -0.5051 -0.7271
C83A C -0.3942(7) -0.4957(7) -0.7540(3)
H44A H -0.3758 -0.4353 -0.7440
C84A C -0.4873(6) -0.5481(5) -0.7806(3)
C85A C -0.5141(9) -0.6316(8) -0.8027(4)
H45A H -0.5723 -0.6577 -0.8251
C86A C -0.4568(8) -0.6820(7) -0.7932(4)
H46A H -0.4759 -0.7411 -0.8073
C87A C -0.0747(4) -0.6579(4) -0.7782(2)
C88A C -0.0193(4) -0.5647(4) -0.7635(2)
H47A H -0.0372 -0.5282 -0.7426
C89A C 0.0576(5) -0.5328(4) -0.7806(2)
H48A H 0.0959 -0.4736 -0.7723
C90A C 0.0780(5) -0.5952(5) -0.8126(3)
C91A C 0.0209(5) -0.6881(4) -0.8288(3)
H49A H 0.0357 -0.7246 -0.8514
C92A C -0.0523(5) -0.7174(4) -0.8098(2)
H50A H -0.0893 -0.7769 -0.8170
C93A C -0.4063(4) -0.7811(4) -0.7162(2)
C94A C -0.4279(6) -0.7187(6) -0.6854(3)
H51A H -0.3918 -0.6591 -0.6788
C95A C -0.5014(6) -0.7505(7) -0.6669(3)
H52A H -0.5165 -0.7138 -0.6446
C96A C -0.5595(4) -0.8428(4) -0.6814(3)
C97A C -0.5501(9) -0.8915(10) -0.7213(4)
H53A H -0.5967 -0.9451 -0.7372
C98A C -0.4705(8) -0.8587(9) -0.7367(4)
H54A H -0.4604 -0.8921 -0.7629
C99A C 0.0894(5) -0.9089(6) -0.6880(3)
C100A C -0.5491(7) -0.4987(6) -0.7899(4)
C101A C 0.1665(6) -0.5607(5) -0.8290(3)
C102A C -0.6392(4) -0.8721(4) -0.6613(3)
Zn1_2 Zn -0.71183(7) -0.59183(5) -0.88256(3)
Zn1_3 Zn 0.28817(7) -0.59183(5) -0.88256(3)
Zn1_4 Zn 0.28817(7) 0.40817(5) 0.11744(3)
Zn1A_2 Zn -0.28817(7) -2.40817(5) -1.11744(3)
Zn1A_3 Zn -0.28817(7) -1.40817(5) -0.11744(3)
Zn1A_4 Zn 0.71183(7) -1.40817(5) -0.11744(3)
Zn2_2 Zn -0.64704(9) -0.40507(7) -0.78943(4)
Zn2_3 Zn 0.35296(9) -0.40507(7) -0.78943(4)
Zn2A_2 Zn -0.35296(9) -1.59493(7) -0.21057(4)
Zn2A_3 Zn 0.64704(9) -1.59493(7) -0.21057(4)
Zn3_2 Zn 0.27459(14) 0.23506(9) -0.22552(4)
Zn3A_2 Zn -0.27459(14) -2.23506(9) -0.77448(4)
Zn4_2 Zn 0.07312(8) -1.74062(6) -0.28924(3)
Zn4A_3 Zn -0.07312(8) -0.25938(6) -0.71076(3)
O5_2 O 0.2891(8) -0.8432(7) -0.1901(3)
O5A_2 O -0.2891(8) -1.1568(7) -0.8099(3)
Zn5_2 Zn 0.82798(6) -0.97452(5) -0.31032(3)
Zn5A_3 Zn -0.82798(6) -1.02548(5) -0.68968(3)
Zn6_2 Zn -0.25754(7) -0.17382(5) -0.40692(4)
Zn6_3 Zn 0.74246(7) -1.17382(5) -0.40692(4)
Zn6A_2 Zn -0.74246(7) -0.82618(5) -0.59308(4)
Zn6A_3 Zn 0.25754(7) -1.82618(5) -0.59308(4)
O8_2 O 0.2917(4) -0.7040(4) 0.0857(2)
O8A_2 O -0.2917(4) -1.2960(4) -1.0857(2)
O12_2 O -0.0047(9) -1.3428(5) -0.6790(2)
O12A_2 O 0.0047(9) -0.6572(5) -0.3210(2)
O13_2 O -0.1469(8) -1.3428(5) -0.6766(3)
O13A_2 O 0.1469(8) -0.6572(5) -0.3234(3)
O16_2 O -0.2927(5) -1.3145(4) -0.4306(3)
O16A_2 O 0.2927(5) -0.6855(4) -0.5694(3)
O17_2 O -0.1759(6) -1.2351(5) -0.4450(3)
O17A_2 O 0.1759(6) -0.7649(5) -0.5550(3)
O20_2 O -0.3673(6) -1.4538(6) -1.1835(3)
O20A_2 O 0.3673(6) -0.5462(6) 0.1835(3)
O21_2 O -0.4780(7) -1.5862(6) -1.2289(3)
O21A_2 O 0.4780(7) -0.4138(6) 0.2289(3)
O22_2 O -0.1778(4) -1.3780(3) -1.1398(2)
O22A_2 O 0.1778(4) -0.6220(3) 0.1398(2)
O23_2 O -0.2154(5) -1.5205(4) -1.1870(3)
O23A_2 O 0.2154(5) -0.4795(4) 0.1870(3)
O24_2 O -0.2968(4) -1.0529(4) -0.3126(2)
O24A_2 O 0.2968(4) -0.9471(4) -0.6874(2)
O25_2 O -0.3601(3) -1.1747(4) -0.3773(2)
O25A_2 O 0.3601(3) -0.8253(4) -0.6227(2)
O26A_2 O 0.1644(5) -1.1288(4) -0.7417(2)
O27A_2 O 0.0362(6) -1.1917(5) -0.7317(3)
loop_
_geom_bond_atom_site_label_1
_geom_bond_atom_site_label_2
_geom_bond_site_symmetry_1
_geom_bond_site_symmetry_2
Zn1 O1 1_555 1_555
O1 C31 1_555 1_555
C1 C2 1_555 1_555
O2 Zn6 1_555 1_555
Zn2 O3 1_555 1_555
O3 C31 1_555 1_555
C2 C3 1_555 1_555
Zn3 O7 1_555 1_555
O4 C32 1_555 1_555
C3 H1 1_555 1_555
Zn4 O6 1_555 1_555
O5 C32 1_555 1_555
C4 C3 1_555 1_555
Zn5 O10 1_555 1_555
O6 C33 1_555 1_555
C5 C4 1_555 1_555
Zn6 O11 1_555 1_555
O7 C33 1_555 1_555
C6 C1 1_555 1_555
H2 C6 1_555 1_555
O8 C34 1_555 1_555
C7 C1 1_555 1_555
O9 C34 1_555 1_555
C8 C7 1_555 1_555
H3 C8 1_555 1_555
O10 C65 1_555 1_555
C9 C8 1_555 1_555
H4 C9 1_555 1_555
O11 C65 1_555 1_555
C10 C9 1_555 1_555
O12 C66 1_555 1_555
C11 C10 1_555 1_555
H5 C11 1_555 1_555
O13 C66 1_555 1_555
C12 C7 1_555 1_555
H6 C12 1_555 1_555
O14 C67 1_555 1_555
C13 C4 1_555 1_555
O15 C67 1_555 1_555
C14 C13 1_555 1_555
H7 C14 1_555 1_555
O16 C68 1_555 1_555
C15 C14 1_555 1_555
H8 C15 1_555 1_555
O17 C68 1_555 1_555
C16 C15 1_555 1_555
O18 Zn5 1_555 1_555
C17 C16 1_555 1_555
H9 C17 1_555 1_555
O19 Zn6 1_555 1_555
C18 C13 1_555 1_555
H10 C18 1_555 1_555
O20 C100 1_555 1_555
C19 C2 1_555 1_555
O21 C100 1_555 1_555
C20 C19 1_555 1_555
H11 C20 1_555 1_555
O22 C101 1_555 1_555
C21 C20 1_555 1_555
H12 C21 1_555 1_555
O23 C101 1_555 1_555
C22 C21 1_555 1_555
O24 C102 1_555 1_555
C23 C22 1_555 1_555
H13 C23 1_555 1_555
O25 C102 1_555 1_555
C24 C19 1_555 1_555
H14 C24 1_555 1_555
O26 Zn5 1_555 1_555
C25 C5 1_555 1_555
O27 Zn4 1_555 1_555
C26 C25 1_555 1_555
H15 C26 1_555 1_555
O28 C110 1_555 1_555
C27 C26 1_555 1_555
H16 C27 1_555 1_555
O29 C110 1_555 1_555
C28 C27 1_555 1_555
O30 Zn2 1_555 1_555
C29 C28 1_555 1_555
H17 C29 1_555 1_555
O31 Zn2 1_555 1_555
C30 C25 1_555 1_555
H18 C30 1_555 1_555
O32 Zn3 1_555 1_555
C31 C10 1_555 1_555
C32 C16 1_555 1_555
C33 C22 1_555 1_555
C34 C28 1_555 1_555
C35 C36 1_555 1_555
C36 C37 1_555 1_555
C37 H19 1_555 1_555
C38 C37 1_555 1_555
C39 C38 1_555 1_555
C40 C35 1_555 1_555
H20 C40 1_555 1_555
C41 C35 1_555 1_555
C42 C41 1_555 1_555
H21 C42 1_555 1_555
C43 C42 1_555 1_555
H22 C43 1_555 1_555
C44 C43 1_555 1_555
C45 C44 1_555 1_555
H23 C45 1_555 1_555
C46 C41 1_555 1_555
H24 C46 1_555 1_555
C47 C38 1_555 1_555
C48 C47 1_555 1_555
H25 C48 1_555 1_555
C49 C48 1_555 1_555
H26 C49 1_555 1_555
C50 C49 1_555 1_555
C51 C50 1_555 1_555
H27 C51 1_555 1_555
C52 C47 1_555 1_555
H28 C52 1_555 1_555
C53 C36 1_555 1_555
C54 C53 1_555 1_555
H29 C54 1_555 1_555
C55 C54 1_555 1_555
H30 C55 1_555 1_555
C56 C55 1_555 1_555
C57 C56 1_555 1_555
H31 C57 1_555 1_555
C58 C53 1_555 1_555
H32 C58 1_555 1_555
C59 C39 1_555 1_555
C60 C59 1_555 1_555
H33 C60 1_555 1_555
C61 C60 1_555 1_555
H34 C61 1_555 1_555
C62 C61 1_555 1_555
C63 C62 1_555 1_555
H35 C63 1_555 1_555
C64 C59 1_555 1_555
H36 C64 1_555 1_555
C65 C44 1_555 1_555
C66 C50 1_555 1_555
C67 C56 1_555 1_555
C68 C62 1_555 1_555
C69 C70 1_555 1_555
C70 C71 1_555 1_555
C71 H37 1_555 1_555
C72 C71 1_555 1_555
C73 C72 1_555 1_555
C74 C69 1_555 1_555
H38 C74 1_555 1_555
C75 C73 1_555 1_555
C76 C75 1_555 1_555
H39 C76 1_555 1_555
C77 C76 1_555 1_555
H40 C77 1_555 1_555
C78 C77 1_555 1_555
C79 C78 1_555 1_555
H41 C79 1_555 1_555
C80 C75 1_555 1_555
H42 C80 1_555 1_555
C81 C70 1_555 1_555
C82 C81 1_555 1_555
H43 C82 1_555 1_555
C83 C82 1_555 1_555
H44 C83 1_555 1_555
C84 C83 1_555 1_555
C85 C84 1_555 1_555
H45 C85 1_555 1_555
C86 C81 1_555 1_555
H46 C86 1_555 1_555
C87 C72 1_555 1_555
C88 C87 1_555 1_555
H47 C88 1_555 1_555
C89 C88 1_555 1_555
H48 C89 1_555 1_555
C90 C89 1_555 1_555
C91 C90 1_555 1_555
H49 C91 1_555 1_555
C92 C87 1_555 1_555
H50 C92 1_555 1_555
C93 C69 1_555 1_555
C94 C93 1_555 1_555
H51 C94 1_555 1_555
C95 C94 1_555 1_555
H52 C95 1_555 1_555
C96 C95 1_555 1_555
C97 C96 1_555 1_555
H53 C97 1_555 1_555
C98 C93 1_555 1_555
H54 C98 1_555 1_555
C99 O18 1_555 1_555
C100 C84 1_555 1_555
C101 C90 1_555 1_555
C102 C96 1_555 1_555
C103 C104 1_555 1_555
C104 H55 1_555 1_555
C105 C104 1_555 1_555
H56 C105 1_555 1_555
C106 C105 1_555 1_555
C107 C106 1_555 1_555
H57 C107 1_555 1_555
C108 C103 1_555 1_555
H58 C108 1_555 1_555
C109 O26 1_555 1_555
C110 C106 1_555 1_555
Zn1A O1A 1_555 1_555
O1A C31A 1_555 1_555
C1A C2A 1_555 1_555
O2A Zn6A 1_555 1_555
Zn2A O3A 1_555 1_555
O3A C31A 1_555 1_555
C2A C3A 1_555 1_555
Zn3A O15 1_555 1_555
O4A C32A 1_555 1_555
C3A H1A 1_555 1_555
Zn4A_2 O14 1_555 1_555
O5A C32A 1_555 1_555
C4A C3A 1_555 1_555
Zn5A_2 O10A 1_555 1_555
O6A Zn4A_2 1_555 1_555
C5A C4A 1_555 1_555
Zn6A O11A 1_555 1_555
O7A Zn3A 1_555 1_555
C6A C1A 1_555 1_555
H2A C6A 1_555 1_555
O8A C34A 1_555 1_555
C7A C1A 1_555 1_555
O9A C34A 1_555 1_555
C8A C7A 1_555 1_555
H3A C8A 1_555 1_555
O10A C65A 1_555 1_555
C9A C8A 1_555 1_555
H4A C9A 1_555 1_555
O11A C65A 1_555 1_555
C10A C9A 1_555 1_555
O12A C66A 1_555 1_555
C11A C10A 1_555 1_555
H5A C11A 1_555 1_555
O13A C66A 1_555 1_555
C12A C7A 1_555 1_555
H6A C12A 1_555 1_555
O14A Zn4 1_555 1_555
C13A C4A 1_555 1_555
O15A Zn3 1_555 1_555
C14A C13A 1_555 1_555
H7A C14A 1_555 1_555
O16A C68A 1_555 1_555
C15A C14A 1_555 1_555
H8A C15A 1_555 1_555
O17A C68A 1_555 1_555
C16A C15A 1_555 1_555
O18A Zn5A_2 1_555 1_555
C17A C16A 1_555 1_555
H9A C17A 1_555 1_555
O19A Zn6A 1_555 1_555
C18A C13A 1_555 1_555
H10A C18A 1_555 1_555
O20A C100A 1_555 1_555
C19A C2A 1_555 1_555
O21A C100A 1_555 1_555
C20A C19A 1_555 1_555
H11A C20A 1_555 1_555
O22A C101A 1_555 1_555
C21A C20A 1_555 1_555
H12A C21A 1_555 1_555
O23A C101A 1_555 1_555
C22A C21A 1_555 1_555
O24A C102A 1_555 1_555
C23A C22A 1_555 1_555
H13A C23A 1_555 1_555
O25A C102A 1_555 1_555
C24A C19A 1_555 1_555
H14A C24A 1_555 1_555
C25A C5A 1_555 1_555
C26A C25A 1_555 1_555
H15A C26A 1_555 1_555
C27A C26A 1_555 1_555
H16A C27A 1_555 1_555
C28A C27A 1_555 1_555
O30A Zn2A 1_555 1_555
C29A C28A 1_555 1_555
H17A C29A 1_555 1_555
O31A Zn2A 1_555 1_555
C30A C25A 1_555 1_555
H18A C30A 1_555 1_555
O32A Zn3A 1_555 1_555
C31A C10A 1_555 1_555
C32A C16A 1_555 1_555
C33A O6A 1_555 1_555
C34A C28A 1_555 1_555
C35A C36A 1_555 1_555
C36A C37A 1_555 1_555
C37A H19A 1_555 1_555
C38A C37A 1_555 1_555
C39A C38A 1_555 1_555
C40A C35A 1_555 1_555
H20A C40A 1_555 1_555
C41A C35A 1_555 1_555
C42A C41A 1_555 1_555
H21A C42A 1_555 1_555
C43A C42A 1_555 1_555
H22A C43A 1_555 1_555
C44A C43A 1_555 1_555
C45A C44A 1_555 1_555
H23A C45A 1_555 1_555
C46A C41A 1_555 1_555
H24A C46A 1_555 1_555
C47A C38A 1_555 1_555
C48A C47A 1_555 1_555
H25A C48A 1_555 1_555
C49A C48A 1_555 1_555
H26A C49A 1_555 1_555
C50A C49A 1_555 1_555
C51A C50A 1_555 1_555
H27A C51A 1_555 1_555
C52A C47A 1_555 1_555
H28A C52A 1_555 1_555
C53A C36A 1_555 1_555
C54A C53A 1_555 1_555
H29A C54A 1_555 1_555
C55A C54A 1_555 1_555
H30A C55A 1_555 1_555
C56A C55A 1_555 1_555
C57A C56A 1_555 1_555
H31A C57A 1_555 1_555
C58A C53A 1_555 1_555
H32A C58A 1_555 1_555
C59A C39A 1_555 1_555
C60A C59A 1_555 1_555
H33A C60A 1_555 1_555
C61A C60A 1_555 1_555
H34A C61A 1_555 1_555
C62A C61A 1_555 1_555
C63A C62A 1_555 1_555
H35A C63A 1_555 1_555
C64A C59A 1_555 1_555
H36A C64A 1_555 1_555
C65A C44A 1_555 1_555
C66A C50A 1_555 1_555
C67A O14A 1_555 1_555
C68A C62A 1_555 1_555
C69A C70A 1_555 1_555
C70A C71A 1_555 1_555
C71A H37A 1_555 1_555
C72A C71A 1_555 1_555
C73A C72A 1_555 1_555
C74A C69A 1_555 1_555
H38A C74A 1_555 1_555
C75A C73A 1_555 1_555
C76A C75A 1_555 1_555
H39A C76A 1_555 1_555
C77A C76A 1_555 1_555
H40A C77A 1_555 1_555
C78A C77A 1_555 1_555
C79A C78A 1_555 1_555
H41A C79A 1_555 1_555
C80A C75A 1_555 1_555
H42A C80A 1_555 1_555
C81A C70A 1_555 1_555
C82A C81A 1_555 1_555
H43A C82A 1_555 1_555
C83A C82A 1_555 1_555
H44A C83A 1_555 1_555
C84A C83A 1_555 1_555
C85A C84A 1_555 1_555
H45A C85A 1_555 1_555
C86A C81A 1_555 1_555
H46A C86A 1_555 1_555
C87A C72A 1_555 1_555
C88A C87A 1_555 1_555
H47A C88A 1_555 1_555
C89A C88A 1_555 1_555
H48A C89A 1_555 1_555
C90A C89A 1_555 1_555
C91A C90A 1_555 1_555
H49A C91A 1_555 1_555
C92A C87A 1_555 1_555
H50A C92A 1_555 1_555
C93A C69A 1_555 1_555
C94A C93A 1_555 1_555
H51A C94A 1_555 1_555
C95A C94A 1_555 1_555
H52A C95A 1_555 1_555
C96A C95A 1_555 1_555
C97A C96A 1_555 1_555
H53A C97A 1_555 1_555
C98A C93A 1_555 1_555
H54A C98A 1_555 1_555
C99A O18A 1_555 1_555
C100A C84A 1_555 1_555
C101A C90A 1_555 1_555
C102A C96A 1_555 1_555
Zn1_2 O20A 1_555 1_555
Zn1_3 O22A 1_555 1_555
Zn1_4 O8 1_555 1_555
Zn1A_2 O8A 1_555 1_555
Zn1A_3 O22 1_555 1_555
Zn1A_4 O20 1_555 1_555
Zn2_2 O20A 1_555 1_555
Zn2_3 O23A 1_555 1_555
Zn2A_2 O23 1_555 1_555
Zn2A_3 O20 1_555 1_555
Zn3_2 O5 1_555 1_555
Zn3A_2 O5A 1_555 1_555
Zn4_2 O12A 1_555 1_555
Zn4A_3 O12 1_555 1_555
O5_2 Zn3 1_555 1_555
O5A_2 Zn3A 1_555 1_555
Zn5_2 O24 1_555 1_555
Zn5A_3 O24A 1_555 1_555
Zn6_2 O16 1_555 1_555
Zn6_3 O25 1_555 1_555
Zn6A_2 O25A 1_555 1_555
Zn6A_3 O16A 1_555 1_555
O8_2 Zn1 1_555 1_555
O8A_2 Zn1A 1_555 1_555
O12_2 Zn4A_2 1_555 1_555
O12A_2 Zn4 1_555 1_555
O13_2 Zn4A_2 1_555 1_555
O13A_2 Zn4 1_555 1_555
O16_2 Zn6 1_555 1_555
O16A_2 Zn6A 1_555 1_555
O17_2 Zn6 1_555 1_555
O17A_2 Zn6A 1_555 1_555
O20_2 Zn1A 1_555 1_555
O20A_2 Zn1 1_555 1_555
O21_2 Zn2A 1_555 1_555
O21A_2 Zn2 1_555 1_555
O22_2 Zn1A 1_555 1_555
O22A_2 Zn1 1_555 1_555
O23_2 Zn2A 1_555 1_555
O23A_2 Zn2 1_555 1_555
O24_2 Zn5 1_555 1_555
O24A_2 Zn5A_2 1_555 1_555
O25_2 Zn6 1_555 1_555
O25A_2 Zn6A 1_555 1_555
O26A_2 Zn5A_2 1_555 1_555
O27A_2 Zn4A_2 1_555 1_555
O26A C109A 1_555 1_555
O27A C109A 1_555 1_555
O28A C110A 1_555 1_555
O29A C110A 1_555 1_555
C103A C104A 1_555 1_555
C104A H55A 1_555 1_555
C105A C104A 1_555 1_555
H56A C105A 1_555 1_555
C106A C105A 1_555 1_555
C107A C106A 1_555 1_555
H57A C107A 1_555 1_555
C108A C103A 1_555 1_555
H58A C108A 1_555 1_555
C109A C103A 1_555 1_555
C110A C106A 1_555 1_555
Zn4A O27A 1_555 1_555
Zn5A O26A 1_555 1_555
Zn2 O20A_2 1_555 1_555
Zn4 O15A 1_555 1_555
C5 C6 1_555 1_555
C11 C12 1_555 1_555
O13 Zn4A_3 1_555 1_555
O15 Zn4A_2 1_555 1_555
O17 Zn6_2 1_555 1_555
C17 C18 1_555 1_555
O19 C99 1_555 1_555
O21 Zn2A_3 1_555 1_555
C23 C24 1_555 1_555
O27 C109 1_555 1_555
C29 C30 1_555 1_555
C39 C40 1_555 1_555
C45 C46 1_555 1_555
C51 C52 1_555 1_555
C57 C58 1_555 1_555
C63 C64 1_555 1_555
C73 C74 1_555 1_555
C78 C99 1_555 1_555
C79 C80 1_555 1_555
C85 C86 1_555 1_555
C91 C92 1_555 1_555
C97 C98 1_555 1_555
C103 C109 1_555 1_555
C107 C108 1_555 1_555
Zn2A O20_2 1_555 1_555
C5A C6A 1_555 1_555
O7A C33A 1_555 1_555
C11A C12A 1_555 1_555
O13A Zn4_2 1_555 1_555
O15A C67A 1_555 1_555
O17A Zn6A_3 1_555 1_555
C17A C18A 1_555 1_555
O19A C99A 1_555 1_555
O21A Zn2_2 1_555 1_555
C22A C33A 1_555 1_555
C23A C24A 1_555 1_555
C29A C30A 1_555 1_555
C39A C40A 1_555 1_555
C45A C46A 1_555 1_555
C51A C52A 1_555 1_555
C56A C67A 1_555 1_555
C57A C58A 1_555 1_555
C63A C64A 1_555 1_555
C73A C74A 1_555 1_555
C78A C99A 1_555 1_555
C79A C80A 1_555 1_555
C85A C86A 1_555 1_555
C91A C92A 1_555 1_555
C97A C98A 1_555 1_555
C107A C108A 1_555 1_555

#END
