
#######################################################################
#
#                 Cambridge Crystallographic Data Centre
#                                CCDC 
#
#######################################################################
#
# If this CIF has been generated from an entry in the Cambridge 
# Structural Database, then it will include bibliographic, chemical, 
# crystal, experimental, refinement or atomic coordinate data resulting 
# from the CCDC's data processing and validation procedures.
#
#######################################################################

data_GOVXIA
_symmetry_cell_setting           monoclinic
_symmetry_space_group_name_H-M   'P 21/c'
_symmetry_Int_Tables_number      14
_space_group_name_Hall           '-P 2ybc'
loop_
_symmetry_equiv_pos_site_id
_symmetry_equiv_pos_as_xyz
1 x,y,z
2 -x,1/2+y,1/2-z
3 -x,-y,-z
4 x,1/2-y,1/2+z
_cell_length_a                   13.6257(7)
_cell_length_b                   25.2675(12)
_cell_length_c                   16.8185(8)
_cell_angle_alpha                90
_cell_angle_beta                 105.815(2)
_cell_angle_gamma                90
_cell_volume                     5571.21
loop_
_atom_site_label
_atom_site_type_symbol
_atom_site_fract_x
_atom_site_fract_y
_atom_site_fract_z
Co1 Co 0.10481(2) 0.281760(13) 0.090942(18)
Co2 Co 0.25295(2) 0.244250(12) 0.260472(18)
O1 O -0.25994(14) 0.20592(8) -0.28590(10)
O2 O -0.36420(14) 0.17792(9) -0.86288(11)
O3 O 0.16714(12) 0.21257(6) 0.13306(9)
O4 O 0.00394(12) 0.20045(7) 0.12490(10)
O5 O 0.13573(15) -0.03853(7) 0.10044(12)
O6 O -0.03366(13) -0.17596(7) 0.34638(10)
O7 O -0.14025(12) -0.20399(6) 0.22813(10)
O8 O 0.35007(12) 0.17504(6) 0.26578(10)
O9 O 0.21001(12) 0.17393(6) 0.30650(10)
O10 O 0.36134(14) -0.05955(7) 0.41064(12)
O11 O 0.77273(12) -0.17723(6) 0.41311(10)
O12 O 0.66672(12) -0.21147(6) 0.29831(10)
N1 N 0.02207(14) 0.27599(8) -0.02847(11)
N2 N -0.12736(15) 0.26282(8) -0.27981(12)
H1 H -0.1014 0.2832 -0.3114
N3 N -0.52489(16) 0.20411(9) -0.86765(12)
H2 H -0.5668 0.2089 -0.8366
N4 N -0.66405(14) 0.23303(7) -1.11883(11)
C1 C -0.05722(18) 0.24257(10) -0.05463(14)
H3 H -0.0763 0.2214 -0.0145
C2 C -0.11233(17) 0.23721(10) -0.13608(14)
H4 H -0.1683 0.2134 -0.1513
C3 C -0.08413(17) 0.26750(9) -0.19581(13)
C4 C -0.00277(18) 0.30292(9) -0.16916(14)
H5 H 0.0174 0.3248 -0.2078
C5 C 0.04758(18) 0.30571(9) -0.08652(14)
H6 H 0.1030 0.3297 -0.0694
C6 C -0.20662(18) 0.23004(10) -0.32061(14)
C7 C -0.21704(19) 0.22752(11) -0.41224(14)
H7 H -0.1486 0.2215 -0.4204
H8 H -0.2417 0.2623 -0.4370
C8 C -0.2886(2) 0.18485(11) -0.45838(14)
H9 H -0.3583 0.1913 -0.4533
H10 H -0.2657 0.1498 -0.4338
C9 C -0.2900(2) 0.18485(11) -0.54944(15)
H11 H -0.2190 0.1816 -0.5534
H12 H -0.3170 0.2193 -0.5741
C10 C -0.3538(2) 0.14051(12) -0.59999(16)
H13 H -0.4249 0.1435 -0.5964
H14 H -0.3267 0.1060 -0.5760
C11 C -0.3536(2) 0.14209(11) -0.69122(15)
H15 H -0.2824 0.1408 -0.6949
H16 H -0.3897 0.1106 -0.7199
C12 C -0.4052(2) 0.19196(12) -0.73401(15)
H17 H -0.4701 0.1973 -0.7193
H18 H -0.3608 0.2228 -0.7131
C13 C -0.42735(19) 0.19009(11) -0.82682(14)
C14 C -0.56668(18) 0.21187(9) -0.95261(14)
C15 C -0.51096(19) 0.21481(11) -1.01085(15)
H19 H -0.4392 0.2096 -0.9951
C16 C -0.56309(19) 0.22544(11) -1.09213(15)
H20 H -0.5248 0.2275 -1.1315
C17 C -0.71643(17) 0.22969(9) -1.06217(14)
H21 H -0.7881 0.2351 -1.0796
C18 C -0.67195(17) 0.21878(9) -0.98005(14)
H22 H -0.7126 0.2160 -0.9425
C19 C 0.08936(17) 0.18146(9) 0.12960(12)
C20 C 0.10511(17) 0.12352(9) 0.12658(13)
C21 C 0.02857(19) 0.08992(10) 0.13649(17)
H23 H -0.0306 0.1044 0.1478
C22 C 0.0376(2) 0.03571(10) 0.13002(18)
H24 H -0.0142 0.0128 0.1380
C23 C 0.12329(19) 0.01517(9) 0.11173(15)
C24 C 0.20082(19) 0.04796(10) 0.10141(15)
H25 H 0.2592 0.0335 0.0889
C25 C 0.19138(18) 0.10212(9) 0.10964(15)
H26 H 0.2444 0.1249 0.1037
C26 C 0.08461(19) -0.07230(9) 0.14149(15)
C27 C -0.0005(2) -0.09913(10) 0.09653(15)
H27 H -0.0251 -0.0943 0.0385
C28 C -0.0498(2) -0.13329(10) 0.13773(15)
H28 H -0.1085 -0.1521 0.1075
C29 C -0.01413(17) -0.14021(9) 0.22266(14)
C30 C 0.0725(2) -0.11277(10) 0.26634(15)
H29 H 0.0978 -0.1175 0.3244
C31 C 0.1220(2) -0.07863(10) 0.22578(16)
H30 H 0.1810 -0.0598 0.2556
C32 C -0.06694(17) -0.17613(9) 0.26823(14)
C33 C 0.28816(17) 0.15044(9) 0.29633(13)
C34 C 0.30645(17) 0.09407(9) 0.32209(13)
C35 C 0.24012(17) 0.06797(9) 0.35925(15)
H31 H 0.1811 0.0857 0.3653
C36 C 0.25961(18) 0.01667(9) 0.38732(15)
H32 H 0.2145 -0.0009 0.4128
C37 C 0.34629(18) -0.00917(9) 0.37785(14)
C38 C 0.41131(18) 0.01538(9) 0.33878(15)
H33 H 0.4688 -0.0029 0.3307
C39 C 0.39084(18) 0.06729(9) 0.31156(14)
H34 H 0.4354 0.0846 0.2853
C40 C 0.44246(19) -0.08909(9) 0.39756(16)
C41 C 0.4300(2) -0.11555(11) 0.32420(17)
H35 H 0.3679 -0.1127 0.2816
C42 C 0.5091(2) -0.14638(11) 0.31330(16)
H36 H 0.5013 -0.1651 0.2629
C43 C 0.59973(18) -0.15025(9) 0.37520(14)
C44 C 0.6093(2) -0.12436(11) 0.44940(17)
H37 H 0.6706 -0.1276 0.4927
C45 C 0.5299(2) -0.09363(11) 0.46102(17)
H38 H 0.5360 -0.0760 0.5121
C46 C 0.68617(17) -0.18194(9) 0.36138(13)
Co1A Co -0.10481(2) -0.218240(13) 0.409058(18)
Co1A_2 Co 0.89519(2) -0.218240(13) 0.409058(18)
Co2A Co -0.25295(2) -0.255750(12) 0.239528(18)
Co2A_2 Co 0.74705(2) -0.255750(12) 0.239528(18)
Co2C Co -0.74705(2) 0.255750(12) -1.239528(18)
O6A O 0.03366(13) 0.32404(7) 0.15362(10)
O7A O 0.14025(12) 0.29601(6) 0.27187(10)
O11A O 0.22727(12) 0.32277(6) 0.08689(10)
O12A O 0.33328(12) 0.28853(6) 0.20169(10)
N4C N 0.33595(14) 0.26697(7) 0.38117(11)
O13 O -0.5245(6) 0.0650(3) -0.9100(5)
C47 C -0.5773(8) 0.0278(4) -0.9711(6)
O15 O 0.0880(7) -0.0342(3) 0.5003(5)
C49 C -0.004(3) -0.0692(17) 0.458(3)
O17 O 0.062(6) -0.029(3) 0.628(5)
C51 C 0.1240(14) -0.0545(8) 0.6985(12)
O19 O 0.3231(11) -0.1304(6) 0.0941(10)
C53 C 0.2446(10) -0.1653(5) 0.0364(8)
O20 O -0.2194(5) 0.1100(2) -0.8849(4)
C55 C -0.2350(9) 0.1060(5) -0.9584(8)
O22 O -0.633(3) 0.0643(18) -1.149(3)
C57 C -0.7087(9) 0.0660(5) -1.0958(7)
O24 O 0.232(4) 0.032(2) 0.637(3)
C59 C 0.2116(11) -0.0178(6) 0.6555(9)
O14? O -0.5397(10) 0.0117(5) -0.9406(9)
C48? C -0.495(3) 0.0317(14) -0.862(2)
O16? O 0.0377(8) -0.0823(4) 0.4963(7)
C50? C -0.0063(10) -0.0560(5) 0.5529(8)
O18? O 0.1049(19) -0.0126(11) 0.7194(17)
C52? C 0.1806(8) -0.0122(4) 0.8041(7)
C54? C 0.3488(9) -0.1847(5) 0.1450(8)
O21? O -0.2072(6) 0.1090(3) -0.8463(5)
C56? C -0.2502(11) 0.0592(6) -0.9092(9)
O23? O -0.6735(11) 0.0940(6) -1.1569(9)
C58? C -0.613(3) 0.0479(15) -1.193(2)
O25? O 0.3105(10) -0.0010(5) 0.6891(9)
C60? C 0.2888(9) 0.0153(5) 0.6165(7)
loop_
_geom_bond_atom_site_label_1
_geom_bond_atom_site_label_2
_geom_bond_site_symmetry_1
_geom_bond_site_symmetry_2
Co1 O3 1_555 1_555
Co2 O3 1_555 1_555
O1 C6 1_555 1_555
O2 C13 1_555 1_555
O3 C19 1_555 1_555
O4 C19 1_555 1_555
O5 C23 1_555 1_555
O6 C32 1_555 1_555
O7 C32 1_555 1_555
O8 Co2 1_555 1_555
O9 Co2 1_555 1_555
O10 C37 1_555 1_555
O11 C46 1_555 1_555
O12 C46 1_555 1_555
N1 Co1 1_555 1_555
N2 H1 1_555 1_555
N3 H2 1_555 1_555
N4 C16 1_555 1_555
C1 N1 1_555 1_555
H3 C1 1_555 1_555
C2 C1 1_555 1_555
H4 C2 1_555 1_555
C3 N2 1_555 1_555
C4 C3 1_555 1_555
H5 C4 1_555 1_555
C5 N1 1_555 1_555
H6 C5 1_555 1_555
C6 N2 1_555 1_555
C7 C6 1_555 1_555
H7 C7 1_555 1_555
H8 C7 1_555 1_555
C8 C7 1_555 1_555
H9 C8 1_555 1_555
H10 C8 1_555 1_555
C9 C8 1_555 1_555
H11 C9 1_555 1_555
H12 C9 1_555 1_555
C10 C9 1_555 1_555
H13 C10 1_555 1_555
H14 C10 1_555 1_555
C11 C10 1_555 1_555
H15 C11 1_555 1_555
H16 C11 1_555 1_555
C12 C11 1_555 1_555
H17 C12 1_555 1_555
H18 C12 1_555 1_555
C13 N3 1_555 1_555
C14 N3 1_555 1_555
C15 C14 1_555 1_555
H19 C15 1_555 1_555
C16 C15 1_555 1_555
H20 C16 1_555 1_555
C17 N4 1_555 1_555
H21 C17 1_555 1_555
C18 C14 1_555 1_555
H22 C18 1_555 1_555
C19 C20 1_555 1_555
C20 C21 1_555 1_555
C21 H23 1_555 1_555
C22 C21 1_555 1_555
H24 C22 1_555 1_555
C23 C22 1_555 1_555
C24 C23 1_555 1_555
H25 C24 1_555 1_555
C25 C20 1_555 1_555
H26 C25 1_555 1_555
C26 O5 1_555 1_555
C27 C26 1_555 1_555
H27 C27 1_555 1_555
C28 C27 1_555 1_555
H28 C28 1_555 1_555
C29 C28 1_555 1_555
C30 C29 1_555 1_555
H29 C30 1_555 1_555
C31 C26 1_555 1_555
H30 C31 1_555 1_555
C32 C29 1_555 1_555
C33 O8 1_555 1_555
C34 C33 1_555 1_555
C35 C34 1_555 1_555
H31 C35 1_555 1_555
C36 C35 1_555 1_555
H32 C36 1_555 1_555
C37 C36 1_555 1_555
C38 C37 1_555 1_555
H33 C38 1_555 1_555
C39 C34 1_555 1_555
H34 C39 1_555 1_555
C40 O10 1_555 1_555
C41 C40 1_555 1_555
H35 C41 1_555 1_555
C42 C41 1_555 1_555
H36 C42 1_555 1_555
C43 C42 1_555 1_555
C44 C43 1_555 1_555
H37 C44 1_555 1_555
C45 C40 1_555 1_555
H38 C45 1_555 1_555
C46 C43 1_555 1_555
O13 C47 1_555 1_555
O15 C49 1_555 1_555
O17 C51 1_555 1_555
O19 C53 1_555 1_555
O20 C55 1_555 1_555
O22 C57 1_555 1_555
O24 C59 1_555 1_555
Co1A O6 1_555 1_555
Co1A_2 O11 1_555 1_555
Co2A O7 1_555 1_555
Co2A_2 O12 1_555 1_555
Co2C N4 1_555 1_555
O6A Co1 1_555 1_555
O7A Co2 1_555 1_555
O11A Co1 1_555 1_555
O12A Co2 1_555 1_555
N4C Co2 1_555 1_555
O9 C33 1_555 1_555
C2 C3 1_555 1_555
C4 C5 1_555 1_555
C12 C13 1_555 1_555
C17 C18 1_555 1_555
C24 C25 1_555 1_555
C30 C31 1_555 1_555
C38 C39 1_555 1_555
C44 C45 1_555 1_555

#END
