
#######################################################################
#
#                 Cambridge Crystallographic Data Centre
#                                CCDC 
#
#######################################################################
#
# If this CIF has been generated from an entry in the Cambridge 
# Structural Database, then it will include bibliographic, chemical, 
# crystal, experimental, refinement or atomic coordinate data resulting 
# from the CCDC's data processing and validation procedures.
#
#######################################################################

data_GUBVUU
_symmetry_cell_setting           monoclinic
_symmetry_space_group_name_H-M   'C c'
_symmetry_Int_Tables_number      9
_space_group_name_Hall           'C -2yc'
loop_
_symmetry_equiv_pos_site_id
_symmetry_equiv_pos_as_xyz
1 x,y,z
2 x,-y,1/2+z
3 1/2+x,1/2+y,z
4 1/2+x,1/2-y,1/2+z
_cell_length_a                   21.4382(13)
_cell_length_b                   23.3175(12)
_cell_length_c                   10.798(6)
_cell_angle_alpha                90
_cell_angle_beta                 110.113(10)
_cell_angle_gamma                90
_cell_volume                     5068.59
loop_
_atom_site_label
_atom_site_type_symbol
_atom_site_fract_x
_atom_site_fract_y
_atom_site_fract_z
Co1 Co -0.8529(1) 0.0808(1) -1.0415(1)
Co2 Co -0.3413(1) 0.0807(1) -0.2797(1)
N1 N -0.3455(5) 0.3572(5) 0.3290(10)
O1 O -0.7977(4) 0.0144(4) -1.1008(9)
O2 O -0.3986(4) 0.0142(4) -0.2214(8)
N2 N -0.7588(5) 0.1012(5) -0.8991(11)
O3 O -0.8395(4) -0.0038(4) -0.9502(9)
N3 N -0.3455(6) 0.1451(4) -0.1415(10)
O4 O -0.3535(4) -0.0057(4) -0.3670(9)
N4 N -0.4351(5) 0.1038(4) -0.4254(9)
O5 O -0.9070(5) 0.1063(4) -0.9295(9)
O6 O -0.2848(5) 0.1047(4) -0.3858(9)
N5 N -0.2495(5) 0.0494(5) -0.1380(10)
C1 C -0.3495(7) 0.3708(6) 0.1989(13)
C2 C -0.7472(7) 0.0904(6) -0.7724(14)
N6 N 0.0570(5) -0.0513(4) 0.3143(10)
C3 C -0.1932(7) 0.0771(6) -0.1172(17)
N7 N -0.8049(6) -0.0232(6) -1.0233(12)
N8 N -0.3899(5) -0.0206(3) -0.3068(9)
C4 C -0.3464(9) 0.1976(6) -0.1685(13)
O7 O -0.7830(6) -0.0711(4) -1.0038(11)
C5 C -0.3478(7) 0.2439(4) -0.0905(9)
N9 N -0.3013(6) 0.1469(4) -0.4726(11)
N10 N -0.8965(6) 0.1449(5) -0.8453(13)
C6 C -0.1267(6) 0.0111(6) 0.0398(13)
O8 O -0.4155(5) -0.0691(4) -0.3156(11)
C7 C -0.0627(7) -0.0107(5) 0.1342(13)
O9 O -0.2888(6) 0.1365(4) -0.5786(10)
C8 C -0.6275(6) 0.1098(6) -0.7066(12)
C9 C -0.5602(6) 0.1116(6) -0.6087(13)
O10 O -0.9142(7) 0.1424(5) -0.7577(13)
C10 C -0.3459(8) 0.1315(5) -0.0306(14)
C11 C -0.3486(6) 0.2737(6) 0.1292(11)
C12 C -0.3485(6) 0.2293(5) 0.0319(11)
C13 C -0.5532(7) 0.1263(7) -0.4798(14)
C14 C -0.6873(7) 0.0923(7) -0.6783(14)
O11 O -0.3305(5) 0.1899(4) -0.4587(10)
C15 C -0.5102(7) 0.0979(6) -0.6471(12)
O12 O -0.8708(7) 0.1882(5) -0.8650(12)
C16 C -0.4877(8) 0.1206(8) -0.3968(13)
C17 C -0.7080(6) 0.1170(6) -0.9362(12)
C18 C -0.6460(6) 0.1197(7) -0.8421(13)
C19 C -0.4466(7) 0.0927(6) -0.5527(12)
C20 C -0.3458(8) 0.3302(7) 0.1142(13)
C21 C -0.0073(7) 0.0174(7) 0.1686(17)
C22 C -0.3389(9) 0.2995(7) 0.3591(13)
C23 C -0.3415(7) 0.1694(6) 0.0748(13)
C24 C 0.0013(7) -0.0801(6) 0.2903(12)
C25 C -0.1346(6) 0.0610(6) -0.0252(12)
C26 C -0.2438(6) 0.0014(7) -0.0735(17)
C27 C -0.0595(8) -0.0614(6) 0.2060(18)
C28 C -0.1891(7) -0.0171(7) 0.0327(18)
C29 C 0.0540(8) -0.0042(7) 0.2410(17)
C30 C -0.3356(4) 0.2639(2) 0.2579(8)
H1 H -0.3549(7) 0.4089(6) 0.1716(13)
H2 H -0.7833(7) 0.0808(6) -0.7475(14)
H3 H -0.1935(7) 0.1093(6) -0.1683(17)
H4 H -0.3460(9) 0.2063(6) -0.2523(13)
H5 H -0.3483(7) 0.2817(4) -0.1184(9)
H6 H -0.3494(8) 0.0926(5) -0.0151(14)
H7 H -0.5879(7) 0.1382(7) -0.4528(14)
H8 H -0.6833(7) 0.0822(7) -0.5925(14)
H9 H -0.5170(7) 0.0918(6) -0.7359(12)
H10 H -0.4796(8) 0.1299(8) -0.3088(13)
H11 H -0.7145(6) 0.1260(6) -1.0237(12)
H12 H -0.6117(6) 0.1294(7) -0.8724(13)
H13 H -0.4116(7) 0.0812(6) -0.5791(12)
H14 H -0.3408(8) 0.3428(7) 0.0365(13)
H15 H -0.0091(7) 0.0555(7) 0.1420(17)
H16 H -0.3367(9) 0.2855(7) 0.4410(13)
H17 H -0.3350(7) 0.1577(6) 0.1607(13)
H18 H 0.0030(7) -0.1151(6) 0.3326(12)
H19 H -0.0985(6) 0.0857(6) -0.0066(12)
H20 H -0.2800(6) -0.0233(7) -0.1011(17)
H21 H -0.0979(8) -0.0822(6) 0.1969(18)
H22 H -0.1919(7) -0.0445(7) 0.0930(18)
H23 H 0.0926(8) 0.0134(7) 0.2393(17)
H24 H -0.3220(4) 0.2266(2) 0.2845(8)
N6A N -0.9430(5) 0.0513(4) -1.1857(10)
N1C N -0.8455(5) 0.1428(5) -1.1710(10)
Co1A Co 0.1471(1) -0.0808(1) 0.4585(1)
Co1C Co -0.3529(1) 0.4192(1) 0.4585(1)
C31 C -0.5630(4) -0.1657(2) -0.6141(8)
C32 C -0.5414(4) -0.1097(2) -0.5811(8)
C33 C -0.5855(4) -0.0643(2) -0.6253(8)
C34 C -0.6512(4) -0.0748(2) -0.7025(8)
C35 C -0.6728(4) -0.1308(2) -0.7355(8)
C36 C -0.6288(4) -0.1762(2) -0.6913(8)
H25 H -0.5336(4) -0.1961(2) -0.5846(8)
H26 H -0.4975(4) -0.1027(2) -0.5294(8)
H27 H -0.5710(4) -0.0268(2) -0.6032(8)
H28 H -0.6807(4) -0.0445(2) -0.7320(8)
H29 H -0.7168(4) -0.1379(2) -0.7872(8)
H30 H -0.6432(4) -0.2137(2) -0.7134(8)
C37 C -0.6023(4) 0.2923(2) -0.3099(8)
C38 C -0.5418(4) 0.3171(2) -0.2370(8)
C39 C -0.5403(4) 0.3654(2) -0.1608(8)
C40 C -0.5992(4) 0.3890(2) -0.1574(8)
C41 C -0.6597(4) 0.3642(2) -0.2303(8)
C42 C -0.6612(4) 0.3159(2) -0.3065(8)
H31 H -0.6033(4) 0.2599(2) -0.3609(8)
H32 H -0.5024(4) 0.3013(2) -0.2392(8)
H33 H -0.4998(4) 0.3820(2) -0.1120(8)
H34 H -0.5982(4) 0.4214(2) -0.1064(8)
H35 H -0.6991(4) 0.3800(2) -0.2281(8)
H36 H -0.7017(4) 0.2993(2) -0.3553(8)
C43 C -0.5785(4) 0.2727(2) -0.8427(8)
C44 C -0.6352(4) 0.2815(2) -0.8104(8)
C45 C -0.6307(4) 0.2828(2) -0.6790(8)
C46 C -0.5696(4) 0.2752(2) -0.5797(8)
C47 C -0.5129(4) 0.2664(2) -0.6120(8)
C48 C -0.5173(4) 0.2652(2) -0.7434(8)
H37 H -0.5815(4) 0.2719(2) -0.9307(8)
H38 H -0.6761(4) 0.2866(2) -0.8768(8)
H39 H -0.6687(4) 0.2887(2) -0.6574(8)
H40 H -0.5666(4) 0.2761(2) -0.4918(8)
H41 H -0.4719(4) 0.2614(2) -0.5456(8)
H42 H -0.4794(4) 0.2593(2) -0.7650(8)
loop_
_geom_bond_atom_site_label_1
_geom_bond_atom_site_label_2
_geom_bond_site_symmetry_1
_geom_bond_site_symmetry_2
Co1 O1 1_555 1_555
Co2 O2 1_555 1_555
N1 C1 1_555 1_555
O1 N7 1_555 1_555
O2 N8 1_555 1_555
N2 Co1 1_555 1_555
O3 Co1 1_555 1_555
N3 Co2 1_555 1_555
O4 Co2 1_555 1_555
N4 Co2 1_555 1_555
O5 Co1 1_555 1_555
O6 Co2 1_555 1_555
N5 Co2 1_555 1_555
C1 C20 1_555 1_555
C2 N2 1_555 1_555
N6 C24 1_555 1_555
C3 N5 1_555 1_555
N7 O3 1_555 1_555
N8 O4 1_555 1_555
C4 N3 1_555 1_555
O7 N7 1_555 1_555
C5 C4 1_555 1_555
N9 O6 1_555 1_555
N10 O5 1_555 1_555
C6 C7 1_555 1_555
O8 N8 1_555 1_555
C7 C21 1_555 1_555
O9 N9 1_555 1_555
C8 C9 1_555 1_555
C9 C13 1_555 1_555
O10 N10 1_555 1_555
C10 N3 1_555 1_555
C11 C12 1_555 1_555
C12 C5 1_555 1_555
C13 C16 1_555 1_555
C14 C2 1_555 1_555
O11 N9 1_555 1_555
C15 C9 1_555 1_555
O12 N10 1_555 1_555
C16 N4 1_555 1_555
C17 N2 1_555 1_555
C18 C8 1_555 1_555
C19 N4 1_555 1_555
C20 C11 1_555 1_555
C21 C29 1_555 1_555
C22 N1 1_555 1_555
C23 C10 1_555 1_555
C24 C27 1_555 1_555
C25 C3 1_555 1_555
C26 N5 1_555 1_555
C27 C7 1_555 1_555
C28 C6 1_555 1_555
C29 N6 1_555 1_555
C30 C11 1_555 1_555
C31 C32 1_555 1_555
C32 C33 1_555 1_555
C33 C34 1_555 1_555
C34 C35 1_555 1_555
C35 C36 1_555 1_555
C36 C31 1_555 1_555
C37 C38 1_555 1_555
C38 C39 1_555 1_555
C39 C40 1_555 1_555
C40 C41 1_555 1_555
C41 C42 1_555 1_555
C42 C37 1_555 1_555
C43 C44 1_555 1_555
C44 C45 1_555 1_555
C45 C46 1_555 1_555
C46 C47 1_555 1_555
C47 C48 1_555 1_555
C48 C43 1_555 1_555
H1 C1 1_555 1_555
H2 C2 1_555 1_555
H3 C3 1_555 1_555
H4 C4 1_555 1_555
H5 C5 1_555 1_555
H6 C10 1_555 1_555
H7 C13 1_555 1_555
H8 C14 1_555 1_555
H9 C15 1_555 1_555
H10 C16 1_555 1_555
H11 C17 1_555 1_555
H12 C18 1_555 1_555
H13 C19 1_555 1_555
H14 C20 1_555 1_555
H15 C21 1_555 1_555
H16 C22 1_555 1_555
H17 C23 1_555 1_555
H18 C24 1_555 1_555
H19 C25 1_555 1_555
H20 C26 1_555 1_555
H21 C27 1_555 1_555
H22 C28 1_555 1_555
H23 C29 1_555 1_555
H24 C30 1_555 1_555
H25 C31 1_555 1_555
H26 C32 1_555 1_555
H27 C33 1_555 1_555
H28 C34 1_555 1_555
H29 C35 1_555 1_555
H30 C36 1_555 1_555
H31 C37 1_555 1_555
H32 C38 1_555 1_555
H33 C39 1_555 1_555
H34 C40 1_555 1_555
H35 C41 1_555 1_555
H36 C42 1_555 1_555
H37 C43 1_555 1_555
H38 C44 1_555 1_555
H39 C45 1_555 1_555
H40 C46 1_555 1_555
H41 C47 1_555 1_555
H42 C48 1_555 1_555
N6A Co1 1_555 1_555
N1C Co1 1_555 1_555
Co1A N6 1_555 1_555
Co1C N1 1_555 1_555
C6 C25 1_555 1_555
C8 C14 1_555 1_555
C12 C23 1_555 1_555
C15 C19 1_555 1_555
C17 C18 1_555 1_555
C22 C30 1_555 1_555
C26 C28 1_555 1_555

#END
