
#######################################################################
#
#                 Cambridge Crystallographic Data Centre
#                                CCDC 
#
#######################################################################
#
# If this CIF has been generated from an entry in the Cambridge 
# Structural Database, then it will include bibliographic, chemical, 
# crystal, experimental, refinement or atomic coordinate data resulting 
# from the CCDC's data processing and validation procedures.
#
#######################################################################

data_GUCHUJ
_symmetry_cell_setting           triclinic
_symmetry_space_group_name_H-M   'P 1'
_symmetry_Int_Tables_number      1
_space_group_name_Hall           'P 1'
loop_
_symmetry_equiv_pos_site_id
_symmetry_equiv_pos_as_xyz
1 x,y,z
_cell_length_a                   7.9985(11)
_cell_length_b                   9.7296(14)
_cell_length_c                   10.8506(15)
_cell_angle_alpha                84.315(2)
_cell_angle_beta                 78.168(2)
_cell_angle_gamma                75.064(2)
_cell_volume                     797.599
loop_
_atom_site_label
_atom_site_type_symbol
_atom_site_fract_x
_atom_site_fract_y
_atom_site_fract_z
Cu1 Cu 0.4147 0.6870 0.8240
Cu2 Cu 0.1613 0.5461 0.8749
Cu3 Cu 0.8040(4) 0.1282(3) 0.3454(3)
O1 O 0.4217(12) 0.6710(9) 0.6436(9)
O2 O 0.2045(12) 0.5515(9) 0.6901(9)
O3 O 0.5555(13) 0.3608(9) 0.5496(9)
O4 O 0.6456(13) 0.3073(9) 0.3460(9)
O5 O 0.1514(12) 0.5640(9) 0.0559(9)
O6 O 0.3727(12) 0.6750(9) 0.0093(9)
O7 O -0.0297(13) 0.9516(10) 0.3423(9)
O8 O 0.0249(13) 0.8803(9) 0.1465(9)
O9 O 0.7476(13) 0.1078(11) 0.1801(9)
H1 H 0.6345 0.1064 0.1867
H2 H 0.8138 0.0267 0.1462
O10 O 0.8163(16) 0.1252(11) 0.5242(10)
H3 H 0.8275 0.0373 0.5600
H4 H 0.7192 0.1811 0.5667
O11 O -0.2436(14) 0.8592(10) 0.6526(10)
O12 O -0.4274(13) 0.8298(9) 0.8331(9)
O13 O -0.0097(12) 0.7309(9) 0.8682(9)
O14 O 0.2064(12) 0.8497(9) 0.8257(9)
O15 O -0.6205(11) 1.3880(9) 0.8758(9)
O16 O -0.4074(12) 1.5014(9) 0.8218(10)
O17 O 0.0075(12) 1.4029(9) 0.8685(9)
O18 O -0.1893(12) 1.3943(9) 1.0439(9)
C1 C 0.4111(19) 0.5032(14) 0.3933(13)
C2 C 0.3747(15) 0.5090(11) 0.2675(11)
H5 H 0.4280 0.4281 0.2184
C3 C 0.2671(12) 0.6245(10) 0.2136(10)
C4 C 0.1628(17) 0.7302(13) 0.3044(12)
C5 C 0.1817(14) 0.7184(11) 0.4271(11)
H6 H 0.1066 0.7863 0.4840
C6 C 0.3078(17) 0.6097(12) 0.4705(11)
C7 C 0.317(2) 0.6093(14) 0.6139(13)
C8 C 0.545(2) 0.3794(15) 0.4372(14)
C9 C 0.260(2) 0.6276(14) 0.0851(14)
C10 C 0.0417(17) 0.8601(14) 0.2600(13)
C11 C -0.1642(17) 1.2383(13) 0.8898(12)
C12 C -0.0483(17) 1.1059(12) 0.8797(13)
H7 H 0.0677 1.0956 0.8937
C13 C -0.0952(17) 0.9862(13) 0.8496(12)
C14 C -0.2521(17) 0.9988(13) 0.8203(12)
C15 C -0.3730(18) 1.1353(13) 0.8193(13)
H8 H -0.4811 1.1442 0.7921
C16 C -0.3384(16) 1.2525(13) 0.8559(12)
C17 C -0.3104(19) 0.8807(14) 0.7663(14)
C18 C 0.0428(17) 0.8392(12) 0.8499(12)
C19 C -0.4634(17) 1.3880(12) 0.8535(12)
C20 C -0.1146(19) 1.3561(14) 0.9380(14)
O19 O 0.9955(11) 0.2690(8) 0.2258(7)
H9 H 1.0588 0.2332 0.1414
H10 H 1.0927 0.2771 0.2665
Cu1_2 Cu -0.5853 0.6870 0.8240
Cu1_3 Cu -0.5853 1.6870 0.8240
Cu1_4 Cu 0.4147 0.6870 -0.1760
Cu2_2 Cu -0.8387 1.5461 0.8749
Cu2_3 Cu 0.1613 0.5461 -0.1251
Cu2_4 Cu 0.1613 1.5461 0.8749
Cu3_2 Cu -0.1960(4) 1.1282(3) 0.3454(3)
O5_2 O 0.1514(12) 0.5640(9) 1.0559(9)
O6_2 O 0.3727(12) 0.6750(9) 1.0093(9)
O7_2 O 0.9703(13) -0.0484(10) 0.3423(9)
O12_2 O 0.5726(13) 0.8298(9) 0.8331(9)
O15_2 O 0.3795(11) 0.3880(9) 0.8758(9)
O16_2 O 0.5926(12) 0.5014(9) 0.8218(10)
O17_2 O 0.0075(12) 0.4029(9) 0.8685(9)
N1 N 0.7592(13) 0.6327(11) 0.1713(9)
H11 H 0.8100 0.5719 0.1119
N2 N 0.5378(12) 0.9004(9) 0.4581(9)
H12 H 0.5875 0.8635 0.5230
N3 N 0.1528(12) 1.2705(10) 0.5522(11)
H13 H 0.0693 1.3478 0.5730
C21 C 0.8018(17) 0.6019(14) 0.2863(13)
H14 H 0.8794 0.5131 0.3029
C22 C 0.7341(15) 0.6979(14) 0.3806(12)
H15 H 0.7732 0.6794 0.4589
C23 C 0.6031(15) 0.8269(11) 0.3585(11)
C24 C 0.5613(14) 0.8508(13) 0.2397(11)
H16 H 0.4764 0.9347 0.2218
C25 C 0.6426(18) 0.7524(14) 0.1431(15)
H17 H 0.6149 0.7710 0.0611
C26 C 0.2250(16) 1.1913(13) 0.6401(12)
H18 H 0.1940 1.2206 0.7245
C27 C 0.3500(15) 1.0611(13) 0.6099(11)
H19 H 0.3951 0.9987 0.6749
C28 C 0.4062(13) 1.0252(12) 0.4854(11)
C29 C 0.3272(18) 1.1195(13) 0.3946(13)
H20 H 0.3623 1.0995 0.3078
C30 C 0.2017(19) 1.2380(14) 0.4306(14)
H21 H 0.1471 1.2994 0.3689
O20 O 0.3226(12) -0.0042(11) 0.0274(9)
H22 H 0.3851 -0.0774 -0.0152
H23 H 0.2624 0.0567 -0.0213
O21 O 0.8866(13) 0.5103(10) 0.6120(10)
H24 H 0.8562 0.5653 0.5479
H25 H 0.9601 0.5427 0.6431
O22 O 0.331(2) 0.2262(16) 0.1135(14)
H26 H 0.2609 0.2803 0.1715
H27 H 0.2706 0.1835 0.0790
loop_
_geom_bond_atom_site_label_1
_geom_bond_atom_site_label_2
_geom_bond_site_symmetry_1
_geom_bond_site_symmetry_2
Cu1 Cu2 1_555 1_555
Cu2 O2 1_555 1_555
Cu3 O4 1_555 1_555
O1 Cu1 1_555 1_555
O2 C7 1_555 1_555
O3 C8 1_555 1_555
O4 C8 1_555 1_555
O5 C9 1_555 1_555
O6 C9 1_555 1_555
O7 C10 1_555 1_555
O8 C10 1_555 1_555
O9 Cu3 1_555 1_555
H1 O9 1_555 1_555
H2 O9 1_555 1_555
O10 Cu3 1_555 1_555
H3 O10 1_555 1_555
H4 O10 1_555 1_555
O11 C17 1_555 1_555
O12 C17 1_555 1_555
O13 Cu2 1_555 1_555
O14 Cu1 1_555 1_555
O15 C19 1_555 1_555
O16 C19 1_555 1_555
O17 C20 1_555 1_555
O18 C20 1_555 1_555
C1 C2 1_555 1_555
C2 H5 1_555 1_555
C3 C2 1_555 1_555
C4 C3 1_555 1_555
C5 C4 1_555 1_555
H6 C5 1_555 1_555
C6 C1 1_555 1_555
C7 O1 1_555 1_555
C8 C1 1_555 1_555
C9 C3 1_555 1_555
C10 C4 1_555 1_555
C11 C12 1_555 1_555
C12 H7 1_555 1_555
C13 C12 1_555 1_555
C14 C13 1_555 1_555
C15 C14 1_555 1_555
H8 C15 1_555 1_555
C16 C11 1_555 1_555
C17 C14 1_555 1_555
C18 O13 1_555 1_555
C19 C16 1_555 1_555
C20 C11 1_555 1_555
O19 Cu3 1_555 1_555
H9 O19 1_555 1_555
H10 O19 1_555 1_555
N1 H11 1_555 1_555
N2 H12 1_555 1_555
N3 H13 1_555 1_555
C21 N1 1_555 1_555
H14 C21 1_555 1_555
C22 C21 1_555 1_555
H15 C22 1_555 1_555
C23 N2 1_555 1_555
C24 C23 1_555 1_555
H16 C24 1_555 1_555
C25 N1 1_555 1_555
H17 C25 1_555 1_555
C26 N3 1_555 1_555
H18 C26 1_555 1_555
C27 C26 1_555 1_555
H19 C27 1_555 1_555
C28 N2 1_555 1_555
C29 C28 1_555 1_555
H20 C29 1_555 1_555
C30 N3 1_555 1_555
H21 C30 1_555 1_555
O20 H22 1_555 1_555
H23 O20 1_555 1_555
O21 H24 1_555 1_555
H25 O21 1_555 1_555
O22 H26 1_555 1_555
H27 O22 1_555 1_555
Cu1_2 O12 1_555 1_555
Cu1_3 O16 1_555 1_555
Cu1_4 O6 1_555 1_555
Cu2_2 O15 1_555 1_555
Cu2_3 O5 1_555 1_555
Cu2_4 O17 1_555 1_555
Cu3_2 O7 1_555 1_555
O5_2 Cu2 1_555 1_555
O6_2 Cu1 1_555 1_555
O7_2 Cu3 1_555 1_555
O12_2 Cu1 1_555 1_555
O15_2 Cu2 1_555 1_555
O16_2 Cu1 1_555 1_555
O17_2 Cu2 1_555 1_555
O14 C18 1_555 1_555
C5 C6 1_555 1_555
C6 C7 1_555 1_555
C13 C18 1_555 1_555
C15 C16 1_555 1_555
C22 C23 1_555 1_555
C24 C25 1_555 1_555
C27 C28 1_555 1_555
C29 C30 1_555 1_555
Cu1_3 Cu2_2 1_555 1_555
Cu1_4 Cu2_3 1_555 1_555

#END
