
#######################################################################
#
#                 Cambridge Crystallographic Data Centre
#                                CCDC 
#
#######################################################################
#
# If this CIF has been generated from an entry in the Cambridge 
# Structural Database, then it will include bibliographic, chemical, 
# crystal, experimental, refinement or atomic coordinate data resulting 
# from the CCDC's data processing and validation procedures.
#
#######################################################################

data_GUFBOA
_symmetry_cell_setting           triclinic
_symmetry_space_group_name_H-M   'P -1'
_symmetry_Int_Tables_number      2
_space_group_name_Hall           '-P 1'
loop_
_symmetry_equiv_pos_site_id
_symmetry_equiv_pos_as_xyz
1 x,y,z
2 -x,-y,-z
_cell_length_a                   9.005(3)
_cell_length_b                   12.573(4)
_cell_length_c                   19.675(7)
_cell_angle_alpha                82.313(5)
_cell_angle_beta                 79.259(6)
_cell_angle_gamma                86.749(5)
_cell_volume                     2167.75
loop_
_atom_site_label
_atom_site_type_symbol
_atom_site_fract_x
_atom_site_fract_y
_atom_site_fract_z
C1 C 0.8512(7) -0.2264(4) 0.8996(3)
C2 C 0.8634(7) -0.1463(4) 0.8356(3)
C3 C 0.9587(8) -0.1643(5) 0.7737(3)
H1 H 1.0257 -0.2234 0.7730
C4 C 0.9544(8) -0.0959(5) 0.7142(3)
H2 H 1.0167 -0.1107 0.6730
C5 C 0.8602(7) -0.0052(5) 0.7133(3)
C6 C 0.7662(8) 0.0134(5) 0.7747(3)
H3 H 0.7001 0.0730 0.7753
C7 C 0.7690(8) -0.0553(5) 0.8351(3)
H4 H 0.7066 -0.0404 0.8762
C8 C 0.8508(8) 0.0645(5) 0.6480(3)
C9 C 0.8504(8) 0.1723(5) 0.6380(3)
C10 C 0.9714(8) 0.4624(5) 0.8212(3)
C11 C 0.9859(8) 0.2196(5) 0.7286(3)
H5 H 1.0388 0.1539 0.7277
C12 C 1.0126(8) 0.2893(5) 0.7730(4)
H6 H 1.0817 0.2704 0.8026
C13 C 0.9351(8) 0.3882(5) 0.7730(3)
C14 C 0.8339(8) 0.4156(5) 0.7297(4)
H7 H 0.7838 0.4824 0.7297
C15 C 0.8049(8) 0.3466(5) 0.6864(4)
H8 H 0.7343 0.3660 0.6576
C16 C 0.8810(8) 0.2464(5) 0.6852(3)
C17 C 0.7810(9) 0.1143(5) 0.5258(4)
C18 C 0.7360(9) 0.1115(5) 0.4665(3)
C19 C 0.6513(8) 0.0565(5) 0.3564(3)
C20 C 0.6317(8) -0.0183(5) 0.3078(3)
C21 C 0.5660(8) -0.1161(5) 0.3340(3)
H9 H 0.5299 -0.1312 0.3816
C22 C 0.5535(8) -0.1910(5) 0.2906(3)
H10 H 0.5067 -0.2554 0.3086
C23 C 0.6108(7) -0.1700(5) 0.2200(3)
C24 C 0.6762(7) -0.0732(5) 0.1944(3)
H11 H 0.7142 -0.0585 0.1470
C25 C 0.6866(8) 0.0018(5) 0.2376(3)
H12 H 0.7311 0.0668 0.2192
C26 C 0.6431(8) 0.1648(5) 0.3471(3)
C27 C 0.6029(7) 0.2361(4) 0.2880(3)
C28 C 0.4792(8) 0.2164(5) 0.2587(4)
H13 H 0.4222 0.1563 0.2766
C29 C 0.4403(8) 0.2849(5) 0.2034(4)
H14 H 0.3589 0.2696 0.1838
C30 C 0.5210(7) 0.3755(4) 0.1770(3)
C31 C 0.6412(7) 0.3970(5) 0.2071(3)
H15 H 0.6953 0.4589 0.1904
C32 C 0.6823(8) 0.3271(5) 0.2620(3)
H16 H 0.7643 0.3422 0.2812
C33 C 0.4808(7) 0.4487(4) 0.1173(3)
C34 C 0.6016(7) -0.2502(5) 0.1722(3)
C35 C 0.2695(8) -0.2856(5) 0.0264(4)
H17 H 0.2647 -0.3600 0.0337
C36 C 0.1364(9) -0.2266(6) 0.0294(5)
H18 H 0.0441 -0.2601 0.0385
C37 C 0.1429(8) -0.1151(5) 0.0183(4)
C38 C 0.2826(8) -0.0727(5) 0.0029(4)
H19 H 0.2916 0.0014 -0.0071
C39 C 0.4109(8) -0.1381(5) 0.0019(4)
H20 H 0.5050 -0.1068 -0.0076
C40 C -0.0014(8) -0.0455(6) 0.0266(5)
H21 H -0.0860 -0.0892 0.0254
H22 H -0.0177 -0.0200 0.0718
Cd1 Cd 0.62347(5) -0.34071(3) 0.01739(2)
N1 N 0.4045(6) -0.2433(4) 0.0139(3)
O1 O 0.9380(5) -0.3104(3) 0.8972(2)
O2 O 0.7600(5) -0.2062(3) 0.9527(2)
O3 O 0.9133(6) 0.5599(4) 0.8079(3)
H23 H 0.9367 0.5985 0.8364
O4 O 1.0450(6) 0.4356(4) 0.8653(2)
O5 O 0.5452(7) -0.3406(4) 0.2035(2)
H24 H 0.4613 -0.3464 0.1941
O6 O 0.6489(5) -0.2344(3) 0.1097(2)
O7 O 0.4113(5) 0.4161(4) 0.0766(2)
O8 O 0.5231(5) 0.5449(3) 0.1101(2)
O9 O 0.8374(5) -0.4447(3) 0.0162(2)
H25 H 0.9141 -0.4160 -0.0215
H26 H 0.8716 -0.4453 0.0596
S1 S 0.6972(3) 0.22899(13) 0.41216(10)
S2 S 0.7081(3) -0.00574(13) 0.43336(9)
S3 S 0.8210(3) -0.00167(13) 0.57984(9)
S4 S 0.8160(3) 0.23345(13) 0.55584(9)
C35A C -0.2695(8) 0.2856(5) -0.0264(4)
H17A H -0.2647 0.3600 -0.0337
C36A C -0.1364(9) 0.2266(6) -0.0294(5)
H18A H -0.0441 0.2601 -0.0385
C37A C -0.1429(8) 0.1151(5) -0.0183(4)
C38A C -0.2826(8) 0.0727(5) -0.0029(4)
H19A H -0.2916 -0.0014 0.0071
C39A C -0.4109(8) 0.1381(5) -0.0019(4)
H20A H -0.5050 0.1068 0.0076
C40A C 0.0014(8) 0.0455(6) -0.0266(5)
H21A H 0.0860 0.0892 -0.0254
H22A H 0.0177 0.0200 -0.0718
N1A N -0.4045(6) 0.2433(4) -0.0139(3)
C1A C -0.8512(7) 0.2264(4) -0.8996(3)
C2A C -0.8634(7) 0.1463(4) -0.8356(3)
C3A C -0.9587(8) 0.1643(5) -0.7737(3)
H1A H -1.0257 0.2234 -0.7730
C4A C -0.9544(8) 0.0959(5) -0.7142(3)
H2A H -1.0167 0.1107 -0.6730
C5A C -0.8602(7) 0.0052(5) -0.7133(3)
C6A C -0.7662(8) -0.0134(5) -0.7747(3)
H3A H -0.7001 -0.0730 -0.7753
C7A C -0.7690(8) 0.0553(5) -0.8351(3)
H4A H -0.7066 0.0404 -0.8762
C8A C -0.8508(8) -0.0645(5) -0.6480(3)
C9A C -0.8504(8) -0.1723(5) -0.6380(3)
C10A C -0.9714(8) -0.4624(5) -0.8212(3)
C11A C -0.9859(8) -0.2196(5) -0.7286(3)
H5A H -1.0388 -0.1539 -0.7277
C12A C -1.0126(8) -0.2893(5) -0.7730(4)
H6A H -1.0817 -0.2704 -0.8026
C13A C -0.9351(8) -0.3882(5) -0.7730(3)
C14A C -0.8339(8) -0.4156(5) -0.7297(4)
H7A H -0.7838 -0.4824 -0.7297
C15A C -0.8049(8) -0.3466(5) -0.6864(4)
H8A H -0.7343 -0.3660 -0.6576
C16A C -0.8810(8) -0.2464(5) -0.6852(3)
C17A C -0.7810(9) -0.1143(5) -0.5258(4)
C18A C -0.7360(9) -0.1115(5) -0.4665(3)
C19A C -0.6513(8) -0.0565(5) -0.3564(3)
C20A C -0.6317(8) 0.0183(5) -0.3078(3)
C21A C -0.5660(8) 0.1161(5) -0.3340(3)
H9A H -0.5299 0.1312 -0.3816
C22A C -0.5535(8) 0.1910(5) -0.2906(3)
H10A H -0.5067 0.2554 -0.3086
C23A C -0.6108(7) 0.1700(5) -0.2200(3)
C24A C -0.6762(7) 0.0732(5) -0.1944(3)
H11A H -0.7142 0.0585 -0.1470
C25A C -0.6866(8) -0.0018(5) -0.2376(3)
H12A H -0.7311 -0.0668 -0.2192
C26A C -0.6431(8) -0.1648(5) -0.3471(3)
C27A C -0.6029(7) -0.2361(4) -0.2880(3)
C28A C -0.4792(8) -0.2164(5) -0.2587(4)
H13A H -0.4222 -0.1563 -0.2766
C29A C -0.4403(8) -0.2849(5) -0.2034(4)
H14A H -0.3589 -0.2696 -0.1838
C30A C -0.5210(7) -0.3755(4) -0.1770(3)
C31A C -0.6412(7) -0.3970(5) -0.2071(3)
H15A H -0.6953 -0.4589 -0.1904
C32A C -0.6823(8) -0.3271(5) -0.2620(3)
H16A H -0.7643 -0.3422 -0.2812
C33A C -0.4808(7) -0.4487(4) -0.1173(3)
C34A C -0.6016(7) 0.2502(5) -0.1722(3)
Cd1A Cd -0.62347(5) 0.34071(3) -0.01739(2)
O1A O -0.9380(5) 0.3104(3) -0.8972(2)
O2A O -0.7600(5) 0.2062(3) -0.9527(2)
O3A O -0.9133(6) -0.5599(4) -0.8079(3)
H23A H -0.9367 -0.5985 -0.8364
O4A O -1.0450(6) -0.4356(4) -0.8653(2)
O5A O -0.5452(7) 0.3406(4) -0.2035(2)
H24A H -0.4613 0.3464 -0.1941
O6A O -0.6489(5) 0.2344(3) -0.1097(2)
O7A O -0.4113(5) -0.4161(4) -0.0766(2)
O8A O -0.5231(5) -0.5449(3) -0.1101(2)
O9A O -0.8374(5) 0.4447(3) -0.0162(2)
H25A H -0.9141 0.4160 0.0215
H26A H -0.8716 0.4453 -0.0596
S1A S -0.6972(3) -0.22899(13) -0.41216(10)
S2A S -0.7081(3) 0.00574(13) -0.43336(9)
S3A S -0.8210(3) 0.00167(13) -0.57984(9)
S4A S -0.8160(3) -0.23345(13) -0.55584(9)
Cd1_2 Cd -0.37653(5) -0.34071(3) 0.01739(2)
Cd1_3 Cd 0.62347(5) -0.34071(3) 1.01739(2)
Cd1_4 Cd 0.62347(5) 0.65929(3) 0.01739(2)
Cd1A_2 Cd -0.62347(5) -0.65929(3) -0.01739(2)
Cd1A_3 Cd -0.62347(5) 0.34071(3) -1.01739(2)
Cd1A_4 Cd 0.37653(5) 0.34071(3) -0.01739(2)
O2_2 O 0.7600(5) -0.2062(3) -0.0473(2)
O2A_2 O -0.7600(5) 0.2062(3) 0.0473(2)
O7_2 O -0.5887(5) 0.4161(4) 0.0766(2)
O7A_2 O 0.5887(5) -0.4161(4) -0.0766(2)
O8_2 O 0.5231(5) -0.4551(3) 0.1101(2)
O8A_2 O -0.5231(5) 0.4551(3) -0.1101(2)
loop_
_geom_bond_atom_site_label_1
_geom_bond_atom_site_label_2
_geom_bond_site_symmetry_1
_geom_bond_site_symmetry_2
C1 C2 1_555 1_555
C2 C3 1_555 1_555
C3 H1 1_555 1_555
C4 C3 1_555 1_555
H2 C4 1_555 1_555
C5 C4 1_555 1_555
C6 C5 1_555 1_555
H3 C6 1_555 1_555
C7 C2 1_555 1_555
H4 C7 1_555 1_555
C8 C5 1_555 1_555
C9 C8 1_555 1_555
C10 C13 1_555 1_555
C11 H5 1_555 1_555
C12 C11 1_555 1_555
H6 C12 1_555 1_555
C13 C12 1_555 1_555
C14 C13 1_555 1_555
H7 C14 1_555 1_555
C15 C14 1_555 1_555
H8 C15 1_555 1_555
C16 C9 1_555 1_555
C17 C18 1_555 1_555
C18 S1 1_555 1_555
C19 C20 1_555 1_555
C20 C21 1_555 1_555
C21 H9 1_555 1_555
C22 C21 1_555 1_555
H10 C22 1_555 1_555
C23 C22 1_555 1_555
C24 C23 1_555 1_555
H11 C24 1_555 1_555
C25 C20 1_555 1_555
H12 C25 1_555 1_555
C26 C19 1_555 1_555
C27 C26 1_555 1_555
C28 C27 1_555 1_555
H13 C28 1_555 1_555
C29 C28 1_555 1_555
H14 C29 1_555 1_555
C30 C29 1_555 1_555
C31 C30 1_555 1_555
H15 C31 1_555 1_555
C32 C27 1_555 1_555
H16 C32 1_555 1_555
C33 C30 1_555 1_555
C34 C23 1_555 1_555
C35 H17 1_555 1_555
C36 C35 1_555 1_555
H18 C36 1_555 1_555
C37 C36 1_555 1_555
C38 C37 1_555 1_555
H19 C38 1_555 1_555
C39 C38 1_555 1_555
H20 C39 1_555 1_555
C40 C37 1_555 1_555
H21 C40 1_555 1_555
H22 C40 1_555 1_555
Cd1 N1 1_555 1_555
N1 C35 1_555 1_555
O1 C1 1_555 1_555
O2 C1 1_555 1_555
O3 C10 1_555 1_555
H23 O3 1_555 1_555
O4 C10 1_555 1_555
O5 C34 1_555 1_555
H24 O5 1_555 1_555
O6 C34 1_555 1_555
O7 C33 1_555 1_555
O8 C33 1_555 1_555
O9 Cd1 1_555 1_555
H25 O9 1_555 1_555
H26 O9 1_555 1_555
S1 C26 1_555 1_555
S2 C18 1_555 1_555
S3 C8 1_555 1_555
S4 C9 1_555 1_555
C35A H17A 1_555 1_555
C36A C35A 1_555 1_555
H18A C36A 1_555 1_555
C37A C36A 1_555 1_555
C38A C37A 1_555 1_555
H19A C38A 1_555 1_555
C39A C38A 1_555 1_555
H20A C39A 1_555 1_555
C40A C40 1_555 1_555
H21A C40A 1_555 1_555
H22A C40A 1_555 1_555
N1A C35A 1_555 1_555
C1A C2A 1_555 1_555
C2A C3A 1_555 1_555
C3A H1A 1_555 1_555
C4A C3A 1_555 1_555
H2A C4A 1_555 1_555
C5A C4A 1_555 1_555
C6A C5A 1_555 1_555
H3A C6A 1_555 1_555
C7A C2A 1_555 1_555
H4A C7A 1_555 1_555
C8A C5A 1_555 1_555
C9A C8A 1_555 1_555
C10A C13A 1_555 1_555
C11A H5A 1_555 1_555
C12A C11A 1_555 1_555
H6A C12A 1_555 1_555
C13A C12A 1_555 1_555
C14A C13A 1_555 1_555
H7A C14A 1_555 1_555
C15A C14A 1_555 1_555
H8A C15A 1_555 1_555
C16A C9A 1_555 1_555
C17A C18A 1_555 1_555
C18A S1A 1_555 1_555
C19A C20A 1_555 1_555
C20A C21A 1_555 1_555
C21A H9A 1_555 1_555
C22A C21A 1_555 1_555
H10A C22A 1_555 1_555
C23A C22A 1_555 1_555
C24A C23A 1_555 1_555
H11A C24A 1_555 1_555
C25A C20A 1_555 1_555
H12A C25A 1_555 1_555
C26A C19A 1_555 1_555
C27A C26A 1_555 1_555
C28A C27A 1_555 1_555
H13A C28A 1_555 1_555
C29A C28A 1_555 1_555
H14A C29A 1_555 1_555
C30A C29A 1_555 1_555
C31A C30A 1_555 1_555
H15A C31A 1_555 1_555
C32A C27A 1_555 1_555
H16A C32A 1_555 1_555
C33A C30A 1_555 1_555
C34A C23A 1_555 1_555
Cd1A N1A 1_555 1_555
O1A C1A 1_555 1_555
O2A C1A 1_555 1_555
O3A C10A 1_555 1_555
H23A O3A 1_555 1_555
O4A C10A 1_555 1_555
O5A C34A 1_555 1_555
H24A O5A 1_555 1_555
O6A C34A 1_555 1_555
O7A C33A 1_555 1_555
O8A C33A 1_555 1_555
O9A Cd1A 1_555 1_555
H25A O9A 1_555 1_555
H26A O9A 1_555 1_555
S1A C26A 1_555 1_555
S2A C18A 1_555 1_555
S3A C8A 1_555 1_555
S4A C9A 1_555 1_555
Cd1_2 O7A 1_555 1_555
Cd1_3 O2 1_555 1_555
Cd1_4 O8 1_555 1_555
Cd1A_2 O8A 1_555 1_555
Cd1A_3 O2A 1_555 1_555
Cd1A_4 O7 1_555 1_555
O2_2 Cd1 1_555 1_555
O2A_2 Cd1A 1_555 1_555
O7_2 Cd1A 1_555 1_555
O7A_2 Cd1 1_555 1_555
O8_2 Cd1 1_555 1_555
O8A_2 Cd1A 1_555 1_555
C6 C7 1_555 1_555
C11 C16 1_555 1_555
C15 C16 1_555 1_555
C17 S3 1_555 1_555
C17 S4 1_555 1_555
C19 S2 1_555 1_555
C24 C25 1_555 1_555
C31 C32 1_555 1_555
C39 N1 1_555 1_555
Cd1 O6 1_555 1_555
C37A C40A 1_555 1_555
C39A N1A 1_555 1_555
C6A C7A 1_555 1_555
C11A C16A 1_555 1_555
C15A C16A 1_555 1_555
C17A S3A 1_555 1_555
C17A S4A 1_555 1_555
C19A S2A 1_555 1_555
C24A C25A 1_555 1_555
C31A C32A 1_555 1_555
Cd1A O6A 1_555 1_555

#END
