
#######################################################################
#
#                 Cambridge Crystallographic Data Centre
#                                CCDC 
#
#######################################################################
#
# If this CIF has been generated from an entry in the Cambridge 
# Structural Database, then it will include bibliographic, chemical, 
# crystal, experimental, refinement or atomic coordinate data resulting 
# from the CCDC's data processing and validation procedures.
#
#######################################################################

data_GUFXEM
_symmetry_cell_setting           monoclinic
_symmetry_space_group_name_H-M   'P 21/c'
_symmetry_Int_Tables_number      14
_space_group_name_Hall           '-P 2ybc'
loop_
_symmetry_equiv_pos_site_id
_symmetry_equiv_pos_as_xyz
1 x,y,z
2 -x,1/2+y,1/2-z
3 -x,-y,-z
4 x,1/2-y,1/2+z
_cell_length_a                   16.7318(10)
_cell_length_b                   18.1105(8)
_cell_length_c                   16.4721(8)
_cell_angle_alpha                90
_cell_angle_beta                 110.618(6)
_cell_angle_gamma                90
_cell_volume                     4671.69
loop_
_atom_site_label
_atom_site_type_symbol
_atom_site_fract_x
_atom_site_fract_y
_atom_site_fract_z
Zn1 Zn 0.18556(2) 0.61050(2) 0.12745(2)
Zn2 Zn 0.30781(2) 0.61736(2) 0.36201(2)
Zn3 Zn 0.0000 0.5000 0.0000
Zn4 Zn 0.5000 0.5000 0.5000
C1 C 0.0742(2) 0.73973(19) 0.2730(2)
C2 C 0.1019(2) 0.77346(19) 0.3535(2)
H1 H 0.1570 0.7650 0.3921
C3 C 0.0480(2) 0.81968(19) 0.3769(2)
C4 C -0.0346(2) 0.83114(19) 0.3195(2)
H2 H -0.0709 0.8621 0.3354
C5 C -0.0639(2) 0.79706(19) 0.2387(2)
C6 C -0.0086(2) 0.75168(19) 0.2153(2)
H3 H -0.0269 0.7292 0.1611
C7 C -0.1537(2) 0.81024(19) 0.1812(2)
C8 C -0.1875(2) 0.8803(2) 0.1760(2)
H4 H -0.1529 0.9187 0.2061
C9 C -0.2729(2) 0.8945(2) 0.1262(2)
C10 C -0.3237(2) 0.8376(2) 0.0813(2)
H5 H -0.3803 0.8465 0.0474
C11 C -0.2905(2) 0.7669(2) 0.0864(2)
C12 C -0.2056(2) 0.7538(2) 0.1358(2)
H6 H -0.1834 0.7064 0.1382
C13 C 0.1350(2) 0.69131(19) 0.2505(2)
C14 C 0.0769(2) 0.85737(19) 0.4625(2)
C15 C -0.3052(2) 0.9707(2) 0.1266(2)
C16 C -0.3464(3) 0.7039(3) 0.0436(3)
C17 C 0.2329(2) 0.38530(19) 0.1100(2)
C18 C 0.1863(2) 0.32421(18) 0.0708(2)
H7 H 0.1310 0.3297 0.0315
C19 C 0.2221(2) 0.25437(19) 0.0900(2)
C20 C 0.3059(2) 0.24728(19) 0.1461(2)
H8 H 0.3301 0.2005 0.1577
C21 C 0.3540(2) 0.30763(19) 0.1850(2)
C22 C 0.3166(2) 0.37693(19) 0.1685(2)
H9 H 0.3472 0.4181 0.1963
C23 C 0.4432(2) 0.29600(19) 0.2464(2)
C24 C 0.4963(2) 0.24554(19) 0.2273(2)
H10 H 0.4783 0.2219 0.1737
C25 C 0.5767(2) 0.23008(19) 0.2881(2)
C26 C 0.6029(2) 0.26429(19) 0.3677(2)
H11 H 0.6555 0.2523 0.4091
C27 C 0.5519(2) 0.31627(19) 0.38663(19)
C28 C 0.4719(2) 0.33244(19) 0.3255(2)
H12 H 0.4376 0.3679 0.3378
C29 C 0.1933(2) 0.4605(2) 0.0910(2)
C30 C 0.1725(2) 0.1862(2) 0.0545(2)
C31 C 0.6363(2) 0.1782(2) 0.2679(2)
C32 C 0.5809(2) 0.35326(19) 0.4733(2)
C33 C 0.0037(3) 0.5333(2) 0.1845(2)
C34 C -0.0142(3) 0.5618(3) 0.3132(3)
H13 H -0.0018 0.6117 0.3357
H14 H -0.0111 0.5286 0.3605
C35 C -0.1011(4) 0.5575(4) 0.2411(3)
H15 H -0.1343 0.5164 0.2498
H16 H -0.1331 0.6029 0.2372
C36 C 0.4322(3) 0.4653(2) 0.6447(3)
C37 C 0.4941(3) 0.4669(3) 0.7935(3)
H17 H 0.5051 0.5113 0.8288
H18 H 0.5322 0.4280 0.8252
C38 C 0.4015(3) 0.4435(3) 0.7673(3)
H19 H 0.3969 0.3944 0.7886
H20 H 0.3695 0.4777 0.7894
O1 O 0.11540(16) 0.67073(14) 0.17315(15)
O2 O 0.20151(18) 0.67451(17) 0.31014(16)
O3 O 0.15415(16) 0.85034(15) 0.50945(14)
O4 O 0.02303(17) 0.89189(13) 0.48405(15)
O5 O -0.25220(16) 1.02259(14) 0.14414(16)
O6 O -0.38313(16) 0.98172(14) 0.11421(15)
O7 O -0.4208(2) 0.7178(2) -0.0065(2)
O8 O -0.3166(3) 0.64009(19) 0.0606(2)
H21 H -0.3407 0.6046 0.0271
O9 O 0.12981(15) 0.46903(13) 0.02258(14)
O10 O 0.22763(16) 0.51054(13) 0.14498(15)
O11 O 0.09652(17) 0.19874(15) -0.00039(17)
H22 H 0.0716 0.1583 -0.0203
O12 O 0.20104(19) 0.12474(15) 0.0749(2)
O13 O 0.61577(16) 0.15616(16) 0.19146(16)
O14 O 0.70190(16) 0.16067(16) 0.32837(15)
O15 O 0.65689(16) 0.33995(15) 0.52235(14)
O16 O 0.53132(16) 0.39331(14) 0.49372(15)
O17 O 0.03994(17) 0.51755(15) 0.13267(15)
O18 O 0.42322(17) 0.46936(16) 0.56711(16)
N1 N -0.0784(2) 0.5468(2) 0.1646(2)
H23 H -0.1144 0.5490 0.1123
N2 N 0.0429(2) 0.5393(2) 0.27038(19)
H24 H 0.0964 0.5307 0.2968
N3 N 0.3716(2) 0.4448(2) 0.6747(2)
H25 H 0.3203 0.4336 0.6421
N4 N 0.5031(2) 0.4804(2) 0.7112(2)
H26 H 0.5492 0.4966 0.7056
Zn1B Zn -0.18556(2) 0.38950(2) -0.12745(2)
Zn2B Zn -0.30781(2) 0.38264(2) -0.36201(2)
C1B C -0.0742(2) 0.26027(19) -0.2730(2)
C2B C -0.1019(2) 0.22654(19) -0.3535(2)
H1B H -0.1570 0.2350 -0.3921
C3B C -0.0480(2) 0.18032(19) -0.3769(2)
C4B C 0.0346(2) 0.16886(19) -0.3195(2)
H2B H 0.0709 0.1379 -0.3354
C5B C 0.0639(2) 0.20294(19) -0.2387(2)
C6B C 0.0086(2) 0.24832(19) -0.2153(2)
H3B H 0.0269 0.2708 -0.1611
C7B C 0.1537(2) 0.18976(19) -0.1812(2)
C8B C 0.1875(2) 0.1197(2) -0.1760(2)
H4B H 0.1529 0.0813 -0.2061
C9B C 0.2729(2) 0.1055(2) -0.1262(2)
C10B C 0.3237(2) 0.1624(2) -0.0813(2)
H5B H 0.3803 0.1535 -0.0474
C11B C 0.2905(2) 0.2331(2) -0.0864(2)
C12B C 0.2056(2) 0.2462(2) -0.1358(2)
H6B H 0.1834 0.2936 -0.1382
C13B C -0.1350(2) 0.30869(19) -0.2505(2)
C14B C -0.0769(2) 0.14263(19) -0.4625(2)
C15B C 0.3052(2) 0.0293(2) -0.1266(2)
C16B C 0.3464(3) 0.2961(3) -0.0436(3)
C17B C -0.2329(2) 0.61470(19) -0.1100(2)
C18B C -0.1863(2) 0.67579(18) -0.0708(2)
H7B H -0.1310 0.6703 -0.0315
C19B C -0.2221(2) 0.74563(19) -0.0900(2)
C20B C -0.3059(2) 0.75272(19) -0.1461(2)
H8B H -0.3301 0.7995 -0.1577
C21B C -0.3540(2) 0.69237(19) -0.1850(2)
C22B C -0.3166(2) 0.62307(19) -0.1685(2)
H9B H -0.3472 0.5819 -0.1963
C23B C -0.4432(2) 0.70400(19) -0.2464(2)
C24B C -0.4963(2) 0.75446(19) -0.2273(2)
H10B H -0.4783 0.7781 -0.1737
C25B C -0.5767(2) 0.76992(19) -0.2881(2)
C26B C -0.6029(2) 0.73571(19) -0.3677(2)
H11B H -0.6555 0.7477 -0.4091
C27B C -0.5519(2) 0.68373(19) -0.38663(19)
C28B C -0.4719(2) 0.66756(19) -0.3255(2)
H12B H -0.4376 0.6321 -0.3378
C29B C -0.1933(2) 0.5395(2) -0.0910(2)
C30B C -0.1725(2) 0.8138(2) -0.0545(2)
C31B C -0.6363(2) 0.8218(2) -0.2679(2)
C32B C -0.5809(2) 0.64674(19) -0.4733(2)
C33B C -0.0037(3) 0.4667(2) -0.1845(2)
C34B C 0.0142(3) 0.4382(3) -0.3132(3)
H13B H 0.0018 0.3883 -0.3357
H14B H 0.0111 0.4714 -0.3605
C35B C 0.1011(4) 0.4425(4) -0.2411(3)
H15B H 0.1343 0.4836 -0.2498
H16B H 0.1331 0.3971 -0.2372
O1B O -0.11540(16) 0.32927(14) -0.17315(15)
O2B O -0.20151(18) 0.32549(17) -0.31014(16)
O3B O -0.15415(16) 0.14966(15) -0.50945(14)
O4B O -0.02303(17) 0.10811(13) -0.48405(15)
O5B O 0.25220(16) -0.02259(14) -0.14414(16)
O6B O 0.38313(16) 0.01828(14) -0.11421(15)
O7B O 0.4208(2) 0.2822(2) 0.0065(2)
O8B O 0.3166(3) 0.35991(19) -0.0606(2)
H21B H 0.3407 0.3954 -0.0271
O9B O -0.12981(15) 0.53097(13) -0.02258(14)
O10B O -0.22763(16) 0.48946(13) -0.14498(15)
O11B O -0.09652(17) 0.80126(15) 0.00039(17)
H22B H -0.0716 0.8417 0.0203
O12B O -0.20104(19) 0.87526(15) -0.0749(2)
O13B O -0.61577(16) 0.84384(16) -0.19146(16)
O14B O -0.70190(16) 0.83933(16) -0.32837(15)
O15B O -0.65689(16) 0.66005(15) -0.52235(14)
O16B O -0.53132(16) 0.60669(14) -0.49372(15)
O17B O -0.03994(17) 0.48245(15) -0.13267(15)
N1B N 0.0784(2) 0.4532(2) -0.1646(2)
H23B H 0.1144 0.4510 -0.1123
N2B N -0.0429(2) 0.4607(2) -0.27038(19)
H24B H -0.0964 0.4693 -0.2968
C36B C 0.5678(3) 0.5347(2) 0.3553(3)
C37B C 0.5059(3) 0.5331(3) 0.2065(3)
H17B H 0.4949 0.4887 0.1712
H18B H 0.4678 0.5720 0.1748
C38B C 0.5985(3) 0.5565(3) 0.2327(3)
H19B H 0.6031 0.6056 0.2114
H20B H 0.6305 0.5223 0.2106
O18B O 0.57678(17) 0.53064(16) 0.43289(16)
N3B N 0.6284(2) 0.5552(2) 0.3253(2)
H25B H 0.6797 0.5664 0.3579
N4B N 0.4969(2) 0.5196(2) 0.2888(2)
H26B H 0.4508 0.5034 0.2944
Zn1A Zn -0.18556(2) 0.11050(2) -0.62745(2)
Zn1A_2 Zn 0.81444(2) 0.11050(2) 0.37255(2)
Zn1C Zn -0.81444(2) 0.88950(2) -0.37255(2)
Zn1C_2 Zn 0.18556(2) 0.88950(2) 0.62745(2)
Zn2_2 Zn -0.69219(2) 0.61736(2) -0.63799(2)
Zn2A Zn -0.30781(2) 1.11736(2) 0.13799(2)
Zn2A_2 Zn 0.69219(2) 0.11736(2) 0.13799(2)
Zn2B_2 Zn 0.69219(2) 0.38264(2) 0.63799(2)
Zn2C Zn -0.69219(2) 0.88264(2) -0.13799(2)
Zn2C_2 Zn 0.30781(2) -0.11736(2) -0.13799(2)
Zn3A Zn 0.0000 0.0000 -0.5000
Zn3A_2 Zn 0.0000 1.0000 0.5000
Zn4_2 Zn -0.5000 0.5000 -0.5000
Zn4A Zn -0.5000 1.0000 0.0000
Zn4A_2 Zn 0.5000 0.0000 0.0000
O3A O -0.15415(16) 0.35034(15) -0.00945(14)
O3C O 0.15415(16) 0.64966(15) 0.00945(14)
O4A O -0.02303(17) 0.39189(13) 0.01595(15)
O4C O 0.02303(17) 0.60811(13) -0.01595(15)
O5A O 0.25220(16) 0.52259(14) 0.35586(16)
O5C O -0.25220(16) 0.47741(14) -0.35586(16)
O6A O 0.38313(16) 0.48172(14) 0.38579(15)
O6C O 0.61687(16) 0.51828(14) 0.61421(15)
O13A O 0.38423(16) 0.65616(16) 0.30854(16)
O13C O -0.38423(16) 0.34384(16) -0.30854(16)
O14A O 0.29810(16) 0.66067(16) 0.17163(15)
O14C O -0.29810(16) 0.33933(16) -0.17163(15)
O15_2 O -0.34311(16) 0.33995(15) -0.47765(14)
O15B_2 O 0.34311(16) 0.66005(15) 0.47765(14)
O16B_2 O 0.46868(16) 0.60669(14) 0.50628(15)
C39 C -0.4341(7) 0.4130(6) 0.0444(6)
C40 C -0.3025(7) 0.4362(5) 0.0633(7)
H27 H -0.2762 0.4391 0.0195
H28 H -0.2657 0.4621 0.1143
C41 C -0.3074(7) 0.3598(7) 0.0855(7)
H29 H -0.2944 0.3274 0.0449
H30 H -0.2685 0.3493 0.1437
O19 O -0.5060(10) 0.4157(7) 0.0376(9)
N5 N -0.3855(4) 0.4742(6) 0.0308(5)
H31 H -0.4000 0.5179 0.0106
N6 N -0.3919(9) 0.3521(7) 0.0797(10)
H32 H -0.4132 0.3143 0.0962
C42 C -0.0685(3) 0.0945(2) -0.0534(3)
C43 C -0.2034(4) 0.0773(3) -0.0563(5)
H33 H -0.2132 0.0718 -0.0020
H34 H -0.2505 0.0550 -0.1025
C44 C -0.1936(4) 0.1576(3) -0.0754(5)
H35 H -0.2309 0.1709 -0.1335
H36 H -0.2053 0.1897 -0.0337
O20 O 0.0063(2) 0.08281(18) -0.0456(2)
N7 N -0.1248(3) 0.0450(2) -0.0511(3)
H37 H -0.1151 -0.0017 -0.0469
N8 N -0.1053(3) 0.1609(2) -0.0672(4)
H38 H -0.0792 0.2010 -0.0707
loop_
_geom_bond_atom_site_label_1
_geom_bond_atom_site_label_2
_geom_bond_site_symmetry_1
_geom_bond_site_symmetry_2
Zn1 O1 1_555 1_555
Zn2 O2 1_555 1_555
Zn3 O9 1_555 1_555
Zn4 O16 1_555 1_555
C1 C2 1_555 1_555
C2 H1 1_555 1_555
C3 C2 1_555 1_555
C4 C3 1_555 1_555
H2 C4 1_555 1_555
C5 C4 1_555 1_555
C6 C1 1_555 1_555
H3 C6 1_555 1_555
C7 C5 1_555 1_555
C8 C7 1_555 1_555
H4 C8 1_555 1_555
C9 C8 1_555 1_555
C10 C9 1_555 1_555
H5 C10 1_555 1_555
C11 C10 1_555 1_555
C12 C7 1_555 1_555
H6 C12 1_555 1_555
C13 C1 1_555 1_555
C14 C3 1_555 1_555
C15 C9 1_555 1_555
C16 C11 1_555 1_555
C17 C18 1_555 1_555
C18 H7 1_555 1_555
C19 C18 1_555 1_555
C20 C19 1_555 1_555
H8 C20 1_555 1_555
C21 C20 1_555 1_555
C22 C17 1_555 1_555
H9 C22 1_555 1_555
C23 C21 1_555 1_555
C24 C23 1_555 1_555
H10 C24 1_555 1_555
C25 C24 1_555 1_555
C26 C25 1_555 1_555
H11 C26 1_555 1_555
C27 C26 1_555 1_555
C28 C23 1_555 1_555
H12 C28 1_555 1_555
C29 C17 1_555 1_555
C30 C19 1_555 1_555
C31 C25 1_555 1_555
C32 C27 1_555 1_555
C33 O17 1_555 1_555
C34 H13 1_555 1_555
H14 C34 1_555 1_555
C35 C34 1_555 1_555
H15 C35 1_555 1_555
H16 C35 1_555 1_555
C36 O18 1_555 1_555
C37 H17 1_555 1_555
H18 C37 1_555 1_555
C38 C37 1_555 1_555
H19 C38 1_555 1_555
H20 C38 1_555 1_555
O1 C13 1_555 1_555
O2 C13 1_555 1_555
O3 C14 1_555 1_555
O4 C14 1_555 1_555
O5 C15 1_555 1_555
O6 C15 1_555 1_555
O7 C16 1_555 1_555
O8 C16 1_555 1_555
H21 O8 1_555 1_555
O9 C29 1_555 1_555
O10 Zn1 1_555 1_555
O11 C30 1_555 1_555
H22 O11 1_555 1_555
O12 C30 1_555 1_555
O13 C31 1_555 1_555
O14 C31 1_555 1_555
O15 C32 1_555 1_555
O16 C32 1_555 1_555
O17 Zn3 1_555 1_555
O18 Zn4 1_555 1_555
N1 C33 1_555 1_555
H23 N1 1_555 1_555
N2 C33 1_555 1_555
H24 N2 1_555 1_555
N3 C36 1_555 1_555
H25 N3 1_555 1_555
N4 C36 1_555 1_555
H26 N4 1_555 1_555
C39 O19 1_555 1_555
C40 H27 1_555 1_555
H28 C40 1_555 1_555
C41 C40 1_555 1_555
H29 C41 1_555 1_555
H30 C41 1_555 1_555
N5 C39 1_555 1_555
H31 N5 1_555 1_555
N6 C39 1_555 1_555
H32 N6 1_555 1_555
C42 O20 1_555 1_555
C43 H33 1_555 1_555
H34 C43 1_555 1_555
C44 C43 1_555 1_555
H35 C44 1_555 1_555
H36 C44 1_555 1_555
N7 C42 1_555 1_555
H37 N7 1_555 1_555
N8 C42 1_555 1_555
H38 N8 1_555 1_555
Zn1B O1B 1_555 1_555
Zn2B O2B 1_555 1_555
C1B C2B 1_555 1_555
C2B H1B 1_555 1_555
C3B C2B 1_555 1_555
C4B C3B 1_555 1_555
H2B C4B 1_555 1_555
C5B C4B 1_555 1_555
C6B C1B 1_555 1_555
H3B C6B 1_555 1_555
C7B C5B 1_555 1_555
C8B C7B 1_555 1_555
H4B C8B 1_555 1_555
C9B C8B 1_555 1_555
C10B C9B 1_555 1_555
H5B C10B 1_555 1_555
C11B C10B 1_555 1_555
C12B C7B 1_555 1_555
H6B C12B 1_555 1_555
C13B C1B 1_555 1_555
C14B C3B 1_555 1_555
C15B C9B 1_555 1_555
C16B C11B 1_555 1_555
C17B C18B 1_555 1_555
C18B H7B 1_555 1_555
C19B C18B 1_555 1_555
C20B C19B 1_555 1_555
H8B C20B 1_555 1_555
C21B C20B 1_555 1_555
C22B C17B 1_555 1_555
H9B C22B 1_555 1_555
C23B C21B 1_555 1_555
C24B C23B 1_555 1_555
H10B C24B 1_555 1_555
C25B C24B 1_555 1_555
C26B C25B 1_555 1_555
H11B C26B 1_555 1_555
C27B C26B 1_555 1_555
C28B C23B 1_555 1_555
H12B C28B 1_555 1_555
C29B C17B 1_555 1_555
C30B C19B 1_555 1_555
C31B C25B 1_555 1_555
C32B C27B 1_555 1_555
C33B O17B 1_555 1_555
C34B H13B 1_555 1_555
H14B C34B 1_555 1_555
C35B C34B 1_555 1_555
H15B C35B 1_555 1_555
H16B C35B 1_555 1_555
O1B C13B 1_555 1_555
O2B C13B 1_555 1_555
O3B C14B 1_555 1_555
O4B C14B 1_555 1_555
O5B C15B 1_555 1_555
O6B C15B 1_555 1_555
O7B C16B 1_555 1_555
O8B C16B 1_555 1_555
H21B O8B 1_555 1_555
O9B Zn3 1_555 1_555
O10B Zn1B 1_555 1_555
O11B C30B 1_555 1_555
H22B O11B 1_555 1_555
O12B C30B 1_555 1_555
O13B C31B 1_555 1_555
O14B C31B 1_555 1_555
O15B C32B 1_555 1_555
O16B C32B 1_555 1_555
O17B Zn3 1_555 1_555
N1B C33B 1_555 1_555
H23B N1B 1_555 1_555
N2B C33B 1_555 1_555
H24B N2B 1_555 1_555
C36B O18B 1_555 1_555
C37B H17B 1_555 1_555
H18B C37B 1_555 1_555
C38B C37B 1_555 1_555
H19B C38B 1_555 1_555
H20B C38B 1_555 1_555
O18B Zn4 1_555 1_555
N3B C36B 1_555 1_555
H25B N3B 1_555 1_555
N4B C36B 1_555 1_555
H26B N4B 1_555 1_555
Zn1A O3B 1_555 1_555
Zn1A_2 O14 1_555 1_555
Zn1C O14B 1_555 1_555
Zn1C_2 O3 1_555 1_555
Zn2_2 O15B 1_555 1_555
Zn2A O5 1_555 1_555
Zn2A_2 O13 1_555 1_555
Zn2B_2 O15 1_555 1_555
Zn2C O13B 1_555 1_555
Zn2C_2 O5B 1_555 1_555
Zn3A O4B 1_555 1_555
Zn3A_2 O4 1_555 1_555
Zn4_2 O16B 1_555 1_555
Zn4A O6 1_555 1_555
Zn4A_2 O6B 1_555 1_555
O3A Zn1B 1_555 1_555
O3C Zn1 1_555 1_555
O4A Zn3 1_555 1_555
O4C Zn3 1_555 1_555
O5A Zn2 1_555 1_555
O5C Zn2B 1_555 1_555
O6A Zn4 1_555 1_555
O6C Zn4 1_555 1_555
O13A Zn2 1_555 1_555
O13C Zn2B 1_555 1_555
O14A Zn1 1_555 1_555
O14C Zn1B 1_555 1_555
O15_2 Zn2B 1_555 1_555
O15B_2 Zn2 1_555 1_555
O16B_2 Zn4 1_555 1_555
C5 C6 1_555 1_555
C11 C12 1_555 1_555
C21 C22 1_555 1_555
C27 C28 1_555 1_555
C29 O10 1_555 1_555
C34 N2 1_555 1_555
C35 N1 1_555 1_555
C37 N4 1_555 1_555
C38 N3 1_555 1_555
C40 N5 1_555 1_555
C41 N6 1_555 1_555
C43 N7 1_555 1_555
C44 N8 1_555 1_555
C5B C6B 1_555 1_555
C11B C12B 1_555 1_555
C21B C22B 1_555 1_555
C27B C28B 1_555 1_555
C29B O9B 1_555 1_555
C29B O10B 1_555 1_555
C34B N2B 1_555 1_555
C35B N1B 1_555 1_555
C37B N4B 1_555 1_555
C38B N3B 1_555 1_555

#END
