
#######################################################################
#
#                 Cambridge Crystallographic Data Centre
#                                CCDC 
#
#######################################################################
#
# If this CIF has been generated from an entry in the Cambridge 
# Structural Database, then it will include bibliographic, chemical, 
# crystal, experimental, refinement or atomic coordinate data resulting 
# from the CCDC's data processing and validation procedures.
#
#######################################################################

data_GUGNON
_symmetry_cell_setting           monoclinic
_symmetry_space_group_name_H-M   'P 21/n'
_symmetry_Int_Tables_number      14
_space_group_name_Hall           '-P 2yn'
loop_
_symmetry_equiv_pos_site_id
_symmetry_equiv_pos_as_xyz
1 x,y,z
2 1/2-x,1/2+y,1/2-z
3 -x,-y,-z
4 1/2+x,1/2-y,1/2+z
_cell_length_a                   14.3200(13)
_cell_length_b                   8.7789(8)
_cell_length_c                   27.653(3)
_cell_angle_alpha                90
_cell_angle_beta                 90.3054(13)
_cell_angle_gamma                90
_cell_volume                     3476.32
loop_
_atom_site_label
_atom_site_type_symbol
_atom_site_fract_x
_atom_site_fract_y
_atom_site_fract_z
C1 C 0.46896(9) 0.35448(15) 0.43669(5)
C2 C 0.38633(9) 0.38500(15) 0.46145(5)
H1 H 0.3365 0.4340 0.4448
C3 C 0.37501(9) 0.34551(15) 0.50985(5)
C4 C 0.44734(10) 0.26924(16) 0.53370(5)
H2 H 0.4401 0.2406 0.5666
C5 C 0.53048(9) 0.23445(15) 0.50967(5)
C6 C 0.54070(9) 0.27843(15) 0.46139(5)
H3 H 0.5973 0.2563 0.4451
C7 C 0.49671(10) 0.55610(16) 0.23706(5)
C8 C 0.49301(9) 0.50706(16) 0.28947(5)
C9 C 0.43724(10) 0.58516(16) 0.32238(5)
H4 H 0.4033 0.6725 0.3122
C10 C 0.43111(10) 0.53593(16) 0.36990(5)
H5 H 0.3937 0.5914 0.3921
C11 C 0.47900(9) 0.40584(16) 0.38593(5)
C12 C 0.53680(10) 0.33096(16) 0.35295(5)
H6 H 0.5716 0.2444 0.3631
C13 C 0.54380(10) 0.38189(16) 0.30550(5)
H7 H 0.5839 0.3303 0.2837
C14 C 0.04429(10) 0.60724(16) 0.59725(5)
C15 C 0.13065(9) 0.53707(16) 0.57589(5)
C16 C 0.12532(10) 0.46806(17) 0.53046(5)
H8 H 0.0675 0.4672 0.5134
C17 C 0.20331(10) 0.40068(16) 0.50987(5)
H9 H 0.1985 0.3554 0.4788
C18 C 0.28902(9) 0.39879(15) 0.53457(5)
C19 C 0.29330(9) 0.46322(16) 0.58076(5)
H10 H 0.3501 0.4588 0.5986
C20 C 0.21559(10) 0.53391(16) 0.60101(5)
H11 H 0.2204 0.5801 0.6320
C21 C 0.83885(10) -0.07291(16) 0.60603(5)
C22 C 0.75793(9) 0.00492(15) 0.58122(5)
C23 C 0.66585(10) -0.03464(16) 0.59152(5)
H12 H 0.6533 -0.1134 0.6141
C24 C 0.59211(9) 0.04085(16) 0.56877(5)
H13 H 0.5297 0.0138 0.5764
C25 C 0.60877(9) 0.15576(15) 0.53496(5)
C26 C 0.70173(10) 0.19588(16) 0.52514(5)
H14 H 0.7145 0.2747 0.5026
C27 C 0.77498(10) 0.12146(16) 0.54811(5)
H15 H 0.8375 0.1502 0.5412
O1 O 0.38450(7) 0.95953(12) 0.19828(4)
C28 C 0.34863(10) 1.08500(17) 0.18744(5)
C29 C 0.33213(13) 1.1291(2) 0.13581(6)
H16 H 0.3512 1.0453 0.1146
H17 H 0.3688 1.2202 0.1282
H18 H 0.2656 1.1506 0.1308
N1 N 0.32544(9) 1.18334(15) 0.22215(5)
C30 C 0.28283(14) 1.3319(2) 0.21333(7)
H19 H 0.2618 1.3379 0.1796
H20 H 0.3288 1.4123 0.2196
H21 H 0.2293 1.3453 0.2348
C31 C 0.34237(12) 1.15007(18) 0.27317(6)
H22 H 0.3737 1.0512 0.2762
H23 H 0.2827 1.1470 0.2903
H24 H 0.3821 1.2297 0.2872
O2 O 0.44770(8) 0.67428(13) 0.22725(4)
O3 O 0.54327(9) 0.48226(14) 0.20809(4)
O4 O -0.03153(8) 0.59222(15) 0.57642(4)
O5 O 0.05439(7) 0.67992(12) 0.63764(4)
O6 O 0.81924(7) -0.18605(13) 0.63337(4)
O7 O 0.91883(7) -0.02321(14) 0.59958(4)
Zn1 Zn 0.43119(2) 0.77056(2) 0.16406(2)
O5C O 0.55439(7) 0.82008(12) 0.13764(4)
O6C O 0.31924(7) 0.68605(13) 0.13337(4)
Zn1C Zn -0.06881(2) 0.72944(2) 0.66406(2)
Zn1C_2 Zn 0.93119(2) -0.27056(2) 0.66406(2)
O8 O 0.7754(11) 0.559(3) 0.1551(4)
C32 C 0.78687(19) 0.5834(3) 0.19936(10)
C33 C 0.7240(3) 0.6883(4) 0.22764(14)
H25 H 0.6728 0.7235 0.2068
H26 H 0.7600 0.7762 0.2391
H27 H 0.6982 0.6333 0.2554
N2 N 0.8613(2) 0.5227(3) 0.22184(11)
C34 C 0.8886(11) 0.553(2) 0.2715(4)
H28 H 0.9483 0.6072 0.2721
H29 H 0.8954 0.4558 0.2889
H30 H 0.8407 0.6147 0.2872
C35 C 0.9232(4) 0.4224(7) 0.1939(2)
H31 H 0.8856 0.3587 0.1721
H32 H 0.9588 0.3572 0.2161
H33 H 0.9664 0.4844 0.1748
C40 C 0.60232(14) 0.3212(2) 0.11548(6)
H43 H 0.5582 0.2792 0.0918
H44 H 0.5811 0.2967 0.1482
H45 H 0.6643 0.2769 0.1103
C41 C 0.63807(16) 0.5330(2) 0.06102(6)
H46 H 0.5932 0.4953 0.0370
H47 H 0.6997 0.4891 0.0546
H48 H 0.6417 0.6443 0.0590
N4 N 0.60738(8) 0.48831(14) 0.10971(4)
H49 H 0.5451 0.5328 0.1160
H50 H 0.6515 0.5303 0.1340
O9? O 0.7674(15) 0.538(3) 0.1599(6)
C36? C 0.8332(3) 0.5139(4) 0.18914(14)
C37? C 0.9126(7) 0.4101(12) 0.1764(3)
H34? H 0.9047 0.3739 0.1431
H35? H 0.9133 0.3229 0.1985
H36? H 0.9717 0.4658 0.1793
N3? N 0.8277(3) 0.5691(4) 0.23401(13)
C38? C 0.8986(16) 0.553(3) 0.2713(6)
H37? H 0.9468 0.4823 0.2604
H38? H 0.8700 0.5145 0.3010
H39? H 0.9270 0.6531 0.2778
C39? C 0.7499(4) 0.6663(6) 0.2484(3)
H40? H 0.7062 0.6773 0.2213
H41? H 0.7737 0.7667 0.2578
H42? H 0.7176 0.6199 0.2759
loop_
_geom_bond_atom_site_label_1
_geom_bond_atom_site_label_2
_geom_bond_site_symmetry_1
_geom_bond_site_symmetry_2
C1 C2 1_555 1_555
C2 H1 1_555 1_555
C3 C2 1_555 1_555
C4 C3 1_555 1_555
H2 C4 1_555 1_555
C5 C4 1_555 1_555
C6 C1 1_555 1_555
H3 C6 1_555 1_555
C7 C8 1_555 1_555
C8 C9 1_555 1_555
C9 H4 1_555 1_555
C10 C9 1_555 1_555
H5 C10 1_555 1_555
C11 C1 1_555 1_555
C12 C11 1_555 1_555
H6 C12 1_555 1_555
C13 C8 1_555 1_555
H7 C13 1_555 1_555
C14 C15 1_555 1_555
C15 C16 1_555 1_555
C16 H8 1_555 1_555
C17 C16 1_555 1_555
H9 C17 1_555 1_555
C18 C3 1_555 1_555
C19 C18 1_555 1_555
H10 C19 1_555 1_555
C20 C15 1_555 1_555
H11 C20 1_555 1_555
C21 C22 1_555 1_555
C22 C23 1_555 1_555
C23 H12 1_555 1_555
C24 C23 1_555 1_555
H13 C24 1_555 1_555
C25 C5 1_555 1_555
C26 C25 1_555 1_555
H14 C26 1_555 1_555
C27 C22 1_555 1_555
H15 C27 1_555 1_555
O1 C28 1_555 1_555
C28 C29 1_555 1_555
C29 H16 1_555 1_555
H17 C29 1_555 1_555
H18 C29 1_555 1_555
N1 C28 1_555 1_555
C30 N1 1_555 1_555
H19 C30 1_555 1_555
H20 C30 1_555 1_555
H21 C30 1_555 1_555
C31 N1 1_555 1_555
H22 C31 1_555 1_555
H23 C31 1_555 1_555
H24 C31 1_555 1_555
O2 C7 1_555 1_555
O3 C7 1_555 1_555
O4 C14 1_555 1_555
O5 C14 1_555 1_555
O6 C21 1_555 1_555
O7 C21 1_555 1_555
Zn1 O1 1_555 1_555
O8 C32 1_555 1_555
C32 C33 1_555 1_555
C33 H25 1_555 1_555
H26 C33 1_555 1_555
H27 C33 1_555 1_555
N2 C32 1_555 1_555
C34 N2 1_555 1_555
H28 C34 1_555 1_555
H29 C34 1_555 1_555
H30 C34 1_555 1_555
C35 N2 1_555 1_555
H31 C35 1_555 1_555
H32 C35 1_555 1_555
H33 C35 1_555 1_555
C40 H43 1_555 1_555
H44 C40 1_555 1_555
H45 C40 1_555 1_555
C41 H46 1_555 1_555
H47 C41 1_555 1_555
H48 C41 1_555 1_555
N4 C40 1_555 1_555
H49 N4 1_555 1_555
H50 N4 1_555 1_555
O5C Zn1 1_555 1_555
O6C Zn1 1_555 1_555
Zn1C O5 1_555 1_555
Zn1C_2 O6 1_555 1_555
C5 C6 1_555 1_555
C10 C11 1_555 1_555
C12 C13 1_555 1_555
C17 C18 1_555 1_555
C19 C20 1_555 1_555
C24 C25 1_555 1_555
C26 C27 1_555 1_555
O2 Zn1 1_555 1_555
C41 N4 1_555 1_555

#END
