
#######################################################################
#
#                 Cambridge Crystallographic Data Centre
#                                CCDC 
#
#######################################################################
#
# If this CIF has been generated from an entry in the Cambridge 
# Structural Database, then it will include bibliographic, chemical, 
# crystal, experimental, refinement or atomic coordinate data resulting 
# from the CCDC's data processing and validation procedures.
#
#######################################################################

data_GUKYUI
_symmetry_cell_setting           monoclinic
_symmetry_space_group_name_H-M   'P 2/c'
_symmetry_Int_Tables_number      13
_space_group_name_Hall           '-P 2yc'
loop_
_symmetry_equiv_pos_site_id
_symmetry_equiv_pos_as_xyz
1 x,y,z
2 -x,y,1/2-z
3 -x,-y,-z
4 x,-y,1/2+z
_cell_length_a                   11.8051(15)
_cell_length_b                   14.1508(16)
_cell_length_c                   7.6915(5)
_cell_angle_alpha                90
_cell_angle_beta                 91.038(9)
_cell_angle_gamma                90
_cell_volume                     1284.67
loop_
_atom_site_label
_atom_site_type_symbol
_atom_site_fract_x
_atom_site_fract_y
_atom_site_fract_z
Br1 Br 0.5000 1.11565(7) 0.7500
Ca1 Ca 0.5000 1.46819(11) 0.7500
O1 O 0.3766(7) 1.3927(5) 0.2231(6)
O2 O 0.4043(6) 1.4387(5) 0.4884(5)
N1 N 0.2888(6) 1.2243(5) 0.3171(7)
N2 N 0.2430(5) 1.1570(5) 0.0790(6)
C1 C 0.3663(8) 1.3807(6) 0.3772(8)
C2 C 0.3001(9) 1.2978(6) 0.4475(9)
H1 H 0.3387 1.2727 0.5498
H2 H 0.2254 1.3189 0.4813
C3 C 0.3592(6) 1.1507(8) 0.2996(9)
H3 H 0.4189 1.1360 0.3754
C4 C 0.3309(6) 1.1015(6) 0.1574(9)
H4 H 0.3612 1.0448 0.1187
C5 C 0.2209(6) 1.2275(6) 0.1796(8)
H5 H 0.1658 1.2732 0.1583
C6 C 0.1813(6) 1.1302(5) -0.0797(7)
H6 H 0.2332 1.1009 -0.1598
H7 H 0.1504 1.1864 -0.1350
C7 C 0.0862(5) 1.0623(6) -0.0411(6)
C8 C -0.0173(7) 1.0979(6) -0.0031(8)
H8 H -0.0302 1.1627 -0.0033
C9 C -0.1068(6) 1.0326(6) 0.0376(8)
H9 H -0.1788 1.0552 0.0616
O3 O 0.4058(11) 1.3329(7) 0.8699(9)
H10 H 0.3891 1.2820 0.8161
H11 H 0.4541 1.3192 0.9535
O1B O -0.3766(7) 0.6073(5) -0.2231(6)
O2B O -0.4043(6) 0.5613(5) -0.4884(5)
N1B N -0.2888(6) 0.7757(5) -0.3171(7)
N2B N -0.2430(5) 0.8430(5) -0.0790(6)
C1B C -0.3663(8) 0.6193(6) -0.3772(8)
C2B C -0.3001(9) 0.7022(6) -0.4475(9)
H1B H -0.3387 0.7273 -0.5498
H2B H -0.2254 0.6811 -0.4813
C3B C -0.3592(6) 0.8493(8) -0.2996(9)
H3B H -0.4189 0.8640 -0.3754
C4B C -0.3309(6) 0.8985(6) -0.1574(9)
H4B H -0.3612 0.9552 -0.1187
C5B C -0.2209(6) 0.7725(6) -0.1796(8)
H5B H -0.1658 0.7268 -0.1583
C6B C -0.1813(6) 0.8698(5) 0.0797(7)
H6B H -0.2332 0.8991 0.1598
H7B H -0.1504 0.8136 0.1350
C7B C -0.0862(5) 0.9377(6) 0.0411(6)
C8B C 0.0173(7) 0.9021(6) 0.0031(8)
H8B H 0.0302 0.8373 0.0033
C9B C 0.1068(6) 0.9674(6) -0.0376(8)
H9B H 0.1788 0.9448 -0.0616
O3A O 0.5942(11) 1.3329(7) 0.6301(9)
H10A H 0.6109 1.2820 0.6839
H11A H 0.5459 1.3192 0.5465
Ca1_2 Ca -0.5000 0.46819(11) -0.2500
Ca1B Ca -0.5000 0.53181(11) -0.7500
Ca1B_2 Ca 0.5000 1.53181(11) 0.2500
O1B_2 O 0.6234(7) 1.6073(5) 0.7769(6)
O1C O 0.3766(7) 1.6073(5) 0.7231(6)
O2A O 0.5957(6) 1.4387(5) 1.0116(5)
O2B_2 O 0.5957(6) 1.5613(5) 0.5116(5)
O2C O 0.4043(6) 1.5613(5) 0.9884(5)
O4? O 0.3237(19) 1.3853(13) 0.8638(17)
H12? H 0.2411 1.3982 0.8852
H13? H 0.3476 1.4278 0.9340
loop_
_geom_bond_atom_site_label_1
_geom_bond_atom_site_label_2
_geom_bond_site_symmetry_1
_geom_bond_site_symmetry_2
Ca1 O2 1_555 1_555
O1 C1 1_555 1_555
O2 C1 1_555 1_555
N1 C2 1_555 1_555
N2 C4 1_555 1_555
C1 C2 1_555 1_555
C2 H1 1_555 1_555
H2 C2 1_555 1_555
C3 N1 1_555 1_555
H3 C3 1_555 1_555
C4 C3 1_555 1_555
H4 C4 1_555 1_555
C5 N1 1_555 1_555
H5 C5 1_555 1_555
C6 N2 1_555 1_555
H6 C6 1_555 1_555
H7 C6 1_555 1_555
C7 C6 1_555 1_555
C8 C7 1_555 1_555
H8 C8 1_555 1_555
C9 C8 1_555 1_555
H9 C9 1_555 1_555
O3 Ca1 1_555 1_555
H10 O3 1_555 1_555
H11 O3 1_555 1_555
O1B C1B 1_555 1_555
O2B C1B 1_555 1_555
N1B C2B 1_555 1_555
N2B C4B 1_555 1_555
C1B C2B 1_555 1_555
C2B H1B 1_555 1_555
H2B C2B 1_555 1_555
C3B N1B 1_555 1_555
H3B C3B 1_555 1_555
C4B C3B 1_555 1_555
H4B C4B 1_555 1_555
C5B N1B 1_555 1_555
H5B C5B 1_555 1_555
C6B N2B 1_555 1_555
H6B C6B 1_555 1_555
H7B C6B 1_555 1_555
C7B C9 1_555 1_555
C8B C7B 1_555 1_555
H8B C8B 1_555 1_555
C9B C7 1_555 1_555
H9B C9B 1_555 1_555
O3A Ca1 1_555 1_555
H10A O3A 1_555 1_555
H11A O3A 1_555 1_555
Ca1_2 O1B 1_555 1_555
Ca1B O2B 1_555 1_555
Ca1B_2 O1 1_555 1_555
O1B_2 Ca1 1_555 1_555
O1C Ca1 1_555 1_555
O2A Ca1 1_555 1_555
O2B_2 Ca1 1_555 1_555
O2C Ca1 1_555 1_555
O2 Ca1B_2 1_555 1_555
N2 C5 1_555 1_555
O2B Ca1_2 1_555 1_555
N2B C5B 1_555 1_555
C6B C7B 1_555 1_555
C8B C9B 1_555 1_555
Ca1B_2 O2B_2 1_555 1_555

#END
