
#######################################################################
#
#                 Cambridge Crystallographic Data Centre
#                                CCDC 
#
#######################################################################
#
# If this CIF has been generated from an entry in the Cambridge 
# Structural Database, then it will include bibliographic, chemical, 
# crystal, experimental, refinement or atomic coordinate data resulting 
# from the CCDC's data processing and validation procedures.
#
#######################################################################

data_GULPIN
_symmetry_cell_setting           monoclinic
_symmetry_space_group_name_H-M   'C 2/c'
_symmetry_Int_Tables_number      15
_space_group_name_Hall           '-C 2yn'
loop_
_symmetry_equiv_pos_site_id
_symmetry_equiv_pos_as_xyz
1 x,y,z
2 -x,y,1/2-z
3 1/2+x,1/2+y,z
4 1/2-x,1/2+y,1/2-z
5 -x,-y,-z
6 x,-y,1/2+z
7 1/2-x,1/2-y,-z
8 1/2+x,1/2-y,1/2+z
_cell_length_a                   19.520(6)
_cell_length_b                   17.985(6)
_cell_length_c                   12.605(4)
_cell_angle_alpha                90
_cell_angle_beta                 99.035(5)
_cell_angle_gamma                90
_cell_volume                     4370.3
loop_
_atom_site_label
_atom_site_type_symbol
_atom_site_fract_x
_atom_site_fract_y
_atom_site_fract_z
C1 C 0.2391(2) 0.8980(3) 0.6092(3)
H1 H 0.2380 0.9486 0.5943
C2 C 0.2438(2) 0.8499(3) 0.5268(4)
H2 H 0.2451 0.8686 0.4583
C3 C 0.2467(2) 0.7762(3) 0.5429(4)
C4 C 0.2459(3) 0.7542(3) 0.6463(4)
H3 H 0.2485 0.7038 0.6631
C5 C 0.2414(2) 0.8052(2) 0.7257(3)
H4 H 0.2422 0.7881 0.7955
C6 C 0.3534(2) 0.9375(3) 0.9837(3)
H5 H 0.3270 0.9049 1.0179
C7 C 0.4209(2) 0.9466(3) 1.0247(4)
H6 H 0.4398 0.9197 1.0853
C8 C 0.4624(2) 0.9946(2) 0.9791(3)
C9 C 0.4317(3) 1.0313(3) 0.8879(4)
H7 H 0.4575 1.0635 0.8520
C10 C 0.3630(2) 1.0200(3) 0.8510(4)
H8 H 0.3428 1.0464 0.7906
C11 C 0.1643(2) 0.9032(3) 0.9858(4)
C12 C 0.1245(2) 0.8577(3) 1.0554(4)
C13 C 0.0837(2) 0.7980(2) 1.0131(3)
H9 H 0.0841 0.7841 0.9421
C14 C 0.0427(2) 0.7590(2) 1.0730(4)
H10 H 0.0171 0.7187 1.0422
C15 C 0.0389(2) 0.7782(2) 1.1772(3)
C16 C 0.0771(2) 0.8382(3) 1.2204(3)
H11 H 0.0743 0.8533 1.2902
C17 C 0.1204(3) 0.8769(2) 1.1604(4)
C18 C 0.1672(2) 0.9356(2) 1.2166(3)
C19 C 0.0000 0.7308(3) 1.2500
C20 C -0.0546(2) 0.6801(3) 1.1870(4)
F1 F -0.09473(13) 0.71894(14) 1.10922(19)
F2 F -0.02772(14) 0.62471(14) 1.1359(2)
F3 F -0.09612(14) 0.65053(14) 1.24788(19)
N1 N 0.2360(2) 0.87735(19) 0.7078(3)
N2 N 0.32275(19) 0.9732(2) 0.8963(3)
O1 O 0.17141(17) 0.97145(17) 1.0011(3)
O2 O 0.18994(17) 0.86867(17) 0.9224(2)
O3 O 0.22875(18) 0.93281(17) 1.2156(3)
O4 O 0.14276(18) 0.98492(19) 1.2614(3)
Zn1 Zn 0.22288(2) 0.94985(2) 0.82877(3)
C1F C 0.2609(2) 0.6020(3) 0.3908(3)
H1F H 0.2620 0.5514 0.4057
C2F C 0.2562(2) 0.6501(3) 0.4732(4)
H2F H 0.2549 0.6314 0.5417
C3F C 0.2533(2) 0.7238(3) 0.4571(4)
C4F C 0.2541(3) 0.7458(3) 0.3537(4)
H3F H 0.2515 0.7962 0.3369
C5F C 0.2586(2) 0.6948(2) 0.2743(3)
H4F H 0.2578 0.7119 0.2045
C6D C 0.6466(2) 1.0625(3) 1.0163(3)
H5D H 0.6730 1.0951 0.9821
C7D C 0.5791(2) 1.0534(3) 0.9753(4)
H6D H 0.5602 1.0803 0.9147
C8D C 0.5376(2) 1.0054(2) 1.0209(3)
C9D C 0.5683(3) 0.9687(3) 1.1121(4)
H7D H 0.5425 0.9365 1.1480
C10D C 0.6370(2) 0.9800(3) 1.1490(4)
H8D H 0.6572 0.9536 1.2094
C11A C -0.1643(2) 0.9032(3) 1.5142(4)
C12A C -0.1245(2) 0.8577(3) 1.4446(4)
C13A C -0.0837(2) 0.7980(2) 1.4869(3)
H9A H -0.0841 0.7841 1.5579
C14A C -0.0427(2) 0.7590(2) 1.4270(4)
H10A H -0.0171 0.7187 1.4578
C15A C -0.0389(2) 0.7782(2) 1.3228(3)
C16A C -0.0771(2) 0.8382(3) 1.2796(3)
H11A H -0.0743 0.8533 1.2098
C17A C -0.1204(3) 0.8769(2) 1.3396(4)
C18A C -0.1672(2) 0.9356(2) 1.2834(3)
C20A C 0.0546(2) 0.6801(3) 1.3130(4)
F1A F 0.09473(13) 0.71894(14) 1.39078(19)
F2A F 0.02772(14) 0.62471(14) 1.3641(2)
F3A F 0.09612(14) 0.65053(14) 1.25212(19)
N1F N 0.2640(2) 0.62265(19) 0.2922(3)
N2D N 0.67725(19) 1.0268(2) 1.1037(3)
N2F N 0.17725(19) 0.5268(2) 0.1037(3)
O1A O -0.17141(17) 0.97145(17) 1.4989(3)
O2A O -0.18994(17) 0.86867(17) 1.5776(2)
O2F O 0.31006(17) 0.63133(17) 0.0776(2)
O3A O -0.22875(18) 0.93281(17) 1.2844(3)
O4A O -0.14276(18) 0.98492(19) 1.2386(3)
O4E O 0.14276(18) 1.01508(19) 0.7614(3)
O4C O 0.35724(18) 0.48492(19) 0.2386(3)
Zn1F Zn 0.27712(2) 0.55015(2) 0.17123(3)
Zn1E Zn 0.22288(2) 1.05015(2) 1.32877(3)
Zn1D Zn 0.77712(2) 1.05015(2) 1.17123(3)
Zn1A Zn -0.22288(2) 0.94985(2) 1.67123(3)
Zn1D_2 Zn -0.22288(2) 1.05015(2) 1.17123(3)
O5 O 0.3226(4) 0.8210(4) 0.1523(6)
H12 H 0.3135 0.8326 0.2139
H13 H 0.3473 0.7818 0.1574
O6 O 0.4372(6) 0.6630(6) 0.3300(9)
H14 H 0.4094 0.6900 0.3585
H15 H 0.4152 0.6416 0.2747
O7 O 0.4446(6) 0.5668(6) 0.5282(8)
H16 H 0.4062 0.5484 0.4982
H17 H 0.4640 0.5368 0.5759
loop_
_geom_bond_atom_site_label_1
_geom_bond_atom_site_label_2
_geom_bond_site_symmetry_1
_geom_bond_site_symmetry_2
C1 H1 1_555 1_555
C2 C1 1_555 1_555
H2 C2 1_555 1_555
C3 C2 1_555 1_555
C4 C3 1_555 1_555
H3 C4 1_555 1_555
C5 C4 1_555 1_555
H4 C5 1_555 1_555
C6 H5 1_555 1_555
C7 C6 1_555 1_555
H6 C7 1_555 1_555
C8 C7 1_555 1_555
C9 C8 1_555 1_555
H7 C9 1_555 1_555
C10 C9 1_555 1_555
H8 C10 1_555 1_555
C11 C12 1_555 1_555
C12 C13 1_555 1_555
C13 H9 1_555 1_555
C14 C13 1_555 1_555
H10 C14 1_555 1_555
C15 C14 1_555 1_555
C16 C15 1_555 1_555
H11 C16 1_555 1_555
C17 C12 1_555 1_555
C18 C17 1_555 1_555
C19 C15 1_555 1_555
C20 C19 1_555 1_555
F1 C20 1_555 1_555
F2 C20 1_555 1_555
F3 C20 1_555 1_555
N1 C1 1_555 1_555
N2 C6 1_555 1_555
O1 C11 1_555 1_555
O2 C11 1_555 1_555
O3 C18 1_555 1_555
O4 C18 1_555 1_555
O5 H12 1_555 1_555
H13 O5 1_555 1_555
O6 H14 1_555 1_555
H15 O6 1_555 1_555
O7 H16 1_555 1_555
H17 O7 1_555 1_555
Zn1 N1 1_555 1_555
C1F H1F 1_555 1_555
C2F C1F 1_555 1_555
H2F C2F 1_555 1_555
C3F C3 1_555 1_555
C4F C3F 1_555 1_555
H3F C4F 1_555 1_555
C5F C4F 1_555 1_555
H4F C5F 1_555 1_555
C6D H5D 1_555 1_555
C7D C6D 1_555 1_555
H6D C7D 1_555 1_555
C8D C8 1_555 1_555
C9D C8D 1_555 1_555
H7D C9D 1_555 1_555
C10D C9D 1_555 1_555
H8D C10D 1_555 1_555
C11A C12A 1_555 1_555
C12A C13A 1_555 1_555
C13A H9A 1_555 1_555
C14A C13A 1_555 1_555
H10A C14A 1_555 1_555
C15A C19 1_555 1_555
C16A C15A 1_555 1_555
H11A C16A 1_555 1_555
C17A C12A 1_555 1_555
C18A C17A 1_555 1_555
C20A C19 1_555 1_555
F1A C20A 1_555 1_555
F2A C20A 1_555 1_555
F3A C20A 1_555 1_555
N1F C1F 1_555 1_555
N2D C6D 1_555 1_555
N2F Zn1F 1_555 1_555
O1A C11A 1_555 1_555
O2A C11A 1_555 1_555
O2F Zn1F 1_555 1_555
O3A C18A 1_555 1_555
O4A C18A 1_555 1_555
O4E Zn1 1_555 1_555
O4C Zn1F 1_555 1_555
Zn1F N1F 1_555 1_555
Zn1E O4 1_555 1_555
Zn1D N2D 1_555 1_555
Zn1A O2A 1_555 1_555
Zn1D_2 O4A 1_555 1_555
C5 N1 1_555 1_555
C10 N2 1_555 1_555
C16 C17 1_555 1_555
N2 Zn1 1_555 1_555
O2 Zn1 1_555 1_555
C2F C3F 1_555 1_555
C5F N1F 1_555 1_555
C7D C8D 1_555 1_555
C10D N2D 1_555 1_555
C14A C15A 1_555 1_555
C16A C17A 1_555 1_555

#END
