
#######################################################################
#
#                 Cambridge Crystallographic Data Centre
#                                CCDC 
#
#######################################################################
#
# If this CIF has been generated from an entry in the Cambridge 
# Structural Database, then it will include bibliographic, chemical, 
# crystal, experimental, refinement or atomic coordinate data resulting 
# from the CCDC's data processing and validation procedures.
#
#######################################################################

data_GUMDEZ
_symmetry_cell_setting           monoclinic
_symmetry_space_group_name_H-M   'P 21/n'
_symmetry_Int_Tables_number      14
_space_group_name_Hall           '-P 2yn'
loop_
_symmetry_equiv_pos_site_id
_symmetry_equiv_pos_as_xyz
1 x,y,z
2 1/2-x,1/2+y,1/2-z
3 -x,-y,-z
4 1/2+x,1/2-y,1/2+z
_cell_length_a                   11.27(2)
_cell_length_b                   9.842(20)
_cell_length_c                   13.99(3)
_cell_angle_alpha                90
_cell_angle_beta                 93.25(2)
_cell_angle_gamma                90
_cell_volume                     1549.27
loop_
_atom_site_label
_atom_site_type_symbol
_atom_site_fract_x
_atom_site_fract_y
_atom_site_fract_z
Zn1 Zn 0.74472(14) 0.25233(15) 0.84055(12)
S1 S 0.7774(3) 0.0650(4) 0.6737(3)
C1 C 0.5985(16) 0.3028(16) 1.0070(12)
H1 H 0.6291 0.3905 1.0110
C2 C 0.5671(13) 0.0979(16) 0.9612(12)
C3 C 0.5634(13) -0.0260(15) 0.9148(11)
H2 H 0.6026 -0.0430 0.8593
C4 C 0.4957(13) -0.1225(16) 0.9587(12)
C5 C 0.9807(16) 0.3183(18) 0.9392(13)
H3 H 0.9756 0.4095 0.9223
C6 C 1.0428(12) 0.1259(15) 1.0045(10)
C7 C 1.1079(13) 0.0294(16) 1.0593(11)
H4 H 1.1748 0.0509 1.0984
C8 C 0.9371(14) 0.1005(15) 0.9504(10)
C9 C 0.8963(10) 0.1035(13) 0.6940(9)
H5 H 0.9096 0.1917 0.6674
H6 H 0.9480 0.0387 0.6663
H7 H 0.9126 0.1062 0.7620
C10 C 0.7416(12) 0.0628(11) 0.5737(8)
H8 H 0.7536 0.1511 0.5467
H9 H 0.6590 0.0390 0.5659
H10 H 0.7882 -0.0029 0.5418
N1 N 0.6257(11) 0.2175(12) 0.9363(10)
N2 N 0.8983(11) 0.2204(12) 0.9072(8)
N3 N 1.0645(12) 0.2687(12) 0.9947(10)
N4 N 0.4711(12) -0.2577(13) 0.9317(10)
O1 O 0.7002(9) 0.1501(11) 0.7270(7)
O2 O 0.7615(13) -0.0690(12) 0.7145(8)
C1B C 0.4015(16) -0.3028(16) 0.9930(12)
H1B H 0.3709 -0.3905 0.9890
C2B C 0.4329(13) -0.0979(16) 1.0388(12)
C3B C 0.4366(13) 0.0260(15) 1.0852(11)
H2B H 0.3974 0.0430 1.1407
C4B C 0.5043(13) 0.1225(16) 1.0413(12)
N1B N 0.3743(11) -0.2175(12) 1.0637(10)
N4B N 0.5289(12) 0.2577(13) 1.0683(10)
C5B C 1.0193(16) -0.3183(18) 1.0608(13)
H3B H 1.0244 -0.4095 1.0777
C6B C 0.9572(12) -0.1259(15) 0.9955(10)
C7B C 0.8921(13) -0.0294(16) 0.9407(11)
H4B H 0.8252 -0.0509 0.9016
C8B C 1.0629(14) -0.1005(15) 1.0496(10)
N2B N 1.1017(11) -0.2204(12) 1.0928(8)
N3B N 0.9355(12) -0.2687(12) 1.0053(10)
Zn1B Zn 0.25528(14) -0.25233(15) 1.15945(12)
S1B S 0.2226(3) -0.0650(4) 1.3263(3)
C9B C 0.1037(10) -0.1035(13) 1.3060(9)
H5B H 0.0904 -0.1917 1.3326
H6B H 0.0520 -0.0387 1.3337
H7B H 0.0874 -0.1062 1.2380
C10B C 0.2584(12) -0.0628(11) 1.4263(8)
H8B H 0.2464 -0.1511 1.4533
H9B H 0.3410 -0.0390 1.4341
H10B H 0.2118 0.0029 1.4582
O1B O 0.2998(9) -0.1501(11) 1.2730(7)
O2B O 0.2385(13) 0.0690(12) 1.2855(8)
Zn1A Zn 0.75528(14) -0.24767(15) 0.65945(12)
Zn1B_2 Zn 1.25528(14) -0.25233(15) 1.15945(12)
Zn1C Zn 0.24472(14) 0.24767(15) 1.34055(12)
N2B_2 N 0.1017(11) -0.2204(12) 1.0928(8)
O2A O 0.7385(13) 0.4310(12) 0.7855(8)
O2C O 0.2615(13) -0.4310(12) 1.2145(8)
S2 S 0.2347(10) 0.4039(16) 0.7845(8)
C11 C 0.343(2) 0.331(3) 0.8327(18)
H11 H 0.3562 0.2474 0.7997
H12 H 0.3278 0.3120 0.8982
H13 H 0.4115 0.3880 0.8302
C12 C 0.311(3) 0.419(3) 0.683(2)
H14 H 0.2961 0.5074 0.6555
H15 H 0.2850 0.3504 0.6383
H16 H 0.3944 0.4091 0.6990
O3 O 0.180(9) 0.566(5) 0.840(2)
loop_
_geom_bond_atom_site_label_1
_geom_bond_atom_site_label_2
_geom_bond_site_symmetry_1
_geom_bond_site_symmetry_2
Zn1 N1 1_555 1_555
S1 C9 1_555 1_555
C1 H1 1_555 1_555
C2 C3 1_555 1_555
C3 H2 1_555 1_555
C4 C3 1_555 1_555
C5 H3 1_555 1_555
C6 C7 1_555 1_555
C7 H4 1_555 1_555
C8 C6 1_555 1_555
C9 H5 1_555 1_555
H6 C9 1_555 1_555
H7 C9 1_555 1_555
C10 S1 1_555 1_555
H8 C10 1_555 1_555
H9 C10 1_555 1_555
H10 C10 1_555 1_555
N1 C1 1_555 1_555
N2 Zn1 1_555 1_555
N3 C5 1_555 1_555
N4 C4 1_555 1_555
O1 Zn1 1_555 1_555
O2 S1 1_555 1_555
S2 C11 1_555 1_555
C11 H11 1_555 1_555
H12 C11 1_555 1_555
H13 C11 1_555 1_555
C12 S2 1_555 1_555
H14 C12 1_555 1_555
H15 C12 1_555 1_555
H16 C12 1_555 1_555
O3 S2 1_555 1_555
C1B N4 1_555 1_555
H1B C1B 1_555 1_555
C2B C4 1_555 1_555
C3B C2B 1_555 1_555
H2B C3B 1_555 1_555
C4B C2 1_555 1_555
N1B C1B 1_555 1_555
N4B C1 1_555 1_555
C5B H3B 1_555 1_555
C6B C7B 1_555 1_555
C7B C8 1_555 1_555
H4B C7B 1_555 1_555
C8B C7 1_555 1_555
N2B C5B 1_555 1_555
N3B C5B 1_555 1_555
Zn1B N1B 1_555 1_555
S1B C9B 1_555 1_555
C9B H5B 1_555 1_555
H6B C9B 1_555 1_555
H7B C9B 1_555 1_555
C10B S1B 1_555 1_555
H8B C10B 1_555 1_555
H9B C10B 1_555 1_555
H10B C10B 1_555 1_555
O1B Zn1B 1_555 1_555
O2B S1B 1_555 1_555
Zn1A O2 1_555 1_555
Zn1B_2 N2B 1_555 1_555
Zn1C O2B 1_555 1_555
N2B_2 Zn1B 1_555 1_555
O2A Zn1 1_555 1_555
O2C Zn1B 1_555 1_555
S1 O1 1_555 1_555
C2 N1 1_555 1_555
C5 N2 1_555 1_555
C6 N3 1_555 1_555
C8 N2 1_555 1_555
C2B N1B 1_555 1_555
C3B C4B 1_555 1_555
C4B N4B 1_555 1_555
C6B C8B 1_555 1_555
C6B N3B 1_555 1_555
C8B N2B 1_555 1_555
S1B O1B 1_555 1_555

#END
