
#######################################################################
#
#                 Cambridge Crystallographic Data Centre
#                                CCDC 
#
#######################################################################
#
# If this CIF has been generated from an entry in the Cambridge 
# Structural Database, then it will include bibliographic, chemical, 
# crystal, experimental, refinement or atomic coordinate data resulting 
# from the CCDC's data processing and validation procedures.
#
#######################################################################

data_GUPLIN
_symmetry_cell_setting           monoclinic
_symmetry_space_group_name_H-M   'C 2/c'
_symmetry_Int_Tables_number      15
_space_group_name_Hall           '-C 2yn'
loop_
_symmetry_equiv_pos_site_id
_symmetry_equiv_pos_as_xyz
1 x,y,z
2 1/2+x,1/2+y,z
3 -x,y,1/2-z
4 1/2-x,1/2+y,1/2-z
5 -x,-y,-z
6 1/2-x,1/2-y,-z
7 x,-y,1/2+z
8 1/2+x,1/2-y,1/2+z
_cell_length_a                   22.8859(37)
_cell_length_b                   10.1772(16)
_cell_length_c                   10.0984(12)
_cell_angle_alpha                90
_cell_angle_beta                 114.426(10)
_cell_angle_gamma                90
_cell_volume                     2141.54
loop_
_atom_site_label
_atom_site_type_symbol
_atom_site_fract_x
_atom_site_fract_y
_atom_site_fract_z
Cu1 Cu 0.84568(24) 0.60241(66) 0.03916(53)
C1 C 0.812840 0.461880 0.237110
C2 C 0.871120 0.537050 0.312150
O1 O 0.899870 0.585950 0.242260
O2 O 0.892620 0.552940 0.446750
N1 N 0.781870 0.465730 0.086230
C3 C 0.726000 0.393680 0.014290
O3 O 0.695920 0.397420 -0.132240
N2 N 0.70111 0.31777 0.09322
H1 H 0.662930 0.268520 0.044050
C4 C 0.732090 0.313920 0.244090
O4 O 0.707910 0.240190 0.320750
N3 N 0.787950 0.385970 0.316040
N4 N 0.910030 0.720950 0.008630
C5 C 0.880300 0.842190 -0.051370
H2 H 0.832420 0.847240 -0.092000
C6 C 0.915730 0.952070 -0.054770
H3 H 0.892440 1.033400 -0.097760
C7 C 0.980880 0.940710 0.001830
C8 C 1.013420 0.828170 0.061570
H4 H 1.060410 0.820350 0.102280
C9 C 0.977990 0.718290 0.064970
H5 H 1.000380 0.634190 0.108040
Cu1F Cu 0.84568(24) 0.39759(66) -0.46084(53)
Cu1F_2 Cu 0.84568(24) 0.39759(66) 0.53916(53)
Cu1C Cu 0.65432(24) 0.10241(66) 0.46084(53)
Cu1D Cu 1.15432(24) 1.39759(66) -0.03916(53)
Cu1E Cu 0.65432(24) 0.89759(66) -0.03916(53)
C1F C 0.812840 0.538120 -0.262890
C2F C 0.871120 0.462950 -0.187850
O1F O 0.899870 0.414050 -0.257740
O2F O 0.892620 0.447060 -0.053250
O2_2 O 0.892620 0.552940 -0.553250
N1F N 0.781870 0.534270 -0.413770
C3F C 0.726000 0.606320 -0.485710
O3F O 0.695920 0.602580 -0.632240
N2F N 0.70111 0.68223 -0.40678
H1F H 0.662930 0.731480 -0.455950
C4F C 0.732090 0.686080 -0.255910
O4F O 0.707910 0.759810 -0.179250
O4C O 0.792090 0.740190 0.179250
O4E O 0.792090 0.259810 -0.320750
N3F N 0.787950 0.614030 -0.183960
N3_2 N 0.787950 0.385970 -0.683960
N4D N 1.089970 1.279050 -0.008630
N4F N 0.910030 0.279050 -0.491370
C5D C 1.119700 1.157810 0.051370
H2D H 1.167580 1.152760 0.092000
C6D C 1.084270 1.047930 0.054770
H3D H 1.107560 0.966600 0.097760
C7D C 1.019120 1.059290 -0.001830
C8D C 0.986580 1.171830 -0.061570
H4D H 0.939590 1.179650 -0.102280
C9D C 1.022010 1.281710 -0.064970
H5D H 0.999620 1.365810 -0.108040
loop_
_geom_bond_atom_site_label_1
_geom_bond_atom_site_label_2
_geom_bond_site_symmetry_1
_geom_bond_site_symmetry_2
Cu1 O1 1_555 1_555
C1 C2 1_555 1_555
C2 O1 1_555 1_555
O2 C2 1_555 1_555
N1 Cu1 1_555 1_555
C3 N1 1_555 1_555
O3 C3 1_555 1_555
N2 C3 1_555 1_555
H1 N2 1_555 1_555
C4 N2 1_555 1_555
O4 C4 1_555 1_555
N3 C1 1_555 1_555
N4 Cu1 1_555 1_555
C5 N4 1_555 1_555
H2 C5 1_555 1_555
C6 C5 1_555 1_555
H3 C6 1_555 1_555
C7 C6 1_555 1_555
C8 C7 1_555 1_555
H4 C8 1_555 1_555
C9 N4 1_555 1_555
H5 C9 1_555 1_555
Cu1F O1F 1_555 1_555
Cu1F_2 O2 1_555 1_555
Cu1C O4 1_555 1_555
Cu1D N4D 1_555 1_555
Cu1E O4F 1_555 1_555
C1F C2F 1_555 1_555
C2F O1F 1_555 1_555
O2F Cu1 1_555 1_555
O2_2 Cu1F 1_555 1_555
N1F Cu1F 1_555 1_555
C3F N1F 1_555 1_555
O3F C3F 1_555 1_555
N2F C3F 1_555 1_555
H1F N2F 1_555 1_555
C4F N2F 1_555 1_555
O4F C4F 1_555 1_555
O4C Cu1 1_555 1_555
O4E Cu1F 1_555 1_555
N3F Cu1 1_555 1_555
N3_2 Cu1F 1_555 1_555
N4D C5D 1_555 1_555
N4F Cu1F 1_555 1_555
C5D H2D 1_555 1_555
C6D C5D 1_555 1_555
H3D C6D 1_555 1_555
C7D C7 1_555 1_555
C8D C7D 1_555 1_555
H4D C8D 1_555 1_555
C9D N4D 1_555 1_555
H5D C9D 1_555 1_555
C1 N1 1_555 1_555
C4 N3 1_555 1_555
N3 Cu1F_2 1_555 1_555
C8 C9 1_555 1_555
C1F N1F 1_555 1_555
C1F N3F 1_555 1_555
C2F O2F 1_555 1_555
C4F N3F 1_555 1_555
C6D C7D 1_555 1_555
C8D C9D 1_555 1_555

#END
