
#######################################################################
#
#                 Cambridge Crystallographic Data Centre
#                                CCDC 
#
#######################################################################
#
# If this CIF has been generated from an entry in the Cambridge 
# Structural Database, then it will include bibliographic, chemical, 
# crystal, experimental, refinement or atomic coordinate data resulting 
# from the CCDC's data processing and validation procedures.
#
#######################################################################

data_GUWDUY
_symmetry_cell_setting           triclinic
_symmetry_space_group_name_H-M   'P -1'
_symmetry_Int_Tables_number      2
_space_group_name_Hall           '-P 1'
loop_
_symmetry_equiv_pos_site_id
_symmetry_equiv_pos_as_xyz
1 x,y,z
2 -x,-y,-z
_cell_length_a                   13.447(3)
_cell_length_b                   13.715(3)
_cell_length_c                   14.301(3)
_cell_angle_alpha                79.48(3)
_cell_angle_beta                 63.90(3)
_cell_angle_gamma                65.68(3)
_cell_volume                     2158.33
loop_
_atom_site_label
_atom_site_type_symbol
_atom_site_fract_x
_atom_site_fract_y
_atom_site_fract_z
La1 La 0.52419(3) 0.91954(3) 0.65813(2)
Cl1 Cl 0.37762(9) 1.09439(10) 0.57166(8)
Cl2 Cl 0.57456(11) 0.84105(11) 0.83424(9)
Cl3 Cl 0.42770(11) 0.78323(11) 0.64303(10)
N1 N 0.2980(3) 0.9730(3) 0.8222(3)
N2 N 0.4775(4) 1.1054(4) 0.7463(3)
N3 N 0.7337(3) 0.7337(4) 0.5935(3)
N4 N 0.7184(3) 0.9781(4) 0.5829(3)
C1 C 0.8618(4) 0.5853(4) 0.4760(4)
H1 H 0.8749 0.5476 0.4195
C2 C 0.4376(5) 1.2968(4) 0.8312(4)
C3 C 0.0626(4) 0.9951(4) 0.9637(4)
C4 C 0.9444(4) 0.5493(4) 0.5198(4)
C5 C 0.7609(4) 0.6758(4) 0.5143(4)
H2 H 0.7065 0.6986 0.4819
C6 C 0.2753(4) 0.9060(5) 0.9029(4)
H3 H 0.3414 0.8490 0.9113
C7 C 0.4121(4) 1.3978(4) 0.8770(4)
C8 C 0.1621(4) 0.9147(5) 0.9742(4)
H4 H 0.1522 0.8656 1.0306
C9 C 0.3988(5) 1.4035(5) 0.9784(4)
H5 H 0.4071 1.3413 1.0210
C10 C 0.4528(5) 1.1138(4) 0.8476(4)
H6 H 0.4472 1.0536 0.8916
C11 C 0.0851(4) 1.0663(4) 0.8819(4)
H7 H 0.0207 1.1239 0.8715
C12 C 0.7762(4) 1.0065(5) 0.4860(4)
H8 H 0.7402 1.0212 0.4382
C13 C 0.4627(4) 1.2886(4) 0.7268(4)
H9 H 0.4661 1.3486 0.6820
C14 C 0.2015(4) 1.0531(4) 0.8156(4)
H10 H 0.2140 1.1043 0.7616
C15 C 0.9407(4) 0.9968(5) 0.5174(4)
C16 C 0.4828(5) 1.1944(4) 0.6877(4)
H11 H 0.5013 1.1916 0.6158
C17 C 0.3999(5) 1.4937(4) 0.8196(4)
H12 H 0.4062 1.4954 0.7506
N5 N 0.3636(4) 1.5925(4) 0.9616(4)
C18 C 0.4351(5) 1.2047(4) 0.8905(4)
H13 H 0.4211 1.2045 0.9617
C19 C 0.8859(4) 1.0157(5) 0.4512(4)
H14 H 0.9233 1.0353 0.3809
C20 C 0.3787(5) 1.5857(5) 0.8642(4)
H15 H 0.3746 1.6484 0.8224
C21 C 0.9178(5) 0.6075(6) 0.6018(5)
H16 H 0.9710 0.5862 0.6351
C22 C 0.3734(5) 1.5004(5) 1.0163(5)
H17 H 0.3618 1.5024 1.0865
C23 C 0.8139(5) 0.6969(6) 0.6360(5)
H18 H 0.7980 0.7350 0.6933
C24 C 0.7700(6) 0.9645(8) 0.6466(5)
H19 H 0.7295 0.9479 0.7172
C25 C 0.8781(6) 0.9726(9) 0.6186(5)
H20 H 0.9097 0.9615 0.6692
La1A La 0.47581(3) 1.08046(3) 0.34187(2)
La1A_2 La -0.52419(3) 1.08046(3) 1.34187(2)
La1A_3 La 1.47581(3) 0.08046(3) 0.34187(2)
La1A_4 La 1.47581(3) 1.08046(3) 0.34187(2)
Cl1A Cl 0.62238(9) 0.90561(10) 0.42834(8)
Cl2A Cl 0.42544(11) 1.15895(11) 0.16576(9)
Cl3A Cl 0.57230(11) 1.21677(11) 0.35697(10)
N1A N -0.2980(3) 1.0270(3) 1.1778(3)
N1A_2 N 0.7020(3) 1.0270(3) 0.1778(3)
N2A N 0.5225(4) 0.8946(4) 0.2537(3)
N3A N 1.2663(3) 0.2663(4) 0.4065(3)
N3A_2 N 0.2663(3) 1.2663(4) 0.4065(3)
N4A N 1.2816(3) 1.0219(4) 0.4171(3)
N4A_2 N 0.2816(3) 1.0219(4) 0.4171(3)
C1A C 1.1382(4) 0.4147(4) 0.5240(4)
H1A H 1.1251 0.4524 0.5805
C2A C 0.5624(5) 0.7032(4) 0.1688(4)
C3A C -0.0626(4) 1.0049(4) 1.0363(4)
C4A C 1.0556(4) 0.4507(4) 0.4802(4)
C5A C 1.2391(4) 0.3242(4) 0.4857(4)
H2A H 1.2935 0.3014 0.5181
C6A C -0.2753(4) 1.0940(5) 1.0971(4)
H3A H -0.3414 1.1510 1.0887
C7A C 0.5879(4) 0.6022(4) 0.1230(4)
C8A C -0.1621(4) 1.0853(5) 1.0258(4)
H4A H -0.1522 1.1344 0.9694
C9A C 0.6012(5) 0.5965(5) 0.0216(4)
H5A H 0.5929 0.6587 -0.0210
C10A C 0.5472(5) 0.8862(4) 0.1524(4)
H6A H 0.5528 0.9464 0.1084
C11A C -0.0851(4) 0.9337(4) 1.1181(4)
H7A H -0.0207 0.8761 1.1285
C12A C 1.2238(4) 0.9935(5) 0.5140(4)
H8A H 1.2598 0.9788 0.5618
C13A C 0.5373(4) 0.7114(4) 0.2732(4)
H9A H 0.5339 0.6514 0.3180
C14A C -0.2015(4) 0.9469(4) 1.1844(4)
H10A H -0.2140 0.8957 1.2384
C15A C 1.0593(4) 1.0032(5) 0.4826(4)
C16A C 0.5172(5) 0.8056(4) 0.3123(4)
H11A H 0.4987 0.8084 0.3842
C17A C 0.6001(5) 0.5063(4) 0.1804(4)
H12A H 0.5938 0.5046 0.2494
N5A N 0.6364(4) 0.4075(4) 0.0384(4)
C18A C 0.5649(5) 0.7953(4) 0.1095(4)
H13A H 0.5789 0.7955 0.0383
C19A C 1.1141(4) 0.9843(5) 0.5488(4)
H14A H 1.0767 0.9647 0.6191
C20A C 0.6213(5) 0.4143(5) 0.1358(4)
H15A H 0.6254 0.3516 0.1776
C21A C 1.0822(5) 0.3925(6) 0.3982(5)
H16A H 1.0290 0.4138 0.3649
C22A C 0.6266(5) 0.4996(5) -0.0163(5)
H17A H 0.6382 0.4976 -0.0865
C23A C 1.1861(5) 0.3031(6) 0.3640(5)
H18A H 1.2020 0.2650 0.3067
C24A C 1.2300(6) 1.0355(8) 0.3534(5)
H19A H 1.2705 1.0521 0.2828
C25A C 1.1219(6) 1.0274(9) 0.3814(5)
H20A H 1.0903 1.0385 0.3308
C26 C 0.6132(5) 0.5282(5) 0.4968(5)
H21 H 0.5537 0.5984 0.5090
N6 N 0.6531(5) 0.4835(4) 0.4062(4)
C27 C 0.6515(5) 0.4805(5) 0.5749(4)
H22 H 0.6182 0.5168 0.6386
C28 C 0.7399(6) 0.3778(5) 0.5587(4)
C29 C 0.7865(6) 0.3246(5) 0.6399(5)
N7 N 0.8784(6) 0.2252(5) 0.7908(4)
C30 C 0.7835(8) 0.3310(5) 0.4649(5)
H23 H 0.8450 0.2618 0.4495
C31 C 0.7374(8) 0.3852(6) 0.3926(6)
H24 H 0.7677 0.3501 0.3288
C32 C 0.7274(8) 0.3253(8) 0.7396(7)
H25 H 0.6433 0.3629 0.7652
C33 C 0.7734(11) 0.2775(10) 0.8119(8)
H26 H 0.7197 0.2858 0.8833
C34 C 0.9635(9) 0.2199(9) 0.6868(8)
H27 H 1.0466 0.1870 0.6711
C35 C 0.9244(8) 0.2635(8) 0.6077(7)
H28 H 0.9791 0.2564 0.5367
C36 C -0.0243(5) 0.7260(5) 0.9614(4)
C37 C 0.0777(5) 0.7454(5) 0.8993(4)
H29 H 0.1478 0.7088 0.9120
C38 C 0.0787(6) 0.8180(5) 0.8183(5)
H30 H 0.1509 0.8293 0.7768
C39 C -0.0309(5) 0.6483(5) 1.0489(4)
N8 N -0.0150(5) 0.8729(6) 0.7949(5)
C40 C 0.0690(7) 0.5624(7) 1.0506(7)
H31 H 0.1444 0.5495 0.9934
N9 N -0.0424(5) 0.5026(5) 1.2174(5)
C41 C -0.1336(6) 0.6530(8) 1.1311(7)
H32 H -0.2067 0.7085 1.1346
C42 C -0.1233(6) 0.7824(7) 0.9385(6)
H33 H -0.1959 0.7712 0.9781
C43 C 0.0584(7) 0.4955(8) 1.1359(8)
H34 H 0.1295 0.4396 1.1363
C44 C -0.1149(7) 0.8556(8) 0.8568(7)
H35 H -0.1846 0.8958 0.8443
C45 C -0.1341(7) 0.5780(8) 1.2105(7)
H36 H -0.2096 0.5834 1.2646
C46? C 0.7947(13) 0.3842(13) 0.6974(11)
C47? C 0.8393(15) 0.3317(14) 0.7732(11)
C48? C 0.8235(14) 0.1791(13) 0.7489(12)
C49? C 0.7814(15) 0.2223(12) 0.6757(11)
H37? H 0.7713 0.4595 0.6879
H38? H 0.8422 0.3752 0.8158
H39? H 0.8178 0.1123 0.7770
H40? H 0.7506 0.1875 0.6497
loop_
_geom_bond_atom_site_label_1
_geom_bond_atom_site_label_2
_geom_bond_site_symmetry_1
_geom_bond_site_symmetry_2
La1 Cl1 1_555 1_555
Cl1 La1A 1_555 1_555
Cl2 La1 1_555 1_555
Cl3 La1 1_555 1_555
N1 La1 1_555 1_555
N2 La1 1_555 1_555
N3 La1 1_555 1_555
N4 La1 1_555 1_555
C1 H1 1_555 1_555
C2 C7 1_555 1_555
C3 C8 1_555 1_555
C4 C1 1_555 1_555
C5 N3 1_555 1_555
H2 C5 1_555 1_555
C6 N1 1_555 1_555
H3 C6 1_555 1_555
C7 C9 1_555 1_555
C8 C6 1_555 1_555
H4 C8 1_555 1_555
C9 H5 1_555 1_555
C10 N2 1_555 1_555
H6 C10 1_555 1_555
C11 C3 1_555 1_555
H7 C11 1_555 1_555
C12 N4 1_555 1_555
H8 C12 1_555 1_555
C13 C2 1_555 1_555
H9 C13 1_555 1_555
C14 N1 1_555 1_555
H10 C14 1_555 1_555
C15 C19 1_555 1_555
C16 N2 1_555 1_555
H11 C16 1_555 1_555
C17 C7 1_555 1_555
H12 C17 1_555 1_555
N5 C20 1_555 1_555
C18 C2 1_555 1_555
H13 C18 1_555 1_555
C19 C12 1_555 1_555
H14 C19 1_555 1_555
C20 C17 1_555 1_555
H15 C20 1_555 1_555
C21 C4 1_555 1_555
H16 C21 1_555 1_555
C22 C9 1_555 1_555
H17 C22 1_555 1_555
C23 N3 1_555 1_555
H18 C23 1_555 1_555
C24 N4 1_555 1_555
H19 C24 1_555 1_555
C25 C15 1_555 1_555
H20 C25 1_555 1_555
C26 H21 1_555 1_555
N6 C26 1_555 1_555
C27 C26 1_555 1_555
H22 C27 1_555 1_555
C28 C27 1_555 1_555
C29 C28 1_555 1_555
N7 C33 1_555 1_555
C30 C28 1_555 1_555
H23 C30 1_555 1_555
C31 N6 1_555 1_555
H24 C31 1_555 1_555
C32 C29 1_555 1_555
H25 C32 1_555 1_555
C33 C32 1_555 1_555
H26 C33 1_555 1_555
C34 N7 1_555 1_555
H27 C34 1_555 1_555
C35 C29 1_555 1_555
H28 C35 1_555 1_555
C36 C37 1_555 1_555
C37 H29 1_555 1_555
C38 C37 1_555 1_555
H30 C38 1_555 1_555
C39 C36 1_555 1_555
N8 C38 1_555 1_555
C40 C39 1_555 1_555
H31 C40 1_555 1_555
N9 C43 1_555 1_555
C41 C39 1_555 1_555
H32 C41 1_555 1_555
C42 C36 1_555 1_555
H33 C42 1_555 1_555
C43 C40 1_555 1_555
H34 C43 1_555 1_555
C44 N8 1_555 1_555
H35 C44 1_555 1_555
C45 N9 1_555 1_555
H36 C45 1_555 1_555
La1A Cl1A 1_555 1_555
La1A_2 N1A 1_555 1_555
La1A_3 N3A 1_555 1_555
La1A_4 N4A 1_555 1_555
Cl1A La1 1_555 1_555
Cl2A La1A 1_555 1_555
Cl3A La1A 1_555 1_555
N1A C6A 1_555 1_555
N1A_2 La1A 1_555 1_555
N2A La1A 1_555 1_555
N3A C5A 1_555 1_555
N3A_2 La1A 1_555 1_555
N4A C12A 1_555 1_555
N4A_2 La1A 1_555 1_555
C1A H1A 1_555 1_555
C2A C7A 1_555 1_555
C3A C3 1_555 1_555
C4A C4 1_555 1_555
C5A C1A 1_555 1_555
H2A C5A 1_555 1_555
C6A H3A 1_555 1_555
C7A C9A 1_555 1_555
C8A C3A 1_555 1_555
H4A C8A 1_555 1_555
C9A H5A 1_555 1_555
C10A N2A 1_555 1_555
H6A C10A 1_555 1_555
C11A C3A 1_555 1_555
H7A C11A 1_555 1_555
C12A H8A 1_555 1_555
C13A C2A 1_555 1_555
H9A C13A 1_555 1_555
C14A N1A 1_555 1_555
H10A C14A 1_555 1_555
C15A C15 1_555 1_555
C16A N2A 1_555 1_555
H11A C16A 1_555 1_555
C17A C7A 1_555 1_555
H12A C17A 1_555 1_555
N5A C20A 1_555 1_555
C18A C2A 1_555 1_555
H13A C18A 1_555 1_555
C19A C12A 1_555 1_555
H14A C19A 1_555 1_555
C20A C17A 1_555 1_555
H15A C20A 1_555 1_555
C21A C4A 1_555 1_555
H16A C21A 1_555 1_555
C22A C9A 1_555 1_555
H17A C22A 1_555 1_555
C23A N3A 1_555 1_555
H18A C23A 1_555 1_555
C24A N4A 1_555 1_555
H19A C24A 1_555 1_555
C25A C15A 1_555 1_555
H20A C25A 1_555 1_555
C1 C5 1_555 1_555
C10 C18 1_555 1_555
C11 C14 1_555 1_555
C13 C16 1_555 1_555
N5 C22 1_555 1_555
C21 C23 1_555 1_555
C24 C25 1_555 1_555
C30 C31 1_555 1_555
C34 C35 1_555 1_555
C41 C45 1_555 1_555
C42 C44 1_555 1_555
C1A C4A 1_555 1_555
C6A C8A 1_555 1_555
C10A C18A 1_555 1_555
C11A C14A 1_555 1_555
C13A C16A 1_555 1_555
C15A C19A 1_555 1_555
N5A C22A 1_555 1_555
C21A C23A 1_555 1_555
C24A C25A 1_555 1_555

#END
