
#######################################################################
#
#                 Cambridge Crystallographic Data Centre
#                                CCDC 
#
#######################################################################
#
# If this CIF has been generated from an entry in the Cambridge 
# Structural Database, then it will include bibliographic, chemical, 
# crystal, experimental, refinement or atomic coordinate data resulting 
# from the CCDC's data processing and validation procedures.
#
#######################################################################

data_GUXSIC
_symmetry_cell_setting           orthorhombic
_symmetry_space_group_name_H-M   'F d d d'
_symmetry_Int_Tables_number      70
_space_group_name_Hall           '-F 2uv 2vw'
loop_
_symmetry_equiv_pos_site_id
_symmetry_equiv_pos_as_xyz
1 x,y,z
2 1/4-x,1/4-y,z
3 x,1/4-y,1/4-z
4 1/4-x,y,1/4-z
5 x,1/2+y,1/2+z
6 1/4-x,3/4-y,1/2+z
7 x,3/4-y,3/4-z
8 1/4-x,1/2+y,3/4-z
9 1/2+x,y,1/2+z
10 3/4-x,1/4-y,1/2+z
11 1/2+x,1/4-y,3/4-z
12 3/4-x,y,3/4-z
13 1/2+x,1/2+y,z
14 3/4-x,3/4-y,z
15 1/2+x,3/4-y,1/4-z
16 3/4-x,1/2+y,1/4-z
17 -x,-y,-z
18 3/4+x,3/4+y,-z
19 -x,3/4+y,3/4+z
20 3/4+x,-y,3/4+z
21 -x,1/2-y,1/2-z
22 3/4+x,1/4+y,1/2-z
23 -x,1/4+y,1/4+z
24 3/4+x,1/2-y,1/4+z
25 1/2-x,-y,1/2-z
26 1/4+x,3/4+y,1/2-z
27 1/2-x,3/4+y,1/4+z
28 1/4+x,-y,1/4+z
29 1/2-x,1/2-y,-z
30 1/4+x,1/4+y,-z
31 1/2-x,1/4+y,3/4+z
32 1/4+x,1/2-y,3/4+z
_cell_length_a                   26.4473(16)
_cell_length_b                   17.9442(10)
_cell_length_c                   17.3804(11)
_cell_angle_alpha                90
_cell_angle_beta                 90
_cell_angle_gamma                90
_cell_volume                     8248.31
loop_
_atom_site_label
_atom_site_type_symbol
_atom_site_fract_x
_atom_site_fract_y
_atom_site_fract_z
Er1 Er -0.1250 0.3750 0.502830(12)
O1 O -0.07023(12) 0.30226(19) 0.43530(19)
O2 O -0.07425(12) 0.28598(18) 0.30908(18)
O3 O 0.11390(11) 0.02876(17) 0.33944(18)
O4 O 0.0675(2) -0.0369(4) 0.4195(5)
N1 N 0.04608(13) 0.13568(19) 0.33308(19)
C1 C -0.05963(15) 0.2690(2) 0.3750(3)
C2 C -0.02601(17) 0.2018(3) 0.3812(3)
C3 C 0.01407(16) 0.1929(2) 0.3321(2)
H1 H 0.0193 0.2297 0.2953
C4 C -0.0334(3) 0.1478(5) 0.4343(5)
H2 H -0.0595 0.1514 0.4699
C5 C -0.0014(3) 0.0876(6) 0.4345(6)
H3 H -0.0067 0.0492 0.4695
C6 C 0.0383(2) 0.0834(4) 0.3842(4)
C7 C 0.0758(2) 0.0191(4) 0.3815(4)
Er1F Er -0.1250 0.3750 0.247170(12)
Er1R Er 0.1250 0.1250 0.252830(12)
Er1P Er 0.1250 0.6250 0.497170(12)
O1F O -0.07023(12) 0.44774(19) 0.31470(19)
O1M O -0.17977(12) 0.44774(19) 0.43530(19)
O2F O -0.07425(12) 0.46402(18) 0.44092(18)
O2K O -0.17575(12) 0.28598(18) 0.44092(18)
O3F O 0.11390(11) 0.72124(17) 0.41056(18)
O3V O -0.11390(11) 0.27876(17) 0.58944(18)
O3W O -0.13610(11) 0.47124(17) 0.58944(18)
O4F O 0.0675(2) 0.7869(4) 0.3305(5)
N1F N 0.04608(13) 0.61432(19) 0.41692(19)
N1V N -0.04608(13) 0.38568(19) 0.58308(19)
N1W N -0.20392(13) 0.36432(19) 0.58308(19)
C1F C -0.05963(15) 0.4810(2) 0.3750(3)
C2F C -0.02601(17) 0.5482(3) 0.3688(3)
C3F C 0.01407(16) 0.5571(2) 0.4179(2)
H1F H 0.0193 0.5203 0.4547
C4F C -0.0334(3) 0.6022(5) 0.3157(5)
H2F H -0.0595 0.5986 0.2801
C5F C -0.0014(3) 0.6624(6) 0.3155(6)
H3F H -0.0067 0.7008 0.2805
C6F C 0.0383(2) 0.6666(4) 0.3658(4)
C7F C 0.0758(2) 0.7309(4) 0.3685(4)
N2 N 0.1499(3) 0.8750 0.3750
H4 H 0.1297 0.9144 0.3661
C8 C 0.1774(3) 0.8896(4) 0.4438(4)
H5 H 0.2091 0.8637 0.4422
H6 H 0.1581 0.8728 0.4873
H7 H 0.1834 0.9422 0.4482
H4F H 0.1297 0.8356 0.3839
C8F C 0.1774(3) 0.8604(4) 0.3062(4)
H5F H 0.2091 0.8863 0.3078
H6F H 0.1581 0.8772 0.2627
H7F H 0.1834 0.8078 0.3018
O5 O 0.1250 0.958(3) 0.6250
loop_
_geom_bond_atom_site_label_1
_geom_bond_atom_site_label_2
_geom_bond_site_symmetry_1
_geom_bond_site_symmetry_2
Er1 O1 1_555 1_555
O1 C1 1_555 1_555
O2 C1 1_555 1_555
O3 C7 1_555 1_555
O4 C7 1_555 1_555
N1 C3 1_555 1_555
C1 C2 1_555 1_555
C2 C3 1_555 1_555
C3 H1 1_555 1_555
C4 C2 1_555 1_555
H2 C4 1_555 1_555
C5 C4 1_555 1_555
H3 C5 1_555 1_555
C6 N1 1_555 1_555
C7 C6 1_555 1_555
N2 H4 1_555 1_555
C8 N2 1_555 1_555
H5 C8 1_555 1_555
H6 C8 1_555 1_555
H7 C8 1_555 1_555
Er1F O2 1_555 1_555
Er1R O3 1_555 1_555
Er1P O3F 1_555 1_555
O1F Er1F 1_555 1_555
O1M Er1 1_555 1_555
O2F Er1 1_555 1_555
O2K Er1 1_555 1_555
O3F C7F 1_555 1_555
O3V Er1 1_555 1_555
O3W Er1 1_555 1_555
O4F C7F 1_555 1_555
N1F Er1P 1_555 1_555
N1V Er1 1_555 1_555
N1W Er1 1_555 1_555
C1F O1F 1_555 1_555
C2F C1F 1_555 1_555
C3F N1F 1_555 1_555
H1F C3F 1_555 1_555
C4F C2F 1_555 1_555
H2F C4F 1_555 1_555
C5F C4F 1_555 1_555
H3F C5F 1_555 1_555
C6F N1F 1_555 1_555
C7F C6F 1_555 1_555
H4F N2 1_555 1_555
C8F N2 1_555 1_555
H5F C8F 1_555 1_555
H6F C8F 1_555 1_555
H7F C8F 1_555 1_555
N1 Er1R 1_555 1_555
C5 C6 1_555 1_555
O2F C1F 1_555 1_555
C2F C3F 1_555 1_555
C5F C6F 1_555 1_555

#END
