
#######################################################################
#
#                 Cambridge Crystallographic Data Centre
#                                CCDC 
#
#######################################################################
#
# If this CIF has been generated from an entry in the Cambridge 
# Structural Database, then it will include bibliographic, chemical, 
# crystal, experimental, refinement or atomic coordinate data resulting 
# from the CCDC's data processing and validation procedures.
#
#######################################################################

data_HABQUY
_symmetry_cell_setting           cubic
_symmetry_space_group_name_H-M   'F m -3 m'
_symmetry_Int_Tables_number      225
_space_group_name_Hall           '-F 4 2 3'
loop_
_symmetry_equiv_pos_site_id
_symmetry_equiv_pos_as_xyz
1 x,y,z
2 -y,x,z
3 -x,-y,z
4 y,-x,z
5 x,-z,y
6 x,-y,-z
7 x,z,-y
8 z,y,-x
9 -x,y,-z
10 -z,y,x
11 z,x,y
12 y,z,x
13 -y,-z,x
14 z,-x,-y
15 -y,z,-x
16 -z,-x,y
17 -z,x,-y
18 y,-z,-x
19 y,x,-z
20 -y,-x,-z
21 -x,z,y
22 -x,-z,-y
23 z,-y,x
24 -z,-y,-x
25 x,1/2+y,1/2+z
26 -y,1/2+x,1/2+z
27 -x,1/2-y,1/2+z
28 y,1/2-x,1/2+z
29 x,1/2-z,1/2+y
30 x,1/2-y,1/2-z
31 x,1/2+z,1/2-y
32 z,1/2+y,1/2-x
33 -x,1/2+y,1/2-z
34 -z,1/2+y,1/2+x
35 z,1/2+x,1/2+y
36 y,1/2+z,1/2+x
37 -y,1/2-z,1/2+x
38 z,1/2-x,1/2-y
39 -y,1/2+z,1/2-x
40 -z,1/2-x,1/2+y
41 -z,1/2+x,1/2-y
42 y,1/2-z,1/2-x
43 y,1/2+x,1/2-z
44 -y,1/2-x,1/2-z
45 -x,1/2+z,1/2+y
46 -x,1/2-z,1/2-y
47 z,1/2-y,1/2+x
48 -z,1/2-y,1/2-x
49 1/2+x,y,1/2+z
50 1/2-y,x,1/2+z
51 1/2-x,-y,1/2+z
52 1/2+y,-x,1/2+z
53 1/2+x,-z,1/2+y
54 1/2+x,-y,1/2-z
55 1/2+x,z,1/2-y
56 1/2+z,y,1/2-x
57 1/2-x,y,1/2-z
58 1/2-z,y,1/2+x
59 1/2+z,x,1/2+y
60 1/2+y,z,1/2+x
61 1/2-y,-z,1/2+x
62 1/2+z,-x,1/2-y
63 1/2-y,z,1/2-x
64 1/2-z,-x,1/2+y
65 1/2-z,x,1/2-y
66 1/2+y,-z,1/2-x
67 1/2+y,x,1/2-z
68 1/2-y,-x,1/2-z
69 1/2-x,z,1/2+y
70 1/2-x,-z,1/2-y
71 1/2+z,-y,1/2+x
72 1/2-z,-y,1/2-x
73 1/2+x,1/2+y,z
74 1/2-y,1/2+x,z
75 1/2-x,1/2-y,z
76 1/2+y,1/2-x,z
77 1/2+x,1/2-z,y
78 1/2+x,1/2-y,-z
79 1/2+x,1/2+z,-y
80 1/2+z,1/2+y,-x
81 1/2-x,1/2+y,-z
82 1/2-z,1/2+y,x
83 1/2+z,1/2+x,y
84 1/2+y,1/2+z,x
85 1/2-y,1/2-z,x
86 1/2+z,1/2-x,-y
87 1/2-y,1/2+z,-x
88 1/2-z,1/2-x,y
89 1/2-z,1/2+x,-y
90 1/2+y,1/2-z,-x
91 1/2+y,1/2+x,-z
92 1/2-y,1/2-x,-z
93 1/2-x,1/2+z,y
94 1/2-x,1/2-z,-y
95 1/2+z,1/2-y,x
96 1/2-z,1/2-y,-x
97 -x,-y,-z
98 y,-x,-z
99 x,y,-z
100 -y,x,-z
101 -x,z,-y
102 -x,y,z
103 -x,-z,y
104 -z,-y,x
105 x,-y,z
106 z,-y,-x
107 -z,-x,-y
108 -y,-z,-x
109 y,z,-x
110 -z,x,y
111 y,-z,x
112 z,x,-y
113 z,-x,y
114 -y,z,x
115 -y,-x,z
116 y,x,z
117 x,-z,-y
118 x,z,y
119 -z,y,-x
120 z,y,x
121 -x,1/2-y,1/2-z
122 y,1/2-x,1/2-z
123 x,1/2+y,1/2-z
124 -y,1/2+x,1/2-z
125 -x,1/2+z,1/2-y
126 -x,1/2+y,1/2+z
127 -x,1/2-z,1/2+y
128 -z,1/2-y,1/2+x
129 x,1/2-y,1/2+z
130 z,1/2-y,1/2-x
131 -z,1/2-x,1/2-y
132 -y,1/2-z,1/2-x
133 y,1/2+z,1/2-x
134 -z,1/2+x,1/2+y
135 y,1/2-z,1/2+x
136 z,1/2+x,1/2-y
137 z,1/2-x,1/2+y
138 -y,1/2+z,1/2+x
139 -y,1/2-x,1/2+z
140 y,1/2+x,1/2+z
141 x,1/2-z,1/2-y
142 x,1/2+z,1/2+y
143 -z,1/2+y,1/2-x
144 z,1/2+y,1/2+x
145 1/2-x,-y,1/2-z
146 1/2+y,-x,1/2-z
147 1/2+x,y,1/2-z
148 1/2-y,x,1/2-z
149 1/2-x,z,1/2-y
150 1/2-x,y,1/2+z
151 1/2-x,-z,1/2+y
152 1/2-z,-y,1/2+x
153 1/2+x,-y,1/2+z
154 1/2+z,-y,1/2-x
155 1/2-z,-x,1/2-y
156 1/2-y,-z,1/2-x
157 1/2+y,z,1/2-x
158 1/2-z,x,1/2+y
159 1/2+y,-z,1/2+x
160 1/2+z,x,1/2-y
161 1/2+z,-x,1/2+y
162 1/2-y,z,1/2+x
163 1/2-y,-x,1/2+z
164 1/2+y,x,1/2+z
165 1/2+x,-z,1/2-y
166 1/2+x,z,1/2+y
167 1/2-z,y,1/2-x
168 1/2+z,y,1/2+x
169 1/2-x,1/2-y,-z
170 1/2+y,1/2-x,-z
171 1/2+x,1/2+y,-z
172 1/2-y,1/2+x,-z
173 1/2-x,1/2+z,-y
174 1/2-x,1/2+y,z
175 1/2-x,1/2-z,y
176 1/2-z,1/2-y,x
177 1/2+x,1/2-y,z
178 1/2+z,1/2-y,-x
179 1/2-z,1/2-x,-y
180 1/2-y,1/2-z,-x
181 1/2+y,1/2+z,-x
182 1/2-z,1/2+x,y
183 1/2+y,1/2-z,x
184 1/2+z,1/2+x,-y
185 1/2+z,1/2-x,y
186 1/2-y,1/2+z,x
187 1/2-y,1/2-x,z
188 1/2+y,1/2+x,z
189 1/2+x,1/2-z,-y
190 1/2+x,1/2+z,y
191 1/2-z,1/2+y,-x
192 1/2+z,1/2+y,x
_cell_length_a                   59.153(6)
_cell_length_b                   59.153(6)
_cell_length_c                   59.153(6)
_cell_angle_alpha                90
_cell_angle_beta                 90
_cell_angle_gamma                90
_cell_volume                     206981
loop_
_atom_site_label
_atom_site_type_symbol
_atom_site_fract_x
_atom_site_fract_y
_atom_site_fract_z
Cu1 Cu 0.0000 0.09537(4) 0.09537(4)
Cu2 Cu 0.0000 0.12700(5) 0.12700(5)
O1 O 0.0232(2) 0.08177(19) 0.1139(2)
O2 O 0.0229(2) 0.1080(2) 0.1409(2)
O3 O 0.0000 0.0687(2) 0.0687(2)
O4 O 0.0000 0.1560(3) 0.1560(3)
C1 C 0.0305(3) 0.0901(3) 0.1317(3)
C2 C 0.0603(2) 0.0603(2) 0.1332(3)
H1 H 0.0551 0.0551 0.1189
C3 C 0.04956(17) 0.07829(19) 0.1431(3)
C4 C 0.05679(18) 0.08556(16) 0.1644(3)
H2 H 0.0496 0.0980 0.1715
C5 C 0.07456(19) 0.07456(19) 0.1751(3)
C6 C 0.0820(3) 0.0820(3) 0.1969(4)
C7 C 0.0871(3) 0.0871(3) 0.2149(4)
C8 C 0.0945(2) 0.0945(2) 0.2365(4)
C9 C 0.0838(2) 0.1125(2) 0.2471(4)
H3 H 0.0715 0.1199 0.2399
C10 C 0.0911(2) 0.1198(2) 0.2682(4)
H4 H 0.0837 0.1321 0.2754
C11 C 0.1091(3) 0.1091(3) 0.2789(4)
C12 C 0.1166(3) 0.1166(3) 0.3007(5)
C13 C 0.1228(4) 0.1228(4) 0.3188(5)
C14 C 0.1511(5) 0.1223(5) 0.3489(5)
H5 H 0.1562 0.1080 0.3438
C15 C 0.1329(9) 0.1329(9) 0.3383(9)
Cu1C Cu 0.09537(4) 0.0000 0.09537(4)
Cu1EB Cu 0.40463(4) 0.09537(4) 0.5000
Cu1LB Cu 0.40463(4) 0.0000 0.40463(4)
Cu1OA Cu 0.09537(4) 0.40463(4) 0.5000
Cu1CA Cu 0.0000 0.40463(4) 0.40463(4)
Cu2C Cu 0.12700(5) 0.0000 0.12700(5)
Cu2EB Cu 0.37300(5) 0.12700(5) 0.5000
Cu2LB Cu 0.37300(5) 0.0000 0.37300(5)
Cu2OA Cu 0.12700(5) 0.37300(5) 0.5000
Cu2CA Cu 0.0000 0.37300(5) 0.37300(5)
O1T O -0.0232(2) 0.1139(2) 0.08177(19)
O1WC O -0.0232(2) 0.08177(19) 0.1139(2)
O1MD O 0.0232(2) 0.1139(2) 0.08177(19)
O1KD O 0.08177(19) 0.0232(2) 0.1139(2)
O1JF O 0.3861(2) 0.08177(19) 0.4768(2)
O1LB O 0.3861(2) 0.0232(2) 0.41823(19)
O1OA O 0.08177(19) 0.3861(2) 0.4768(2)
O1JE O 0.0232(2) 0.3861(2) 0.41823(19)
O1C O 0.08177(19) -0.0232(2) 0.1139(2)
O1J O 0.1139(2) 0.0232(2) 0.08177(19)
O1HD O 0.1139(2) -0.0232(2) 0.08177(19)
O2T O -0.0229(2) 0.1409(2) 0.1080(2)
O2WC O -0.0229(2) 0.1080(2) 0.1409(2)
O2MD O 0.0229(2) 0.1409(2) 0.1080(2)
O2KD O 0.1080(2) 0.0229(2) 0.1409(2)
O2JF O 0.3591(2) 0.1080(2) 0.4771(2)
O2LB O 0.3591(2) 0.0229(2) 0.3920(2)
O2OA O 0.1080(2) 0.3591(2) 0.4771(2)
O2JE O 0.0229(2) 0.3591(2) 0.3920(2)
O3C O 0.0687(2) 0.0000 0.0687(2)
C1KD C 0.0901(3) 0.0305(3) 0.1317(3)
C1JF C 0.3683(3) 0.0901(3) 0.4695(3)
C1LB C 0.3683(3) 0.0305(3) 0.4099(3)
C1OA C 0.0901(3) 0.3683(3) 0.4695(3)
C1JE C 0.0305(3) 0.3683(3) 0.4099(3)
C2LB C 0.3668(3) 0.0603(2) 0.4397(2)
C2OA C 0.0603(2) 0.3668(3) 0.4397(2)
H1LB H 0.3811 0.0551 0.4449
H1OA H 0.0551 0.3811 0.4449
C3KD C 0.07829(19) 0.04956(17) 0.1431(3)
C3JF C 0.3569(3) 0.07829(19) 0.45044(17)
C3LB C 0.3569(3) 0.04956(17) 0.42171(19)
C3OA C 0.07829(19) 0.3569(3) 0.45044(17)
C3JE C 0.04956(17) 0.3569(3) 0.42171(19)
C4KD C 0.08556(16) 0.05679(18) 0.1644(3)
C4LB C 0.3356(3) 0.05679(18) 0.41444(16)
C4JF C 0.3356(3) 0.08556(16) 0.44321(18)
C4OA C 0.08556(16) 0.3356(3) 0.44321(18)
C4JE C 0.05679(18) 0.3356(3) 0.41444(16)
H2KD H 0.0980 0.0496 0.1715
H2JF H 0.3285 0.0980 0.4504
H2LB H 0.3285 0.0496 0.4020
H2OA H 0.0980 0.3285 0.4504
H2JE H 0.0496 0.3285 0.4020
C5LB C 0.3249(3) 0.07456(19) 0.42544(19)
C5OA C 0.07456(19) 0.3249(3) 0.42544(19)
C6LB C 0.3031(4) 0.0820(3) 0.4180(3)
C6OA C 0.0820(3) 0.3031(4) 0.4180(3)
C7LB C 0.2851(4) 0.0871(3) 0.4129(3)
C7OA C 0.0871(3) 0.2851(4) 0.4129(3)
C8LB C 0.2635(4) 0.0945(2) 0.4055(2)
C8OA C 0.0945(2) 0.2635(4) 0.4055(2)
C9KD C 0.1125(2) 0.0838(2) 0.2471(4)
C9JF C 0.2529(4) 0.1125(2) 0.4162(2)
C9LB C 0.2529(4) 0.0838(2) 0.3875(2)
C9OA C 0.1125(2) 0.2529(4) 0.4162(2)
C9JE C 0.0838(2) 0.2529(4) 0.3875(2)
H3KD H 0.1199 0.0715 0.2399
H3JF H 0.2601 0.1199 0.4285
H3LB H 0.2601 0.0715 0.3801
H3OA H 0.1199 0.2601 0.4285
H3JE H 0.0715 0.2601 0.3801
C10KD C 0.1198(2) 0.0911(2) 0.2682(4)
C10LB C 0.2318(4) 0.0911(2) 0.3802(2)
C10JF C 0.2318(4) 0.1198(2) 0.4089(2)
C10OA C 0.1198(2) 0.2318(4) 0.4089(2)
C10JE C 0.0911(2) 0.2318(4) 0.3802(2)
H4KD H 0.1321 0.0837 0.2754
H4JF H 0.2246 0.1321 0.4163
H4LB H 0.2246 0.0837 0.3679
H4OA H 0.1321 0.2246 0.4163
H4JE H 0.0837 0.2246 0.3679
C11LB C 0.2211(4) 0.1091(3) 0.3909(3)
C11OA C 0.1091(3) 0.2211(4) 0.3909(3)
C12LB C 0.1993(5) 0.1166(3) 0.3834(3)
C12OA C 0.1166(3) 0.1993(5) 0.3834(3)
C13LB C 0.1812(5) 0.1228(4) 0.3772(4)
C13OA C 0.1228(4) 0.1812(5) 0.3772(4)
C14OA C 0.1223(5) 0.1511(5) 0.3489(5)
C14LB C 0.1511(5) 0.1511(5) 0.3777(5)
H5OA H 0.1080 0.1562 0.3438
H5LB H 0.1562 0.1562 0.3920
C15LB C 0.1617(9) 0.1329(9) 0.3671(9)
C15OA C 0.1329(9) 0.1617(9) 0.3671(9)
loop_
_geom_bond_atom_site_label_1
_geom_bond_atom_site_label_2
_geom_bond_site_symmetry_1
_geom_bond_site_symmetry_2
Cu1 Cu2 1_555 1_555
Cu2 O2 1_555 1_555
O1 Cu1 1_555 1_555
O2 C1 1_555 1_555
O3 Cu1 1_555 1_555
O4 Cu2 1_555 1_555
C1 O1 1_555 1_555
C2 H1 1_555 1_555
C3 C1 1_555 1_555
C4 C3 1_555 1_555
H2 C4 1_555 1_555
C5 C4 1_555 1_555
C6 C5 1_555 1_555
C7 C6 1_555 1_555
C8 C7 1_555 1_555
C9 C8 1_555 1_555
H3 C9 1_555 1_555
C10 C9 1_555 1_555
H4 C10 1_555 1_555
C11 C10 1_555 1_555
C12 C11 1_555 1_555
C13 C12 1_555 1_555
C14 H5 1_555 1_555
C15 C13 1_555 1_555
Cu1C Cu2C 1_555 1_555
Cu1EB O1JF 1_555 1_555
Cu1LB O1LB 1_555 1_555
Cu1OA O1OA 1_555 1_555
Cu1CA O1JE 1_555 1_555
Cu2C O2KD 1_555 1_555
Cu2EB O2JF 1_555 1_555
Cu2LB O2LB 1_555 1_555
Cu2OA O2OA 1_555 1_555
Cu2CA O2JE 1_555 1_555
O1T Cu1 1_555 1_555
O1WC Cu1 1_555 1_555
O1MD Cu1 1_555 1_555
O1KD Cu1C 1_555 1_555
O1JF C1JF 1_555 1_555
O1LB C1LB 1_555 1_555
O1OA C1OA 1_555 1_555
O1JE C1JE 1_555 1_555
O1C Cu1C 1_555 1_555
O1J Cu1C 1_555 1_555
O1HD Cu1C 1_555 1_555
O2T Cu2 1_555 1_555
O2WC Cu2 1_555 1_555
O2MD Cu2 1_555 1_555
O2KD C1KD 1_555 1_555
O2JF C1JF 1_555 1_555
O2LB C1LB 1_555 1_555
O2OA C1OA 1_555 1_555
O2JE C1JE 1_555 1_555
O3C Cu1C 1_555 1_555
C1KD O1KD 1_555 1_555
C1JF C3JF 1_555 1_555
C1LB C3LB 1_555 1_555
C1OA C3OA 1_555 1_555
C1JE C3JE 1_555 1_555
C2LB H1LB 1_555 1_555
C2OA H1OA 1_555 1_555
C3KD C2 1_555 1_555
C3JF C2LB 1_555 1_555
C3LB C2LB 1_555 1_555
C3OA C2OA 1_555 1_555
C3JE C2OA 1_555 1_555
C4KD C5 1_555 1_555
C4LB C3LB 1_555 1_555
C4JF C3JF 1_555 1_555
C4OA C3OA 1_555 1_555
C4JE C3JE 1_555 1_555
H2KD C4KD 1_555 1_555
H2JF C4JF 1_555 1_555
H2LB C4LB 1_555 1_555
H2OA C4OA 1_555 1_555
H2JE C4JE 1_555 1_555
C5LB C4LB 1_555 1_555
C5OA C4OA 1_555 1_555
C6LB C5LB 1_555 1_555
C6OA C5OA 1_555 1_555
C7LB C6LB 1_555 1_555
C7OA C6OA 1_555 1_555
C8LB C7LB 1_555 1_555
C8OA C7OA 1_555 1_555
C9KD C8 1_555 1_555
C9JF C8LB 1_555 1_555
C9LB C8LB 1_555 1_555
C9OA C8OA 1_555 1_555
C9JE C8OA 1_555 1_555
H3KD C9KD 1_555 1_555
H3JF C9JF 1_555 1_555
H3LB C9LB 1_555 1_555
H3OA C9OA 1_555 1_555
H3JE C9JE 1_555 1_555
C10KD C11 1_555 1_555
C10LB C9LB 1_555 1_555
C10JF C9JF 1_555 1_555
C10OA C9OA 1_555 1_555
C10JE C9JE 1_555 1_555
H4KD C10KD 1_555 1_555
H4JF C10JF 1_555 1_555
H4LB C10LB 1_555 1_555
H4OA C10OA 1_555 1_555
H4JE C10JE 1_555 1_555
C11LB C10LB 1_555 1_555
C11OA C10OA 1_555 1_555
C12LB C11LB 1_555 1_555
C12OA C11OA 1_555 1_555
C13LB C12LB 1_555 1_555
C13OA C12OA 1_555 1_555
C14OA C15 1_555 1_555
C14LB H5LB 1_555 1_555
H5OA C14OA 1_555 1_555
C15LB C14 1_555 1_555
C15OA C13OA 1_555 1_555
C2 C3 1_555 1_555
C14 C15 1_555 1_555
C1KD C3KD 1_555 1_555
C3KD C4KD 1_555 1_555
C4JF C5LB 1_555 1_555
C4JE C5OA 1_555 1_555
C9KD C10KD 1_555 1_555
C10JF C11LB 1_555 1_555
C10JE C11OA 1_555 1_555
C13LB C15LB 1_555 1_555
C14OA C15OA 1_555 1_555
C14LB C15LB 1_555 1_555
C14LB C15OA 1_555 1_555

#END
