
#######################################################################
#
#                 Cambridge Crystallographic Data Centre
#                                CCDC 
#
#######################################################################
#
# If this CIF has been generated from an entry in the Cambridge 
# Structural Database, then it will include bibliographic, chemical, 
# crystal, experimental, refinement or atomic coordinate data resulting 
# from the CCDC's data processing and validation procedures.
#
#######################################################################

data_HABREJ
_symmetry_cell_setting           tetragonal
_symmetry_space_group_name_H-M   'P 43 21 2'
_symmetry_Int_Tables_number      96
_space_group_name_Hall           'P 4nw 2abw'
loop_
_symmetry_equiv_pos_site_id
_symmetry_equiv_pos_as_xyz
1 x,y,z
2 -x,-y,1/2+z
3 1/2-y,1/2+x,3/4+z
4 1/2+y,1/2-x,1/4+z
5 1/2-x,1/2+y,3/4-z
6 1/2+x,1/2-y,1/4-z
7 y,x,-z
8 -y,-x,1/2-z
_cell_length_a                   13.0584(18)
_cell_length_b                   13.0584(18)
_cell_length_c                   53.731(11)
_cell_angle_alpha                90
_cell_angle_beta                 90
_cell_angle_gamma                90
_cell_volume                     9162.31
loop_
_atom_site_label
_atom_site_type_symbol
_atom_site_fract_x
_atom_site_fract_y
_atom_site_fract_z
B1 B 0.7372(11) 1.4691(10) 0.1281(2)
Zn1 Zn 0.84236(10) 1.87365(9) 0.11538(2)
Zn2 Zn 0.67434(10) 1.94108(10) 0.31515(2)
O1 O 0.6760(6) 1.9178(6) 0.27969(13)
O2 O 0.7997(9) 2.0297(8) 0.27703(16)
O3 O 0.8474(6) 1.9261(7) 0.14989(13)
O4 O 0.6975(7) 1.8404(7) 0.15056(15)
N1 N 0.7957(8) 1.4015(8) 0.14782(18)
N2 N 0.9164(7) 1.3401(8) 0.17183(17)
N3 N 0.8060(6) 1.5597(7) 0.12036(16)
N4 N 0.8529(7) 1.7188(7) 0.11350(17)
N5 N 0.6393(7) 1.5095(7) 0.14081(16)
N6 N 0.4855(7) 1.5811(7) 0.14467(16)
N7 N 0.6403(7) 2.0497(7) 0.07392(16)
N8 N 0.7444(7) 1.9362(8) 0.09151(16)
N9 N 0.7059(7) 1.4089(7) 0.10445(16)
N10 N 0.6270(8) 1.3008(7) 0.07955(18)
C1 C 0.8934(8) 1.4090(8) 0.1544(2)
H1 H 0.9396 1.4558 0.1477
C2 C 0.7536(10) 1.3210(9) 0.1618(2)
H2 H 0.6862 1.2980 0.1615
C3 C 0.8301(10) 1.2841(10) 0.1759(2)
H3 H 0.8250 1.2288 0.1867
C4 C 0.7820(9) 1.6606(9) 0.1224(2)
H4 H 0.7216 1.6848 0.1294
C5 C 0.9246(10) 1.6576(10) 0.1051(2)
H5 H 0.9846 1.6799 0.0975
C6 C 0.9016(9) 1.5625(10) 0.1088(2)
H6 H 0.9414 1.5062 0.1044
C7 C 0.5502(9) 1.5351(9) 0.1294(2)
H7 H 0.5362 1.5218 0.1128
C8 C 0.6287(10) 1.5470(11) 0.1649(2)
H8 H 0.6784 1.5435 0.1772
C9 C 0.5386(9) 1.5879(10) 0.1674(2)
H9 H 0.5132 1.6171 0.1819
C10 C 0.6788(9) 2.0115(9) 0.0948(2)
H10 H 0.6610 2.0359 0.1105
C11 C 0.6874(10) 1.9900(10) 0.0560(2)
H11 H 0.6776 1.9962 0.0390
C12 C 0.7482(9) 1.9230(9) 0.0668(2)
H12 H 0.7875 1.8742 0.0586
C13 C 0.6554(8) 1.3204(9) 0.1026(2)
H13 H 0.6418 1.2775 0.1160
C14 C 0.6557(14) 1.3822(11) 0.0653(2)
H14 H 0.6437 1.3908 0.0484
C15 C 0.7040(17) 1.4463(13) 0.0802(3)
H15 H 0.7327 1.5082 0.0752
C16 C 0.7698(10) 1.8891(10) 0.1613(2)
C17 C 0.7629(9) 1.9065(10) 0.1888(2)
C18 C 0.6910(10) 1.8581(10) 0.2034(2)
H16 H 0.6448 1.8131 0.1961
C19 C 0.6863(10) 1.8753(9) 0.2285(2)
H17 H 0.6396 1.8391 0.2382
C20 C 0.7509(10) 1.9467(10) 0.2396(2)
C21 C 0.8221(11) 1.9938(11) 0.2257(2)
H18 H 0.8684 2.0378 0.2334
C22 C 0.8288(10) 1.9784(10) 0.1995(2)
H19 H 0.8753 2.0150 0.1899
C23 C 0.7434(11) 1.9689(11) 0.2673(2)
Zn1E Zn 0.34236(10) 1.62635(9) 0.13462(2)
Zn2G Zn 1.05892(10) 1.32566(10) 0.18485(2)
Zn2B Zn 0.55892(10) 2.17434(10) 0.06515(2)
Zn2B_2 Zn 0.55892(10) 1.17434(10) 0.06515(2)
N2G N 0.6599(8) 2.0836(7) 0.32817(17)
N6E N 0.9855(7) 1.9189(7) 0.10533(16)
N7C N 0.5497(7) 1.8597(7) 0.32392(16)
N10C N 0.8008(7) 1.8730(8) 0.32955(18)
O5 O 1.0352(6) 1.3321(7) 0.11111(16)
N11 N 1.0237(9) 1.3268(10) 0.06903(19)
N12 N 0.9366(9) 1.2108(8) 0.0942(2)
C24 C 1.0013(10) 1.2945(10) 0.0918(3)
C25 C 0.9744(17) 1.2920(16) 0.0469(3)
H20 H 1.0200 1.2998 0.0327
H21 H 0.9132 1.3322 0.0438
C26 C 0.9449(19) 1.1743(18) 0.0504(4)
H22 H 0.9028 1.1522 0.0366
H23 H 1.0068 1.1333 0.0504
C27 C 0.8918(13) 1.1583(13) 0.0727(3)
H24 H 0.8897 1.0854 0.0761
H25 H 0.8218 1.1816 0.0706
C28 C 1.0862(15) 1.4097(15) 0.0663(3)
H26 H 1.1176 1.4256 0.0820
H27 H 1.0466 1.4673 0.0607
H28 H 1.1383 1.3946 0.0543
C29 C 0.9001(10) 1.1818(9) 0.1183(2)
H29 H 0.9348 1.2212 0.1308
H30 H 0.9131 1.1103 0.1209
H31 H 0.8278 1.1945 0.1193
loop_
_geom_bond_atom_site_label_1
_geom_bond_atom_site_label_2
_geom_bond_site_symmetry_1
_geom_bond_site_symmetry_2
B1 N1 1_555 1_555
Zn1 O3 1_555 1_555
Zn2 O1 1_555 1_555
O1 C23 1_555 1_555
O2 C23 1_555 1_555
O3 C16 1_555 1_555
O4 C16 1_555 1_555
O5 C24 1_555 1_555
N1 C1 1_555 1_555
N2 C1 1_555 1_555
N3 B1 1_555 1_555
N4 Zn1 1_555 1_555
N5 B1 1_555 1_555
N6 C7 1_555 1_555
N7 C10 1_555 1_555
N8 Zn1 1_555 1_555
N9 B1 1_555 1_555
N10 C13 1_555 1_555
N11 C24 1_555 1_555
N12 C24 1_555 1_555
C1 H1 1_555 1_555
C2 N1 1_555 1_555
H2 C2 1_555 1_555
C3 N2 1_555 1_555
H3 C3 1_555 1_555
C4 N3 1_555 1_555
H4 C4 1_555 1_555
C5 N4 1_555 1_555
H5 C5 1_555 1_555
C6 N3 1_555 1_555
H6 C6 1_555 1_555
C7 N5 1_555 1_555
H7 C7 1_555 1_555
C8 N5 1_555 1_555
H8 C8 1_555 1_555
C9 N6 1_555 1_555
H9 C9 1_555 1_555
C10 N8 1_555 1_555
H10 C10 1_555 1_555
C11 N7 1_555 1_555
H11 C11 1_555 1_555
C12 N8 1_555 1_555
H12 C12 1_555 1_555
C13 N9 1_555 1_555
H13 C13 1_555 1_555
C14 N10 1_555 1_555
H14 C14 1_555 1_555
C15 N9 1_555 1_555
H15 C15 1_555 1_555
C16 C17 1_555 1_555
C17 C18 1_555 1_555
C18 H16 1_555 1_555
C19 C18 1_555 1_555
H17 C19 1_555 1_555
C20 C19 1_555 1_555
C21 C20 1_555 1_555
H18 C21 1_555 1_555
C22 C17 1_555 1_555
H19 C22 1_555 1_555
C23 C20 1_555 1_555
C25 N11 1_555 1_555
H20 C25 1_555 1_555
H21 C25 1_555 1_555
C26 C25 1_555 1_555
H22 C26 1_555 1_555
H23 C26 1_555 1_555
C27 N12 1_555 1_555
H24 C27 1_555 1_555
H25 C27 1_555 1_555
C28 N11 1_555 1_555
H26 C28 1_555 1_555
H27 C28 1_555 1_555
H28 C28 1_555 1_555
C29 N12 1_555 1_555
H29 C29 1_555 1_555
H30 C29 1_555 1_555
H31 C29 1_555 1_555
Zn1E N6 1_555 1_555
Zn2G N2 1_555 1_555
Zn2B N7 1_555 1_555
Zn2B_2 N10 1_555 1_555
N2G Zn2 1_555 1_555
N6E Zn1 1_555 1_555
N7C Zn2 1_555 1_555
N10C Zn2 1_555 1_555
N4 C4 1_555 1_555
C2 C3 1_555 1_555
C5 C6 1_555 1_555
C8 C9 1_555 1_555
C11 C12 1_555 1_555
C14 C15 1_555 1_555
C21 C22 1_555 1_555
C26 C27 1_555 1_555

#END
