
#######################################################################
#
#                 Cambridge Crystallographic Data Centre
#                                CCDC 
#
#######################################################################
#
# If this CIF has been generated from an entry in the Cambridge 
# Structural Database, then it will include bibliographic, chemical, 
# crystal, experimental, refinement or atomic coordinate data resulting 
# from the CCDC's data processing and validation procedures.
#
#######################################################################

data_HAFQUC
_symmetry_cell_setting           monoclinic
_symmetry_space_group_name_H-M   'P 21/n'
_symmetry_Int_Tables_number      14
_space_group_name_Hall           '-P 2yn'
loop_
_symmetry_equiv_pos_site_id
_symmetry_equiv_pos_as_xyz
1 x,y,z
2 1/2-x,1/2+y,1/2-z
3 -x,-y,-z
4 1/2+x,1/2-y,1/2+z
_cell_length_a                   14.954(2)
_cell_length_b                   15.089(2)
_cell_length_c                   6.6439(4)
_cell_angle_alpha                90
_cell_angle_beta                 90.891(6)
_cell_angle_gamma                90
_cell_volume                     1498.95
loop_
_atom_site_label
_atom_site_type_symbol
_atom_site_fract_x
_atom_site_fract_y
_atom_site_fract_z
Al1 Al 0.00000 0.00000 0.00000
Al2 Al 0.00000 0.00000 0.50000
O1 O 0.05201 -0.01019 0.24923
H1 H 0.10346 -0.02753 0.25086
O2 O -0.09544 -0.07478 0.075
O3 O -0.42765 -0.39896 0.11601
C1 C -0.37493 -0.38966 0.26409
C2 C -0.30753 -0.31677 0.25272
C3 C -0.22737 -0.3238 0.35726
H2 H -0.21458 -0.37471 0.43131
C4 C -0.12059 -0.10382 0.24223
C5 C -0.18445 -0.17995 0.23922
C6 C -0.16604 -0.2551 0.35171
H3 H -0.11246 -0.25942 0.42373
O4 O -0.09544 -0.07545 0.41181
O5 O -0.37391 -0.43677 0.42057
C7 C -0.3256 -0.24229 0.13834
H4 H -0.37892 -0.23834 0.06502
C8 C -0.26432 -0.17354 0.13266
H5 H -0.27686 -0.123 0.05733
Al1A Al -0.50000 -0.50000 0.50000
Al1A_2 Al 0.50000 0.50000 -0.50000
Al2A Al -0.50000 -0.50000 0.00000
Al2_2 Al 0.00000 0.00000 -0.50000
Al2A_2 Al 0.50000 0.50000 0.00000
O1B O -0.05201 0.01019 -0.24923
O1B_2 O -0.05201 0.01019 0.75077
H1B H -0.10346 0.02753 -0.25086
H1B_2 H -0.10346 0.02753 0.74914
O2B O 0.09544 0.07478 -0.075
O3B O 0.42765 0.39896 -0.11601
O3A O -0.07235 0.10104 0.38399
O3C O 0.07235 -0.10104 0.61601
C1B C 0.37493 0.38966 -0.26409
C2B C 0.30753 0.31677 -0.25272
C3B C 0.22737 0.3238 -0.35726
H2B H 0.21458 0.37471 -0.43131
C4B C 0.12059 0.10382 -0.24223
C5B C 0.18445 0.17995 -0.23922
C6B C 0.16604 0.2551 -0.35171
H3B H 0.11246 0.25942 -0.42373
O4B O 0.09544 0.07545 -0.41181
O4B_2 O 0.09544 0.07545 0.58819
O5B O 0.37391 0.43677 -0.42057
O5A O -0.12609 0.06323 0.07943
O5C O 0.12609 -0.06323 -0.07943
C7B C 0.3256 0.24229 -0.13834
H4B H 0.37892 0.23834 -0.06502
C8B C 0.26432 0.17354 -0.13266
H5B H 0.27686 0.123 -0.05733
S1 S 0.24196 0.49539 0.18088
S2 S 0.15324 0.49483 0.54357
N1 N 0.24172 0.52819 0.41791
C9 C 0.13934 0.44079 0.16947
C10 C 0.10087 0.40192 -0.00127
H6 H 0.13086 0.40254 -0.12278
C11 C 0.01779 0.36227 0.01194
C12 C -0.02467 0.35987 0.19699
H7 H -0.07961 0.33143 0.20643
C13 C 0.01264 0.39834 0.36536
H8 H -0.01715 0.39679 0.48708
C14 C 0.09513 0.43968 0.35257
C15 C -0.02568 0.32019 -0.17275
H9 H -0.08896 0.31586 -0.15396
H10 H -0.00132 0.26196 -0.19236
H11 H -0.0141 0.35606 -0.28877
loop_
_geom_bond_atom_site_label_1
_geom_bond_atom_site_label_2
_geom_bond_site_symmetry_1
_geom_bond_site_symmetry_2
Al1 O1 1_555 1_555
Al2 O1 1_555 1_555
O1 H1 1_555 1_555
O2 Al1 1_555 1_555
O3 C1 1_555 1_555
C1 C2 1_555 1_555
C2 C3 1_555 1_555
C3 H2 1_555 1_555
C4 O2 1_555 1_555
C5 C4 1_555 1_555
C6 C3 1_555 1_555
H3 C6 1_555 1_555
O4 Al2 1_555 1_555
O5 C1 1_555 1_555
C7 C2 1_555 1_555
H4 C7 1_555 1_555
C8 C5 1_555 1_555
H5 C8 1_555 1_555
S1 N1 1_555 1_555
S2 N1 1_555 1_555
C9 S1 1_555 1_555
C10 C9 1_555 1_555
H6 C10 1_555 1_555
C11 C10 1_555 1_555
C12 C11 1_555 1_555
H7 C12 1_555 1_555
C13 C12 1_555 1_555
H8 C13 1_555 1_555
C14 S2 1_555 1_555
C15 C11 1_555 1_555
H9 C15 1_555 1_555
H10 C15 1_555 1_555
H11 C15 1_555 1_555
Al1A O5 1_555 1_555
Al1A_2 O5B 1_555 1_555
Al2A O3 1_555 1_555
Al2_2 O1B 1_555 1_555
Al2A_2 O3B 1_555 1_555
O1B Al1 1_555 1_555
O1B_2 Al2 1_555 1_555
H1B O1B 1_555 1_555
H1B_2 O1B_2 1_555 1_555
O2B Al1 1_555 1_555
O3B C1B 1_555 1_555
O3A Al2 1_555 1_555
O3C Al2 1_555 1_555
C1B C2B 1_555 1_555
C2B C3B 1_555 1_555
C3B H2B 1_555 1_555
C4B O2B 1_555 1_555
C5B C4B 1_555 1_555
C6B C3B 1_555 1_555
H3B C6B 1_555 1_555
O4B Al2_2 1_555 1_555
O4B_2 Al2 1_555 1_555
O5B C1B 1_555 1_555
O5A Al1 1_555 1_555
O5C Al1 1_555 1_555
C7B C2B 1_555 1_555
H4B C7B 1_555 1_555
C8B C5B 1_555 1_555
H5B C8B 1_555 1_555
C4 O4 1_555 1_555
C5 C6 1_555 1_555
C7 C8 1_555 1_555
C9 C14 1_555 1_555
C13 C14 1_555 1_555
C4B O4B 1_555 1_555
C5B C6B 1_555 1_555
C7B C8B 1_555 1_555

#END
