
#######################################################################
#
#                 Cambridge Crystallographic Data Centre
#                                CCDC 
#
#######################################################################
#
# If this CIF has been generated from an entry in the Cambridge 
# Structural Database, then it will include bibliographic, chemical, 
# crystal, experimental, refinement or atomic coordinate data resulting 
# from the CCDC's data processing and validation procedures.
#
#######################################################################

data_HAHWAO
_symmetry_cell_setting           triclinic
_symmetry_space_group_name_H-M   'P -1'
_symmetry_Int_Tables_number      2
_space_group_name_Hall           '-P 1'
loop_
_symmetry_equiv_pos_site_id
_symmetry_equiv_pos_as_xyz
1 x,y,z
2 -x,-y,-z
_cell_length_a                   6.019(1)
_cell_length_b                   7.003(1)
_cell_length_c                   11.185(2)
_cell_angle_alpha                89.19(1)
_cell_angle_beta                 74.61(1)
_cell_angle_gamma                89.83(1)
_cell_volume                     454.508
loop_
_atom_site_label
_atom_site_type_symbol
_atom_site_fract_x
_atom_site_fract_y
_atom_site_fract_z
Cu1 Cu 0.00000 0.00000 0.00000
N1 N -0.02923(24) -0.30463(21) 0.01218(13)
O1 O 0.29237(22) -0.06252(18) -0.10701(13)
O2 O 0.52385(24) -0.29499(20) -0.19857(14)
O3 O -0.37650(23) -0.30690(20) 0.26873(12)
O4 O -0.58088(22) -0.30804(19) 0.12795(13)
C1 C 0.1636(3) -0.37932(24) -0.06096(14)
C2 C -0.1961(3) -0.42460(24) 0.07429(14)
C3 C 0.3426(3) -0.23624(24) -0.12847(16)
C4 C -0.4068(3) -0.33913(23) 0.16440(15)
O8 O 0.1559(3) 0.0135(3) 0.17387(15)
H7 H 0.249(5) -0.072(4) 0.169(3)
H8 H 0.220(5) 0.089(4) 0.179(3)
N1A N 0.02923(24) 0.30463(21) -0.01218(13)
O1A O -0.29237(22) 0.06252(18) 0.10701(13)
O8A O -0.1559(3) -0.0135(3) -0.17387(15)
C2A C 0.1961(3) -0.57540(24) -0.07429(14)
C1A C -0.1636(3) -0.62068(24) 0.06096(14)
H7A H -0.249(5) 0.072(4) -0.169(3)
H8A H -0.220(5) -0.089(4) -0.179(3)
N1A_2 N 0.02923(24) -0.69537(21) -0.01218(13)
C4A C 0.4068(3) -0.66087(23) -0.16440(15)
C3A C -0.3426(3) -0.76376(24) 0.12847(16)
O3A O 0.37650(23) -0.69310(20) -0.26873(12)
O4A O 0.58088(22) -0.69196(19) -0.12795(13)
Cu1_2 Cu 0.00000 -1.00000 0.00000
O1A_2 O -0.29237(22) -0.93748(18) 0.10701(13)
O2A O -0.52385(24) -0.70501(20) 0.19857(14)
Mg1 Mg 0.00000 0.50000 0.50000
O5 O 0.2935(3) 0.6487(3) 0.49191(18)
O6 O 0.0221(3) 0.5584(3) 0.31621(15)
O7 O -0.1921(3) 0.7427(3) 0.55824(17)
H1 H 0.384(7) 0.660(5) 0.443(4)
H2 H 0.283(7) 0.742(5) 0.526(3)
H3 H -0.066(6) 0.590(4) 0.303(3)
H4 H 0.124(6) 0.592(5) 0.275(3)
H5 H -0.204(5) 0.826(5) 0.515(3)
H6 H -0.266(6) 0.741(5) 0.616(3)
O5A O -0.2935(3) 0.3513(3) 0.50809(18)
O6A O -0.0221(3) 0.4416(3) 0.68379(15)
O7A O 0.1921(3) 0.2573(3) 0.44176(17)
H1A H -0.384(7) 0.340(5) 0.557(4)
H2A H -0.283(7) 0.258(5) 0.474(3)
H3A H 0.066(6) 0.410(4) 0.697(3)
H4A H -0.124(6) 0.408(5) 0.725(3)
H5A H 0.204(5) 0.174(5) 0.485(3)
H6A H 0.266(6) 0.259(5) 0.384(3)
O9 O 0.7642(4) 0.01224(25) 0.38163(16)
H9 H 0.686(7) -0.041(5) 0.346(3)
H10 H 0.871(8) 0.015(6) 0.341(4)
loop_
_geom_bond_atom_site_label_1
_geom_bond_atom_site_label_2
_geom_bond_site_symmetry_1
_geom_bond_site_symmetry_2
Cu1 N1 1_555 1_555
N1 C1 1_555 1_555
O1 Cu1 1_555 1_555
O2 C3 1_555 1_555
O3 C4 1_555 1_555
O4 C4 1_555 1_555
C1 C3 1_555 1_555
C2 N1 1_555 1_555
C3 O1 1_555 1_555
C4 C2 1_555 1_555
Mg1 O5 1_555 1_555
O5 H1 1_555 1_555
O6 Mg1 1_555 1_555
O7 Mg1 1_555 1_555
O8 Cu1 1_555 1_555
O9 H9 1_555 1_555
H2 O5 1_555 1_555
H3 O6 1_555 1_555
H4 O6 1_555 1_555
H5 O7 1_555 1_555
H6 O7 1_555 1_555
H7 O8 1_555 1_555
H8 O8 1_555 1_555
H10 O9 1_555 1_555
N1A Cu1 1_555 1_555
O1A Cu1 1_555 1_555
O8A Cu1 1_555 1_555
C2A C1 1_555 1_555
C1A C2 1_555 1_555
H7A O8A 1_555 1_555
H8A O8A 1_555 1_555
N1A_2 C2A 1_555 1_555
C4A C2A 1_555 1_555
C3A C1A 1_555 1_555
O3A C4A 1_555 1_555
O4A C4A 1_555 1_555
O5A Mg1 1_555 1_555
O6A Mg1 1_555 1_555
O7A Mg1 1_555 1_555
H1A O5A 1_555 1_555
H2A O5A 1_555 1_555
H3A O6A 1_555 1_555
H4A O6A 1_555 1_555
H5A O7A 1_555 1_555
H6A O7A 1_555 1_555
Cu1_2 N1A_2 1_555 1_555
O1A_2 C3A 1_555 1_555
O2A C3A 1_555 1_555
C1A N1A_2 1_555 1_555
Cu1_2 O1A_2 1_555 1_555

#END
