
#######################################################################
#
#                 Cambridge Crystallographic Data Centre
#                                CCDC 
#
#######################################################################
#
# If this CIF has been generated from an entry in the Cambridge 
# Structural Database, then it will include bibliographic, chemical, 
# crystal, experimental, refinement or atomic coordinate data resulting 
# from the CCDC's data processing and validation procedures.
#
#######################################################################

data_HAMJOW
_symmetry_cell_setting           monoclinic
_symmetry_space_group_name_H-M   'P 21/c'
_symmetry_Int_Tables_number      14
_space_group_name_Hall           '-P 2ybc'
loop_
_symmetry_equiv_pos_site_id
_symmetry_equiv_pos_as_xyz
1 x,y,z
2 -x,1/2+y,1/2-z
3 -x,-y,-z
4 x,1/2-y,1/2+z
_cell_length_a                   13.990(5)
_cell_length_b                   13.749(4)
_cell_length_c                   14.073(5)
_cell_angle_alpha                90
_cell_angle_beta                 110.538(13)
_cell_angle_gamma                90
_cell_volume                     2534.87
loop_
_atom_site_label
_atom_site_type_symbol
_atom_site_fract_x
_atom_site_fract_y
_atom_site_fract_z
Zn1 Zn 0.09508(4) 0.94170(4) 1.04273(4)
O1 O 0.4349(3) 1.2974(4) 0.7474(5)
O5 O 0.1155(3) 1.0270(3) 0.9310(3)
O6 O -0.0245(3) 1.1203(3) 0.8676(3)
O7 O -0.0242(3) 1.3430(3) 0.5682(3)
O8 O 0.1197(3) 1.4322(3) 0.6256(3)
N1 N 0.3780(3) 1.1628(4) 0.8060(4)
H1 H 0.3978 1.1054 0.8334
N5 N 0.7590(3) 1.1091(3) 0.8990(3)
C1 C 0.2734(4) 1.1867(4) 0.7848(5)
C2 C 0.2210(4) 1.1331(4) 0.8343(4)
H2 H 0.2555 1.0836 0.8807
C3 C 0.1180(4) 1.1512(4) 0.8165(4)
C4 C 0.0670(4) 1.2221(4) 0.7467(4)
H3 H -0.0039 1.2325 0.7315
C5 C 0.1204(4) 1.2780(4) 0.6991(4)
C6 C 0.2238(4) 1.2610(4) 0.7178(4)
H4 H 0.2599 1.2994 0.6854
C7 C 0.4508(4) 1.2182(5) 0.7888(6)
C8 C 0.6795(4) 1.0465(4) 0.8749(5)
H5 H 0.6933 0.9788 0.8834
C9 C 0.5795(4) 1.0766(4) 0.8387(6)
H6 H 0.5258 1.0303 0.8227
C10 C 0.5576(4) 1.1750(4) 0.8256(5)
C11 C 0.6387(4) 1.2403(4) 0.8496(5)
H7 H 0.6262 1.3082 0.8407
C12 C 0.7380(4) 1.2053(4) 0.8867(4)
H8 H 0.7930 1.2503 0.9038
C13 C 0.0643(4) 1.0945(4) 0.8758(4)
C14 C 0.0667(4) 1.3570(4) 0.6249(4)
Zn1B Zn -0.09508(4) 1.05830(4) 0.95727(4)
Zn1A Zn -0.09508(4) 1.44170(4) 0.45727(4)
Zn1C Zn 0.09508(4) 1.55830(4) 0.54273(4)
Zn1B_2 Zn 0.90492(4) 1.05830(4) 0.95727(4)
O6B O 0.0245(3) 0.8797(3) 1.1324(3)
O7A O 0.0242(3) 0.8430(3) 0.9318(3)
O8C O 0.1197(3) 1.0678(3) 1.1256(3)
N5B N 0.2410(3) 0.8909(3) 1.1010(3)
O2 O 0.1999(11) 0.5779(8) 0.0759(12)
N2 N 0.1001(10) 0.4573(9) -0.0332(13)
C15 C 0.1530(16) 0.5018(19) 0.0648(18)
H9 H 0.1509 0.4696 0.1238
C16 C 0.099(2) 0.4976(18) -0.1217(18)
H10 H 0.1122 0.5675 -0.1121
H11 H 0.0316 0.4872 -0.1742
H12 H 0.1514 0.4671 -0.1428
C17 C 0.0478(17) 0.3667(15) -0.0341(19)
H13 H -0.0171 0.3663 -0.0913
H14 H 0.0347 0.3597 0.0296
H15 H 0.0904 0.3125 -0.0412
O3 O 0.6107(5) 0.0416(5) 0.1302(7)
N3 N 0.6769(11) 0.1912(7) 0.1271(8)
C18 C 0.600(2) 0.1320(15) 0.1139(15)
H16 H 0.5332 0.1583 0.0908
C19 C 0.7765(14) 0.1622(15) 0.1734(15)
H17 H 0.7804 0.1139 0.2259
H18 H 0.8187 0.2186 0.2045
H19 H 0.8015 0.1333 0.1228
C20 C 0.645(3) 0.2875(19) 0.098(2)
H20 H 0.6011 0.2887 0.0265
H21 H 0.7053 0.3284 0.1076
H22 H 0.6076 0.3124 0.1400
O4? O 0.494(4) 0.528(4) 0.072(4)
N4? N 0.6174(17) 0.5813(18) 0.015(2)
C21? C 0.552(3) 0.523(2) -0.082(3)
H23? H 0.5570 0.5352 -0.1465
C22? C 0.586(4) 0.538(3) 0.087(4)
H24? H 0.5497 0.5860 0.1132
H25? H 0.5400 0.4841 0.0557
H26? H 0.6453 0.5137 0.1422
C23? C 0.680(2) 0.6514(16) -0.003(2)
H27? H 0.6886 0.7051 0.0456
H28? H 0.7464 0.6229 0.0059
H29? H 0.6484 0.6760 -0.0720
C24? C 0.680(2) 0.103(2) 0.135(2)
C25? C 0.5591(17) 0.2210(19) 0.0714(17)
C26? C 0.7496(15) 0.2614(13) 0.1336(14)
H30? H 0.7453 0.0750 0.1459
H31? H 0.5174 0.1620 0.0522
H32? H 0.5521 0.2591 0.0105
H33? H 0.5362 0.2599 0.1177
H34? H 0.8168 0.2306 0.1511
H35? H 0.7511 0.3087 0.1862
H36? H 0.7327 0.2947 0.0682
loop_
_geom_bond_atom_site_label_1
_geom_bond_atom_site_label_2
_geom_bond_site_symmetry_1
_geom_bond_site_symmetry_2
Zn1 O5 1_555 1_555
O1 C7 1_555 1_555
O2 C15 1_555 1_555
O3 C18 1_555 1_555
O5 C13 1_555 1_555
O6 C13 1_555 1_555
O7 C14 1_555 1_555
O8 C14 1_555 1_555
N1 H1 1_555 1_555
N2 C15 1_555 1_555
N3 C18 1_555 1_555
N5 C8 1_555 1_555
C1 N1 1_555 1_555
C2 C1 1_555 1_555
H2 C2 1_555 1_555
C3 C2 1_555 1_555
C4 C3 1_555 1_555
H3 C4 1_555 1_555
C5 C4 1_555 1_555
C6 C1 1_555 1_555
H4 C6 1_555 1_555
C7 N1 1_555 1_555
C8 H5 1_555 1_555
C9 C8 1_555 1_555
H6 C9 1_555 1_555
C10 C7 1_555 1_555
C11 C10 1_555 1_555
H7 C11 1_555 1_555
C12 N5 1_555 1_555
H8 C12 1_555 1_555
C13 C3 1_555 1_555
C14 C5 1_555 1_555
C15 H9 1_555 1_555
C16 N2 1_555 1_555
H10 C16 1_555 1_555
H11 C16 1_555 1_555
H12 C16 1_555 1_555
C17 N2 1_555 1_555
H13 C17 1_555 1_555
H14 C17 1_555 1_555
H15 C17 1_555 1_555
C18 H16 1_555 1_555
C19 N3 1_555 1_555
H17 C19 1_555 1_555
H18 C19 1_555 1_555
H19 C19 1_555 1_555
C20 N3 1_555 1_555
H20 C20 1_555 1_555
H21 C20 1_555 1_555
H22 C20 1_555 1_555
Zn1B O6 1_555 1_555
Zn1A O7 1_555 1_555
Zn1C O8 1_555 1_555
Zn1B_2 N5 1_555 1_555
O6B Zn1 1_555 1_555
O7A Zn1 1_555 1_555
O8C Zn1 1_555 1_555
N5B Zn1 1_555 1_555
C5 C6 1_555 1_555
C9 C10 1_555 1_555
C11 C12 1_555 1_555

#END
