
#######################################################################
#
#                 Cambridge Crystallographic Data Centre
#                                CCDC 
#
#######################################################################
#
# If this CIF has been generated from an entry in the Cambridge 
# Structural Database, then it will include bibliographic, chemical, 
# crystal, experimental, refinement or atomic coordinate data resulting 
# from the CCDC's data processing and validation procedures.
#
#######################################################################

data_HANHAH
_symmetry_cell_setting           cubic
_symmetry_space_group_name_H-M   'F m -3 m'
_symmetry_Int_Tables_number      225
_space_group_name_Hall           '-F 4 2 3'
loop_
_symmetry_equiv_pos_site_id
_symmetry_equiv_pos_as_xyz
1 x,y,z
2 -x,-y,z
3 -x,y,-z
4 x,-y,-z
5 z,x,y
6 z,-x,-y
7 -z,-x,y
8 -z,x,-y
9 y,z,x
10 -y,z,-x
11 y,-z,-x
12 -y,-z,x
13 y,x,-z
14 -y,-x,-z
15 y,-x,z
16 -y,x,z
17 x,z,-y
18 -x,z,y
19 -x,-z,-y
20 x,-z,y
21 z,y,-x
22 z,-y,x
23 -z,y,x
24 -z,-y,-x
25 x,1/2+y,1/2+z
26 -x,1/2-y,1/2+z
27 -x,1/2+y,1/2-z
28 x,1/2-y,1/2-z
29 z,1/2+x,1/2+y
30 z,1/2-x,1/2-y
31 -z,1/2-x,1/2+y
32 -z,1/2+x,1/2-y
33 y,1/2+z,1/2+x
34 -y,1/2+z,1/2-x
35 y,1/2-z,1/2-x
36 -y,1/2-z,1/2+x
37 y,1/2+x,1/2-z
38 -y,1/2-x,1/2-z
39 y,1/2-x,1/2+z
40 -y,1/2+x,1/2+z
41 x,1/2+z,1/2-y
42 -x,1/2+z,1/2+y
43 -x,1/2-z,1/2-y
44 x,1/2-z,1/2+y
45 z,1/2+y,1/2-x
46 z,1/2-y,1/2+x
47 -z,1/2+y,1/2+x
48 -z,1/2-y,1/2-x
49 1/2+x,y,1/2+z
50 1/2-x,-y,1/2+z
51 1/2-x,y,1/2-z
52 1/2+x,-y,1/2-z
53 1/2+z,x,1/2+y
54 1/2+z,-x,1/2-y
55 1/2-z,-x,1/2+y
56 1/2-z,x,1/2-y
57 1/2+y,z,1/2+x
58 1/2-y,z,1/2-x
59 1/2+y,-z,1/2-x
60 1/2-y,-z,1/2+x
61 1/2+y,x,1/2-z
62 1/2-y,-x,1/2-z
63 1/2+y,-x,1/2+z
64 1/2-y,x,1/2+z
65 1/2+x,z,1/2-y
66 1/2-x,z,1/2+y
67 1/2-x,-z,1/2-y
68 1/2+x,-z,1/2+y
69 1/2+z,y,1/2-x
70 1/2+z,-y,1/2+x
71 1/2-z,y,1/2+x
72 1/2-z,-y,1/2-x
73 1/2+x,1/2+y,z
74 1/2-x,1/2-y,z
75 1/2-x,1/2+y,-z
76 1/2+x,1/2-y,-z
77 1/2+z,1/2+x,y
78 1/2+z,1/2-x,-y
79 1/2-z,1/2-x,y
80 1/2-z,1/2+x,-y
81 1/2+y,1/2+z,x
82 1/2-y,1/2+z,-x
83 1/2+y,1/2-z,-x
84 1/2-y,1/2-z,x
85 1/2+y,1/2+x,-z
86 1/2-y,1/2-x,-z
87 1/2+y,1/2-x,z
88 1/2-y,1/2+x,z
89 1/2+x,1/2+z,-y
90 1/2-x,1/2+z,y
91 1/2-x,1/2-z,-y
92 1/2+x,1/2-z,y
93 1/2+z,1/2+y,-x
94 1/2+z,1/2-y,x
95 1/2-z,1/2+y,x
96 1/2-z,1/2-y,-x
97 -x,-y,-z
98 x,y,-z
99 x,-y,z
100 -x,y,z
101 -z,-x,-y
102 -z,x,y
103 z,x,-y
104 z,-x,y
105 -y,-z,-x
106 y,-z,x
107 -y,z,x
108 y,z,-x
109 -y,-x,z
110 y,x,z
111 -y,x,-z
112 y,-x,-z
113 -x,-z,y
114 x,-z,-y
115 x,z,y
116 -x,z,-y
117 -z,-y,x
118 -z,y,-x
119 z,-y,-x
120 z,y,x
121 -x,1/2-y,1/2-z
122 x,1/2+y,1/2-z
123 x,1/2-y,1/2+z
124 -x,1/2+y,1/2+z
125 -z,1/2-x,1/2-y
126 -z,1/2+x,1/2+y
127 z,1/2+x,1/2-y
128 z,1/2-x,1/2+y
129 -y,1/2-z,1/2-x
130 y,1/2-z,1/2+x
131 -y,1/2+z,1/2+x
132 y,1/2+z,1/2-x
133 -y,1/2-x,1/2+z
134 y,1/2+x,1/2+z
135 -y,1/2+x,1/2-z
136 y,1/2-x,1/2-z
137 -x,1/2-z,1/2+y
138 x,1/2-z,1/2-y
139 x,1/2+z,1/2+y
140 -x,1/2+z,1/2-y
141 -z,1/2-y,1/2+x
142 -z,1/2+y,1/2-x
143 z,1/2-y,1/2-x
144 z,1/2+y,1/2+x
145 1/2-x,-y,1/2-z
146 1/2+x,y,1/2-z
147 1/2+x,-y,1/2+z
148 1/2-x,y,1/2+z
149 1/2-z,-x,1/2-y
150 1/2-z,x,1/2+y
151 1/2+z,x,1/2-y
152 1/2+z,-x,1/2+y
153 1/2-y,-z,1/2-x
154 1/2+y,-z,1/2+x
155 1/2-y,z,1/2+x
156 1/2+y,z,1/2-x
157 1/2-y,-x,1/2+z
158 1/2+y,x,1/2+z
159 1/2-y,x,1/2-z
160 1/2+y,-x,1/2-z
161 1/2-x,-z,1/2+y
162 1/2+x,-z,1/2-y
163 1/2+x,z,1/2+y
164 1/2-x,z,1/2-y
165 1/2-z,-y,1/2+x
166 1/2-z,y,1/2-x
167 1/2+z,-y,1/2-x
168 1/2+z,y,1/2+x
169 1/2-x,1/2-y,-z
170 1/2+x,1/2+y,-z
171 1/2+x,1/2-y,z
172 1/2-x,1/2+y,z
173 1/2-z,1/2-x,-y
174 1/2-z,1/2+x,y
175 1/2+z,1/2+x,-y
176 1/2+z,1/2-x,y
177 1/2-y,1/2-z,-x
178 1/2+y,1/2-z,x
179 1/2-y,1/2+z,x
180 1/2+y,1/2+z,-x
181 1/2-y,1/2-x,z
182 1/2+y,1/2+x,z
183 1/2-y,1/2+x,-z
184 1/2+y,1/2-x,-z
185 1/2-x,1/2-z,y
186 1/2+x,1/2-z,-y
187 1/2+x,1/2+z,y
188 1/2-x,1/2+z,-y
189 1/2-z,1/2-y,x
190 1/2-z,1/2+y,-x
191 1/2+z,1/2-y,-x
192 1/2+z,1/2+y,x
_cell_length_a                   26.4461(4)
_cell_length_b                   26.4461(4)
_cell_length_c                   26.4461(4)
_cell_angle_alpha                90
_cell_angle_beta                 90
_cell_angle_gamma                90
_cell_volume                     18496.3
loop_
_atom_site_label
_atom_site_type_symbol
_atom_site_fract_x
_atom_site_fract_y
_atom_site_fract_z
N2 N 0.5000(17) -0.287(2) 0.500(3)
C5 C 0.5000 -0.342(2) 0.5000
O1 O 0.193(3) -0.193(3) 0.693(3)
O2 O 0.5000 -0.5000 0.5000
Zn2 Zn 0.71020(4) 0.0000 0.21020(4)
C6 C 0.6782(3) -0.1136(3) 0.3218(3)
C7 C 0.6350(3) -0.1350(3) 0.3003(4)
H2 H 0.6201 -0.1201 0.2711
C8 C 0.7027(3) -0.0692(4) 0.2973(3)
O3 O 0.6829(2) -0.0526(2) 0.2580(2)
O4 O 0.6550(3) 0.0000 0.1550(3)
Zn2W Zn 0.78980(4) 0.0000 0.28980(4)
Zn2DA Zn 0.78980(4) -0.21020(4) 0.5000
Zn2NA Zn 0.71020(4) -0.28980(4) 0.5000
Zn2HB Zn 0.5000 -0.28980(4) 0.28980(4)
Zn2GB Zn 0.5000 -0.21020(4) 0.21020(4)
Zn2I Zn 1.0000 0.21020(4) 0.28980(4)
Zn2N Zn 1.0000 0.28980(4) 0.21020(4)
Zn2F Zn 0.78980(4) 0.28980(4) 0.0000
Zn2P Zn 0.71020(4) 0.21020(4) 0.0000
Zn2EA Zn 0.78980(4) 0.21020(4) 0.5000
Zn2QA Zn 0.71020(4) 0.28980(4) 0.5000
Zn2IB Zn 0.5000 0.28980(4) 0.28980(4)
Zn2DB Zn 0.5000 0.21020(4) 0.21020(4)
Zn2J Zn 1.0000 -0.21020(4) 0.28980(4)
Zn2O Zn 1.0000 -0.28980(4) 0.21020(4)
Zn2G Zn 0.78980(4) -0.28980(4) 0.0000
Zn2S Zn 0.71020(4) -0.21020(4) 0.0000
Zn2X Zn 0.71020(4) -0.5000 0.71020(4)
Zn2UA Zn 0.78980(4) -0.5000 0.78980(4)
Zn2L Zn 1.0000 -0.28980(4) 0.78980(4)
Zn2K Zn 1.0000 -0.21020(4) 0.71020(4)
Zn2KB Zn 0.5000 -0.28980(4) 0.71020(4)
Zn2FB Zn 0.5000 -0.21020(4) 0.78980(4)
Zn2C Zn 0.71020(4) 0.0000 0.78980(4)
Zn2V Zn 0.78980(4) 0.0000 0.71020(4)
Zn2AA Zn 0.71020(4) -0.5000 0.28980(4)
Zn2TA Zn 0.78980(4) -0.5000 0.21020(4)
Zn2R Zn 0.28980(4) -0.21020(4) 0.0000
Zn2D Zn 0.21020(4) -0.28980(4) 0.0000
Zn2SA Zn 0.21020(4) -0.5000 0.21020(4)
Zn2Z Zn 0.28980(4) -0.5000 0.28980(4)
C6CC C 0.6136(3) -0.1782(3) 0.3218(3)
C6DA C 0.6782(3) -0.1782(3) 0.3864(3)
C6QB C 0.8218(3) 0.1136(3) 0.1782(3)
C6LC C 0.8218(3) 0.1782(3) 0.1136(3)
C6JA C 0.8864(3) 0.1782(3) 0.1782(3)
C6W C 0.6782(3) 0.1136(3) 0.3218(3)
C6IC C 0.6136(3) 0.1782(3) 0.3218(3)
C6QA C 0.6782(3) 0.1782(3) 0.3864(3)
C6XA C 0.8218(3) -0.1136(3) 0.1782(3)
C6YB C 0.8218(3) -0.1782(3) 0.1136(3)
C6FA C 0.8864(3) -0.1782(3) 0.1782(3)
C6NB C 0.8218(3) -0.3218(3) 0.6136(3)
C6L C 0.8864(3) -0.3218(3) 0.6782(3)
C6OC C 0.8218(3) -0.3864(3) 0.6782(3)
C6NA C 0.6782(3) -0.1782(3) 0.6136(3)
C6V C 0.6782(3) -0.1136(3) 0.6782(3)
C6GC C 0.6136(3) -0.1782(3) 0.6782(3)
C6ZA C 0.8218(3) -0.3218(3) 0.3864(3)
C6J C 0.8864(3) -0.3218(3) 0.3218(3)
C6UB C 0.8218(3) -0.3864(3) 0.3218(3)
C6HB C 0.3864(3) -0.3218(3) 0.1782(3)
C6SA C 0.3218(3) -0.3864(3) 0.1782(3)
C6R C 0.3218(3) -0.3218(3) 0.1136(3)
C7CC C 0.6350(3) -0.1997(4) 0.3650(3)
C7DA C 0.6997(4) -0.1350(3) 0.3650(3)
C7QB C 0.8003(4) 0.1350(3) 0.1350(3)
C7LC C 0.8650(3) 0.1997(4) 0.1350(3)
C7JA C 0.8650(3) 0.1350(3) 0.1997(4)
C7IC C 0.6350(3) 0.1350(3) 0.3003(4)
C7QA C 0.6350(3) 0.1997(4) 0.3650(3)
C7W C 0.6997(4) 0.1350(3) 0.3650(3)
C7YB C 0.8003(4) -0.1350(3) 0.1350(3)
C7FA C 0.8650(3) -0.1997(4) 0.1350(3)
C7XA C 0.8650(3) -0.1350(3) 0.1997(4)
C7NB C 0.8650(3) -0.3003(4) 0.6350(3)
C7L C 0.8650(3) -0.3650(3) 0.6997(4)
C7OC C 0.8003(4) -0.3650(3) 0.6350(3)
C7V C 0.6997(4) -0.1350(3) 0.6350(3)
C7GC C 0.6350(3) -0.1350(3) 0.6997(4)
C7NA C 0.6350(3) -0.1997(4) 0.6350(3)
C7J C 0.8650(3) -0.3003(4) 0.3650(3)
C7UB C 0.8650(3) -0.3650(3) 0.3003(4)
C7ZA C 0.8003(4) -0.3650(3) 0.3650(3)
C7HB C 0.3650(3) -0.3650(3) 0.1997(4)
C7SA C 0.3003(4) -0.3650(3) 0.1350(3)
C7R C 0.3650(3) -0.3003(4) 0.1350(3)
H2DA H 0.7289 -0.1201 0.3799
H2CC H 0.6201 -0.2289 0.3799
H2QB H 0.7711 0.1201 0.1201
H2JA H 0.8799 0.1201 0.2289
H2LC H 0.8799 0.2289 0.1201
H2IC H 0.6201 0.1201 0.2711
H2W H 0.7289 0.1201 0.3799
H2QA H 0.6201 0.2289 0.3799
H2YB H 0.7711 -0.1201 0.1201
H2XA H 0.8799 -0.1201 0.2289
H2FA H 0.8799 -0.2289 0.1201
H2NB H 0.8799 -0.2711 0.6201
H2OC H 0.7711 -0.3799 0.6201
H2L H 0.8799 -0.3799 0.7289
H2V H 0.7289 -0.1201 0.6201
H2NA H 0.6201 -0.2289 0.6201
H2GC H 0.6201 -0.1201 0.7289
H2J H 0.8799 -0.2711 0.3799
H2ZA H 0.7711 -0.3799 0.3799
H2UB H 0.8799 -0.3799 0.2711
H2HB H 0.3799 -0.3799 0.2289
H2R H 0.3799 -0.2711 0.1201
H2SA H 0.2711 -0.3799 0.1201
C8DA C 0.7027(3) -0.2027(3) 0.4308(4)
C8CC C 0.5692(4) -0.2027(3) 0.2973(3)
C8QB C 0.7973(3) 0.0692(4) 0.2027(3)
C8JA C 0.9308(4) 0.2027(3) 0.2027(3)
C8LC C 0.7973(3) 0.2027(3) 0.0692(4)
C8W C 0.7027(3) 0.0692(4) 0.2973(3)
C8QA C 0.7027(3) 0.2027(3) 0.4308(4)
C8IC C 0.5692(4) 0.2027(3) 0.2973(3)
C8XA C 0.7973(3) -0.0692(4) 0.2027(3)
C8FA C 0.9308(4) -0.2027(3) 0.2027(3)
C8YB C 0.7973(3) -0.2027(3) 0.0692(4)
C8NB C 0.7973(3) -0.2973(3) 0.5692(4)
C8OC C 0.7973(3) -0.4308(4) 0.7027(3)
C8L C 0.9308(4) -0.2973(3) 0.7027(3)
C8NA C 0.7027(3) -0.2027(3) 0.5692(4)
C8GC C 0.5692(4) -0.2027(3) 0.7027(3)
C8V C 0.7027(3) -0.0692(4) 0.7027(3)
C8ZA C 0.7973(3) -0.2973(3) 0.4308(4)
C8UB C 0.7973(3) -0.4308(4) 0.2973(3)
C8J C 0.9308(4) -0.2973(3) 0.2973(3)
C8HB C 0.4308(4) -0.2973(3) 0.2027(3)
C8R C 0.2973(3) -0.2973(3) 0.0692(4)
C8SA C 0.2973(3) -0.4308(4) 0.2027(3)
O3MD O 0.7420(2) -0.0526(2) 0.3171(2)
O3DA O 0.7420(2) -0.1829(2) 0.4474(2)
O3HE O 0.6829(2) -0.2420(2) 0.4474(2)
O3CC O 0.5526(2) -0.2420(2) 0.3171(2)
O3XF O 0.5526(2) -0.1829(2) 0.2580(2)
O3QB O 0.7580(2) 0.0526(2) 0.1829(2)
O3NE O 0.8171(2) 0.0526(2) 0.2420(2)
O3JA O 0.9474(2) 0.1829(2) 0.2420(2)
O3YD O 0.9474(2) 0.2420(2) 0.1829(2)
O3LC O 0.8171(2) 0.2420(2) 0.0526(2)
O3RF O 0.7580(2) 0.1829(2) 0.0526(2)
O3TC O 0.6829(2) 0.0526(2) 0.2580(2)
O3W O 0.7420(2) 0.0526(2) 0.3171(2)
O3UD O 0.7420(2) 0.1829(2) 0.4474(2)
O3QA O 0.6829(2) 0.2420(2) 0.4474(2)
O3TF O 0.5526(2) 0.2420(2) 0.3171(2)
O3IC O 0.5526(2) 0.1829(2) 0.2580(2)
O3KF O 0.7580(2) -0.0526(2) 0.1829(2)
O3XA O 0.8171(2) -0.0526(2) 0.2420(2)
O3EE O 0.9474(2) -0.1829(2) 0.2420(2)
O3FA O 0.9474(2) -0.2420(2) 0.1829(2)
O3EG O 0.8171(2) -0.2420(2) 0.0526(2)
O3YB O 0.7580(2) -0.1829(2) 0.0526(2)
O3NB O 0.8171(2) -0.2580(2) 0.5526(2)
O3TE O 0.7580(2) -0.3171(2) 0.5526(2)
O3OC O 0.7580(2) -0.4474(2) 0.6829(2)
O3LF O 0.8171(2) -0.4474(2) 0.7420(2)
O3L O 0.9474(2) -0.3171(2) 0.7420(2)
O3AD O 0.9474(2) -0.2580(2) 0.6829(2)
O3TD O 0.7420(2) -0.1829(2) 0.5526(2)
O3NA O 0.6829(2) -0.2420(2) 0.5526(2)
O3VF O 0.5526(2) -0.2420(2) 0.6829(2)
O3GC O 0.5526(2) -0.1829(2) 0.7420(2)
O3SC O 0.6829(2) -0.0526(2) 0.7420(2)
O3V O 0.7420(2) -0.0526(2) 0.6829(2)
O3DF O 0.8171(2) -0.2580(2) 0.4474(2)
O3ZA O 0.7580(2) -0.3171(2) 0.4474(2)
O3HG O 0.7580(2) -0.4474(2) 0.3171(2)
O3UB O 0.8171(2) -0.4474(2) 0.2580(2)
O3ED O 0.9474(2) -0.3171(2) 0.2580(2)
O3J O 0.9474(2) -0.2580(2) 0.3171(2)
O3HB O 0.4474(2) -0.3171(2) 0.2420(2)
O3WE O 0.4474(2) -0.2580(2) 0.1829(2)
O3R O 0.3171(2) -0.2580(2) 0.0526(2)
O3XC O 0.2580(2) -0.3171(2) 0.0526(2)
O3SA O 0.2580(2) -0.4474(2) 0.1829(2)
O3PD O 0.3171(2) -0.4474(2) 0.2420(2)
O3WF O 0.4474(2) -0.2420(2) 0.3171(2)
O3BF O 0.5526(2) -0.3171(2) 0.2420(2)
O3HC O 0.4474(2) -0.1829(2) 0.2580(2)
O3GB O 0.5526(2) -0.2580(2) 0.1829(2)
O3I O 1.0526(2) 0.2580(2) 0.3171(2)
O3DE O 1.0526(2) 0.1829(2) 0.2420(2)
O3CD O 0.9474(2) 0.2580(2) 0.3171(2)
O3DD O 1.0526(2) 0.3171(2) 0.2580(2)
O3IA O 1.0526(2) 0.2420(2) 0.1829(2)
O3N O 0.9474(2) 0.3171(2) 0.2580(2)
O3F O 0.7420(2) 0.3171(2) -0.0526(2)
O3BG O 0.8171(2) 0.2420(2) -0.0526(2)
O3VC O 0.7420(2) 0.3171(2) 0.0526(2)
O3JD O 0.6829(2) 0.2580(2) -0.0526(2)
O3XB O 0.7580(2) 0.1829(2) -0.0526(2)
O3P O 0.6829(2) 0.2580(2) 0.0526(2)
O3GF O 0.8171(2) 0.2580(2) 0.5526(2)
O3EA O 0.7420(2) 0.1829(2) 0.5526(2)
O3MB O 0.8171(2) 0.2580(2) 0.4474(2)
O3AB O 0.7580(2) 0.3171(2) 0.5526(2)
O3GE O 0.6829(2) 0.2420(2) 0.5526(2)
O3UE O 0.7580(2) 0.3171(2) 0.4474(2)
O4W O 0.8450(3) 0.0000 0.3450(3)
O4DA O 0.8450(3) -0.1550(3) 0.5000
O4NA O 0.6550(3) -0.3450(3) 0.5000
O4HB O 0.5000 -0.3450(3) 0.3450(3)
O4GB O 0.5000 -0.1550(3) 0.1550(3)
O4I O 1.0000 0.1550(3) 0.3450(3)
O4N O 1.0000 0.3450(3) 0.1550(3)
O4F O 0.8450(3) 0.3450(3) 0.0000
O4P O 0.6550(3) 0.1550(3) 0.0000
O4EA O 0.8450(3) 0.1550(3) 0.5000
O4QA O 0.6550(3) 0.3450(3) 0.5000
Zn1 Zn 0.5000 0.0000 0.5000
C1 C 0.5000 -0.1293(7) 0.5000
C2 C 0.5000 -0.1848(10) 0.5000
C3 C 0.4528(9) -0.1065(9) 0.5000
C4 C 0.4053(10) -0.1307(10) 0.5000
H1 H 0.4000 -0.1657 0.5000
N1 N 0.4450(5) -0.0550(5) 0.5000
C1BC C 0.3707(7) 0.0000 0.5000
C1A C 0.5000 0.1293(7) 0.5000
C1CC C 0.6293(7) 0.0000 0.5000
C1CA C 0.5000 0.0000 0.6293(7)
C1BA C 0.5000 0.0000 0.3707(7)
C2BC C 0.3152(10) 0.0000 0.5000
C2A C 0.5000 0.1848(10) 0.5000
C2CC C 0.6848(10) 0.0000 0.5000
C2CA C 0.5000 0.0000 0.6848(10)
C2BA C 0.5000 0.0000 0.3152(10)
C3FC C 0.3935(9) -0.0472(9) 0.5000
C3HC C 0.3935(9) 0.0472(9) 0.5000
C3C C 0.4528(9) 0.1065(9) 0.5000
C3A C 0.5472(9) 0.1065(9) 0.5000
C3GC C 0.6065(9) 0.0472(9) 0.5000
C3IC C 0.6065(9) -0.0472(9) 0.5000
C3B C 0.5472(9) -0.1065(9) 0.5000
C3T C 0.5000 -0.1065(9) 0.5472(9)
C3EA C 0.5000 -0.0472(9) 0.6065(9)
C3CA C 0.5000 0.0472(9) 0.6065(9)
C3W C 0.5000 0.1065(9) 0.5472(9)
C3U C 0.5000 0.1065(9) 0.4528(9)
C3DA C 0.5000 0.0472(9) 0.3935(9)
C3BA C 0.5000 -0.0472(9) 0.3935(9)
C3V C 0.5000 -0.1065(9) 0.4528(9)
C3QA C 0.4528(9) 0.0000 0.3935(9)
C3BC C 0.3935(9) 0.0000 0.4528(9)
C3DC C 0.3935(9) 0.0000 0.5472(9)
C3NA C 0.4528(9) 0.0000 0.6065(9)
C3PA C 0.5472(9) 0.0000 0.6065(9)
C3CC C 0.6065(9) 0.0000 0.5472(9)
C3EC C 0.6065(9) 0.0000 0.4528(9)
C3OA C 0.5472(9) 0.0000 0.3935(9)
C4FC C 0.3693(10) -0.0947(10) 0.5000
C4HC C 0.3693(10) 0.0947(10) 0.5000
C4C C 0.4053(10) 0.1307(10) 0.5000
C4A C 0.5947(10) 0.1307(10) 0.5000
C4GC C 0.6307(10) 0.0947(10) 0.5000
C4IC C 0.6307(10) -0.0947(10) 0.5000
C4B C 0.5947(10) -0.1307(10) 0.5000
C4T C 0.5000 -0.1307(10) 0.5947(10)
C4EA C 0.5000 -0.0947(10) 0.6307(10)
C4CA C 0.5000 0.0947(10) 0.6307(10)
C4W C 0.5000 0.1307(10) 0.5947(10)
C4U C 0.5000 0.1307(10) 0.4053(10)
C4DA C 0.5000 0.0947(10) 0.3693(10)
C4BA C 0.5000 -0.0947(10) 0.3693(10)
C4V C 0.5000 -0.1307(10) 0.4053(10)
C4QA C 0.4053(10) 0.0000 0.3693(10)
C4BC C 0.3693(10) 0.0000 0.4053(10)
C4DC C 0.3693(10) 0.0000 0.5947(10)
C4NA C 0.4053(10) 0.0000 0.6307(10)
C4PA C 0.5947(10) 0.0000 0.6307(10)
C4CC C 0.6307(10) 0.0000 0.5947(10)
C4EC C 0.6307(10) 0.0000 0.4053(10)
C4OA C 0.5947(10) 0.0000 0.3693(10)
H1HC H 0.3343 0.1000 0.5000
H1A H 0.6000 0.1657 0.5000
H1IC H 0.6657 -0.1000 0.5000
H1T H 0.5000 -0.1657 0.6000
H1CA H 0.5000 0.1000 0.6657
H1U H 0.5000 0.1657 0.4000
H1BA H 0.5000 -0.1000 0.3343
H1V H 0.5000 -0.1657 0.4000
H1QA H 0.4000 0.0000 0.3343
H1DC H 0.3343 0.0000 0.6000
H1PA H 0.6000 0.0000 0.6657
H1EC H 0.6657 0.0000 0.4000
H1OA H 0.6000 0.0000 0.3343
H1CC H 0.6657 0.0000 0.6000
H1NA H 0.4000 0.0000 0.6657
H1BC H 0.3343 0.0000 0.4000
H1DA H 0.5000 0.1000 0.3343
H1W H 0.5000 0.1657 0.6000
H1EA H 0.5000 -0.1000 0.6657
H1B H 0.6000 -0.1657 0.5000
H1GC H 0.6657 0.1000 0.5000
H1C H 0.4000 0.1657 0.5000
H1FC H 0.3343 -0.1000 0.5000
N1V N 0.5000 -0.0550(5) 0.4450(5)
N1OA N 0.5550(5) 0.0000 0.4450(5)
N1PA N 0.5550(5) 0.0000 0.5550(5)
N1NA N 0.4450(5) 0.0000 0.5550(5)
N1QA N 0.4450(5) 0.0000 0.4450(5)
N1U N 0.5000 0.0550(5) 0.4450(5)
N1W N 0.5000 0.0550(5) 0.5550(5)
N1T N 0.5000 -0.0550(5) 0.5550(5)
N1B N 0.5550(5) -0.0550(5) 0.5000
N1A N 0.5550(5) 0.0550(5) 0.5000
N1C N 0.4450(5) 0.0550(5) 0.5000
C9? C 0.5441(9) -0.2109(16) 0.509(4)
H3? H 0.5749 -0.1934 0.5147
C10? C 0.5425(9) -0.2618(17) 0.508(4)
H4? H 0.5726 -0.2804 0.5143
H5? H 0.5000 -0.3545 0.4655
H6? H 0.4701 -0.3545 0.5172
O5? O 0.1717(14) -0.154(3) 0.6717(14)
O6? O 0.1603(18) -0.116(2) 0.636(2)
O7? O 0.5000 -0.5000 0.545(5)
O8? O 0.466(2) -0.466(2) 0.534(2)
loop_
_geom_bond_atom_site_label_1
_geom_bond_atom_site_label_2
_geom_bond_site_symmetry_1
_geom_bond_site_symmetry_2
Zn1 N1 1_555 1_555
C1 C2 1_555 1_555
C3 C1 1_555 1_555
C4 C3 1_555 1_555
H1 C4 1_555 1_555
N1 C3 1_555 1_555
N2 C5 1_555 1_555
Zn2 O3 1_555 1_555
C6 C7 1_555 1_555
C7 H2 1_555 1_555
C8 C6 1_555 1_555
O3 C8 1_555 1_555
O4 Zn2 1_555 1_555
C1BC C2BC 1_555 1_555
C1A C2A 1_555 1_555
C1CC C2CC 1_555 1_555
C1CA C2CA 1_555 1_555
C1BA C2BA 1_555 1_555
C3FC N1 1_555 1_555
C3HC C1BC 1_555 1_555
C3C C1A 1_555 1_555
C3A C1A 1_555 1_555
C3GC C1CC 1_555 1_555
C3IC C1CC 1_555 1_555
C3B C1 1_555 1_555
C3T C1 1_555 1_555
C3EA C1CA 1_555 1_555
C3CA C1CA 1_555 1_555
C3W C1A 1_555 1_555
C3U C1A 1_555 1_555
C3DA C1BA 1_555 1_555
C3BA C1BA 1_555 1_555
C3V C1 1_555 1_555
C3QA C1BA 1_555 1_555
C3BC C1BC 1_555 1_555
C3DC C1BC 1_555 1_555
C3NA C1CA 1_555 1_555
C3PA C1CA 1_555 1_555
C3CC C1CC 1_555 1_555
C3EC C1CC 1_555 1_555
C3OA C1BA 1_555 1_555
C4FC C4 1_555 1_555
C4HC C3HC 1_555 1_555
C4C C3C 1_555 1_555
C4A C3A 1_555 1_555
C4GC C3GC 1_555 1_555
C4IC C3IC 1_555 1_555
C4B C3B 1_555 1_555
C4T C3T 1_555 1_555
C4EA C3EA 1_555 1_555
C4CA C3CA 1_555 1_555
C4W C3W 1_555 1_555
C4U C3U 1_555 1_555
C4DA C3DA 1_555 1_555
C4BA C3BA 1_555 1_555
C4V C3V 1_555 1_555
C4QA C3QA 1_555 1_555
C4BC C3BC 1_555 1_555
C4DC C3DC 1_555 1_555
C4NA C3NA 1_555 1_555
C4PA C3PA 1_555 1_555
C4CC C3CC 1_555 1_555
C4EC C3EC 1_555 1_555
C4OA C3OA 1_555 1_555
H1HC C4HC 1_555 1_555
H1A C4A 1_555 1_555
H1IC C4IC 1_555 1_555
H1T C4T 1_555 1_555
H1CA C4CA 1_555 1_555
H1U C4U 1_555 1_555
H1BA C4BA 1_555 1_555
H1V C4V 1_555 1_555
H1QA C4QA 1_555 1_555
H1DC C4DC 1_555 1_555
H1PA C4PA 1_555 1_555
H1EC C4EC 1_555 1_555
H1OA C4OA 1_555 1_555
H1CC C4CC 1_555 1_555
H1NA C4NA 1_555 1_555
H1BC C4BC 1_555 1_555
H1DA C4DA 1_555 1_555
H1W C4W 1_555 1_555
H1EA C4EA 1_555 1_555
H1B C4B 1_555 1_555
H1GC C4GC 1_555 1_555
H1C C4C 1_555 1_555
H1FC C4FC 1_555 1_555
N1V Zn1 1_555 1_555
N1OA Zn1 1_555 1_555
N1PA Zn1 1_555 1_555
N1NA Zn1 1_555 1_555
N1QA Zn1 1_555 1_555
N1U Zn1 1_555 1_555
N1W Zn1 1_555 1_555
N1T Zn1 1_555 1_555
N1B Zn1 1_555 1_555
N1A Zn1 1_555 1_555
N1C Zn1 1_555 1_555
Zn2W O3MD 1_555 1_555
Zn2DA O3DA 1_555 1_555
Zn2NA O3HE 1_555 1_555
Zn2HB O3CC 1_555 1_555
Zn2GB O3XF 1_555 1_555
Zn2I O3JA 1_555 1_555
Zn2N O3YD 1_555 1_555
Zn2F O3LC 1_555 1_555
Zn2P O3RF 1_555 1_555
Zn2EA O3UD 1_555 1_555
Zn2QA O3QA 1_555 1_555
Zn2IB O3TF 1_555 1_555
Zn2DB O3IC 1_555 1_555
Zn2J O3EE 1_555 1_555
Zn2O O3FA 1_555 1_555
Zn2G O3EG 1_555 1_555
Zn2S O3YB 1_555 1_555
Zn2X O3OC 1_555 1_555
Zn2UA O3LF 1_555 1_555
Zn2L O3L 1_555 1_555
Zn2K O3AD 1_555 1_555
Zn2KB O3VF 1_555 1_555
Zn2FB O3GC 1_555 1_555
Zn2C O3SC 1_555 1_555
Zn2V O3V 1_555 1_555
Zn2AA O3HG 1_555 1_555
Zn2TA O3UB 1_555 1_555
Zn2R O3R 1_555 1_555
Zn2D O3XC 1_555 1_555
Zn2SA O3SA 1_555 1_555
Zn2Z O3PD 1_555 1_555
C6CC C7 1_555 1_555
C6DA C7CC 1_555 1_555
C6QB C7QB 1_555 1_555
C6LC C7QB 1_555 1_555
C6JA C7LC 1_555 1_555
C6W C7IC 1_555 1_555
C6IC C7IC 1_555 1_555
C6QA C7QA 1_555 1_555
C6XA C7YB 1_555 1_555
C6YB C7YB 1_555 1_555
C6FA C7FA 1_555 1_555
C6NB C7NB 1_555 1_555
C6L C7NB 1_555 1_555
C6OC C7L 1_555 1_555
C6NA C7V 1_555 1_555
C6V C7V 1_555 1_555
C6GC C7GC 1_555 1_555
C6ZA C7J 1_555 1_555
C6J C7J 1_555 1_555
C6UB C7UB 1_555 1_555
C6HB C7HB 1_555 1_555
C6SA C7HB 1_555 1_555
C6R C7SA 1_555 1_555
C7CC C6CC 1_555 1_555
C7DA C6 1_555 1_555
C7QB H2QB 1_555 1_555
C7LC C6LC 1_555 1_555
C7JA C6QB 1_555 1_555
C7IC H2IC 1_555 1_555
C7QA C6IC 1_555 1_555
C7W C6W 1_555 1_555
C7YB H2YB 1_555 1_555
C7FA C6YB 1_555 1_555
C7XA C6XA 1_555 1_555
C7NB H2NB 1_555 1_555
C7L C6L 1_555 1_555
C7OC C6NB 1_555 1_555
C7V H2V 1_555 1_555
C7GC C6V 1_555 1_555
C7NA C6NA 1_555 1_555
C7J H2J 1_555 1_555
C7UB C6J 1_555 1_555
C7ZA C6ZA 1_555 1_555
C7HB H2HB 1_555 1_555
C7SA C6SA 1_555 1_555
C7R C6HB 1_555 1_555
H2DA C7DA 1_555 1_555
H2CC C7CC 1_555 1_555
H2JA C7JA 1_555 1_555
H2LC C7LC 1_555 1_555
H2W C7W 1_555 1_555
H2QA C7QA 1_555 1_555
H2XA C7XA 1_555 1_555
H2FA C7FA 1_555 1_555
H2OC C7OC 1_555 1_555
H2L C7L 1_555 1_555
H2NA C7NA 1_555 1_555
H2GC C7GC 1_555 1_555
H2ZA C7ZA 1_555 1_555
H2UB C7UB 1_555 1_555
H2R C7R 1_555 1_555
H2SA C7SA 1_555 1_555
C8DA C6DA 1_555 1_555
C8CC C6CC 1_555 1_555
C8QB C6QB 1_555 1_555
C8JA C6JA 1_555 1_555
C8LC C6LC 1_555 1_555
C8W C6W 1_555 1_555
C8QA C6QA 1_555 1_555
C8IC C6IC 1_555 1_555
C8XA C6XA 1_555 1_555
C8FA C6FA 1_555 1_555
C8YB C6YB 1_555 1_555
C8NB C6NB 1_555 1_555
C8OC C6OC 1_555 1_555
C8L C6L 1_555 1_555
C8NA C6NA 1_555 1_555
C8GC C6GC 1_555 1_555
C8V C6V 1_555 1_555
C8ZA C6ZA 1_555 1_555
C8UB C6UB 1_555 1_555
C8J C6J 1_555 1_555
C8HB C6HB 1_555 1_555
C8R C6R 1_555 1_555
C8SA C6SA 1_555 1_555
O3MD C8 1_555 1_555
O3DA C8DA 1_555 1_555
O3HE C8DA 1_555 1_555
O3CC C8CC 1_555 1_555
O3XF C8CC 1_555 1_555
O3QB Zn2 1_555 1_555
O3NE Zn2W 1_555 1_555
O3JA C8JA 1_555 1_555
O3YD C8JA 1_555 1_555
O3LC C8LC 1_555 1_555
O3RF C8LC 1_555 1_555
O3TC Zn2 1_555 1_555
O3W Zn2W 1_555 1_555
O3UD C8QA 1_555 1_555
O3QA C8QA 1_555 1_555
O3TF C8IC 1_555 1_555
O3IC C8IC 1_555 1_555
O3KF Zn2 1_555 1_555
O3XA Zn2W 1_555 1_555
O3EE C8FA 1_555 1_555
O3FA C8FA 1_555 1_555
O3EG C8YB 1_555 1_555
O3YB C8YB 1_555 1_555
O3NB Zn2DA 1_555 1_555
O3TE Zn2NA 1_555 1_555
O3OC C8OC 1_555 1_555
O3LF C8OC 1_555 1_555
O3L C8L 1_555 1_555
O3AD C8L 1_555 1_555
O3TD Zn2DA 1_555 1_555
O3NA Zn2NA 1_555 1_555
O3VF C8GC 1_555 1_555
O3GC C8GC 1_555 1_555
O3SC C8V 1_555 1_555
O3V C8V 1_555 1_555
O3DF Zn2DA 1_555 1_555
O3ZA Zn2NA 1_555 1_555
O3HG C8UB 1_555 1_555
O3UB C8UB 1_555 1_555
O3ED Zn2O 1_555 1_555
O3J Zn2J 1_555 1_555
O3HB Zn2HB 1_555 1_555
O3WE Zn2GB 1_555 1_555
O3R C8R 1_555 1_555
O3XC C8R 1_555 1_555
O3SA C8SA 1_555 1_555
O3PD C8SA 1_555 1_555
O3WF Zn2HB 1_555 1_555
O3BF Zn2HB 1_555 1_555
O3HC Zn2GB 1_555 1_555
O3GB Zn2GB 1_555 1_555
O3I Zn2I 1_555 1_555
O3DE Zn2I 1_555 1_555
O3CD Zn2I 1_555 1_555
O3DD Zn2N 1_555 1_555
O3IA Zn2N 1_555 1_555
O3N Zn2N 1_555 1_555
O3F Zn2F 1_555 1_555
O3BG Zn2F 1_555 1_555
O3VC Zn2F 1_555 1_555
O3JD Zn2P 1_555 1_555
O3XB Zn2P 1_555 1_555
O3P Zn2P 1_555 1_555
O3GF Zn2EA 1_555 1_555
O3EA Zn2EA 1_555 1_555
O3MB Zn2EA 1_555 1_555
O3AB Zn2QA 1_555 1_555
O3GE Zn2QA 1_555 1_555
O3UE Zn2QA 1_555 1_555
O4W Zn2W 1_555 1_555
O4DA Zn2DA 1_555 1_555
O4NA Zn2NA 1_555 1_555
O4HB Zn2HB 1_555 1_555
O4GB Zn2GB 1_555 1_555
O4I Zn2I 1_555 1_555
O4N Zn2N 1_555 1_555
O4F Zn2F 1_555 1_555
O4P Zn2P 1_555 1_555
O4EA Zn2EA 1_555 1_555
O4QA Zn2QA 1_555 1_555
C1BC C3FC 1_555 1_555
C3FC C4FC 1_555 1_555
C3HC N1C 1_555 1_555
C3C N1C 1_555 1_555
C3A N1A 1_555 1_555
C3GC N1A 1_555 1_555
C3IC N1B 1_555 1_555
C3B N1B 1_555 1_555
C3T N1T 1_555 1_555
C3EA N1T 1_555 1_555
C3CA N1W 1_555 1_555
C3W N1W 1_555 1_555
C3U N1U 1_555 1_555
C3DA N1U 1_555 1_555
C3BA N1V 1_555 1_555
C3V N1V 1_555 1_555
C3QA N1QA 1_555 1_555
C3BC N1QA 1_555 1_555
C3DC N1NA 1_555 1_555
C3NA N1NA 1_555 1_555
C3PA N1PA 1_555 1_555
C3CC N1PA 1_555 1_555
C3EC N1OA 1_555 1_555
C3OA N1OA 1_555 1_555
C4HC C4C 1_555 1_555
C4A C4GC 1_555 1_555
C4IC C4B 1_555 1_555
C4T C4EA 1_555 1_555
C4CA C4W 1_555 1_555
C4U C4DA 1_555 1_555
C4BA C4V 1_555 1_555
C4QA C4BC 1_555 1_555
C4DC C4NA 1_555 1_555
C4PA C4CC 1_555 1_555
C4EC C4OA 1_555 1_555
C6DA C7DA 1_555 1_555
C6JA C7JA 1_555 1_555
C6QA C7W 1_555 1_555
C6FA C7XA 1_555 1_555
C6OC C7OC 1_555 1_555
C6GC C7NA 1_555 1_555
C6UB C7ZA 1_555 1_555
C6R C7R 1_555 1_555
C8QB O3QB 1_555 1_555
C8QB O3NE 1_555 1_555
C8W O3TC 1_555 1_555
C8W O3W 1_555 1_555
C8XA O3KF 1_555 1_555
C8XA O3XA 1_555 1_555
C8NB O3NB 1_555 1_555
C8NB O3TE 1_555 1_555
C8NA O3TD 1_555 1_555
C8NA O3NA 1_555 1_555
C8ZA O3DF 1_555 1_555
C8ZA O3ZA 1_555 1_555
C8J O3ED 1_555 1_555
C8J O3J 1_555 1_555
C8HB O3HB 1_555 1_555
C8HB O3WE 1_555 1_555

#END
