
#######################################################################
#
#                 Cambridge Crystallographic Data Centre
#                                CCDC 
#
#######################################################################
#
# If this CIF has been generated from an entry in the Cambridge 
# Structural Database, then it will include bibliographic, chemical, 
# crystal, experimental, refinement or atomic coordinate data resulting 
# from the CCDC's data processing and validation procedures.
#
#######################################################################

data_HAPHUD
_symmetry_cell_setting           monoclinic
_symmetry_space_group_name_H-M   'P 21/c'
_symmetry_Int_Tables_number      14
_space_group_name_Hall           '-P 2ybc'
loop_
_symmetry_equiv_pos_site_id
_symmetry_equiv_pos_as_xyz
1 x,y,z
2 -x,1/2+y,1/2-z
3 -x,-y,-z
4 x,1/2-y,1/2+z
_cell_length_a                   11.3815(4)
_cell_length_b                   20.0676(7)
_cell_length_c                   29.4371(11)
_cell_angle_alpha                90
_cell_angle_beta                 98.782(2)
_cell_angle_gamma                90
_cell_volume                     6644.59
loop_
_atom_site_label
_atom_site_type_symbol
_atom_site_fract_x
_atom_site_fract_y
_atom_site_fract_z
Zn1 Zn 0.45901(11) 0.07665(6) 0.45278(4)
Zn2 Zn 0.47293(11) 0.42177(6) 0.54421(4)
O1 O 0.4631(7) 0.1400(3) 0.3822(3)
O2 O 0.4625(7) 0.1795(3) 0.4527(2)
O3 O 0.4644(7) 0.4281(3) 0.0219(2)
O4 O 0.5546(6) 0.4891(3) 0.0809(2)
O5 O 0.4413(6) 0.4259(3) 0.4743(2)
O6 O 0.5207(6) 0.4897(3) 0.4243(2)
O7 O 0.4714(7) 0.1807(3) 0.0436(2)
O8 O 0.5000(7) 0.1399(3) 0.1143(2)
O9 O 0.5032(9) 0.2590(4) 0.2501(3)
N1 N 0.5738(11) 0.3476(4) 0.2934(3)
H1 H 0.6146 0.3847 0.2924
N2 N 0.5897(11) 0.3452(4) 0.2178(3)
H2 H 0.6410 0.3778 0.2249
N3 N 0.6480(7) 0.0730(4) 0.4548(3)
N4 N 1.2694(7) 0.0768(4) 0.4471(3)
N5 N 0.6604(6) 0.4198(4) 0.5457(3)
N6 N 1.2887(7) 0.4241(4) 0.5428(3)
C1 C 0.4709(8) 0.1872(5) 0.4098(4)
C2 C 0.4879(9) 0.2571(4) 0.3941(3)
C3 C 0.4748(9) 0.3118(4) 0.4225(3)
H3 H 0.4499 0.3053 0.4515
C4 C 0.4980(10) 0.3745(5) 0.4081(3)
C5 C 0.5282(13) 0.3863(5) 0.3646(4)
H4 H 0.5404 0.4305 0.3547
C6 C 0.5401(12) 0.3318(5) 0.3354(3)
C7 C 0.5156(11) 0.2659(4) 0.3498(3)
H5 H 0.5180 0.2290 0.3297
C8 C 0.4847(7) 0.4349(5) 0.4380(3)
C9 C 0.5510(13) 0.3124(6) 0.2534(4)
C10 C 0.5543(12) 0.3311(5) 0.1704(4)
C11 C 0.5486(9) 0.3854(5) 0.1409(4)
H6 H 0.5631 0.4291 0.1529
C12 C 0.5215(9) 0.3752(4) 0.0936(3)
C13 C 0.4992(9) 0.3117(5) 0.0761(3)
H7 H 0.4771 0.3053 0.0439
C14 C 0.5093(8) 0.2577(5) 0.1056(3)
C15 C 0.5365(12) 0.2660(5) 0.1533(3)
H8 H 0.5426 0.2287 0.1734
C16 C 0.5119(7) 0.4359(5) 0.0625(3)
C17 C 0.4922(10) 0.1885(5) 0.0880(3)
C18 C 0.7279(9) 0.0958(6) 0.4899(4)
H9 H 0.6992 0.1124 0.5164
C19 C 0.8464(11) 0.0962(7) 0.4896(4)
H10 H 0.8985 0.1111 0.5160
C20 C 0.8928(9) 0.0753(6) 0.4510(4)
C21 C 0.8082(9) 0.0537(6) 0.4135(4)
H11 H 0.8340 0.0388 0.3861
C22 C 0.6919(11) 0.0543(6) 0.4165(4)
H12 H 0.6374 0.0407 0.3904
C23 C 1.0204(10) 0.0778(6) 0.4490(4)
C24 C 1.0988(11) 0.1222(7) 0.4750(5)
H13 H 1.0685 0.1545 0.4938
C25 C 1.2175(10) 0.1197(6) 0.4736(4)
H14 H 1.2674 0.1500 0.4924
C26 C 1.1941(11) 0.0345(6) 0.4217(4)
H15 H 1.2264 0.0038 0.4024
C27 C 1.0757(9) 0.0330(6) 0.4221(4)
H16 H 1.0286 0.0009 0.4038
C28 C 0.7374(10) 0.4588(6) 0.5749(4)
H17 H 0.7049 0.4858 0.5964
C29 C 0.8558(11) 0.4613(6) 0.5751(4)
H18 H 0.9042 0.4901 0.5957
C30 C 0.9055(9) 0.4216(6) 0.5452(4)
C31 C 0.8282(11) 0.3813(7) 0.5146(5)
H19 H 0.8588 0.3545 0.4925
C32 C 0.7073(10) 0.3811(7) 0.5170(4)
H20 H 0.6567 0.3522 0.4973
C33 C 1.0377(9) 0.4241(6) 0.5440(4)
C34 C 1.1037(13) 0.4770(7) 0.5587(6)
H21 H 1.0683 0.5157 0.5694
C35 C 1.2280(13) 0.4743(9) 0.5580(7)
H22 H 1.2729 0.5122 0.5695
C36 C 1.2170(12) 0.3727(8) 0.5281(6)
H23 H 1.2532 0.3337 0.5183
C37 C 1.0918(12) 0.3720(8) 0.5261(6)
H24 H 1.0462 0.3356 0.5123
Zn1C Zn 0.45901(11) 0.42335(6) -0.04722(4)
Zn1A Zn 0.54099(11) 0.57665(6) 0.04722(4)
Zn1_2 Zn 1.45901(11) 0.07665(6) 0.45278(4)
Zn2B Zn 0.52707(11) 0.57823(6) 0.45579(4)
Zn2C Zn 0.47293(11) 0.07823(6) 0.04421(4)
Zn2_2 Zn 1.47293(11) 0.42177(6) 0.54421(4)
O3C O 0.4644(7) 0.0719(3) 0.5219(2)
O4A O 0.4454(6) -0.0109(3) 0.4191(2)
O6B O 0.4793(6) 0.5103(3) 0.5757(2)
O7C O 0.4714(7) 0.3193(3) 0.5436(2)
N4_2 N 0.2694(7) 0.0768(4) 0.4471(3)
N6_2 N 0.2887(7) 0.4241(4) 0.5428(3)
O10 O 0.1305(14) 0.8893(7) 0.3651(7)
N7 N 0.1454(18) 0.7804(8) 0.3561(7)
C38 C 0.180(2) 0.7157(9) 0.3752(9)
H25 H 0.2404 0.6964 0.3588
H26 H 0.1103 0.6864 0.3720
H27 H 0.2126 0.7206 0.4078
C39 C 0.111(2) 0.7816(12) 0.3077(7)
H28 H 0.0544 0.7454 0.2985
H29 H 0.1813 0.7757 0.2926
H30 H 0.0734 0.8245 0.2985
C40 C 0.159(2) 0.8328(9) 0.3816(8)
H31 H 0.1903 0.8286 0.4133
O11 O 0.348(3) 0.4891(9) 0.1933(5)
N8 N 0.337(3) 0.5445(10) 0.2578(6)
C41 C 0.346(4) 0.5460(13) 0.3075(6)
H32 H 0.4199 0.5686 0.3207
H33 H 0.3468 0.5004 0.3193
H34 H 0.2780 0.5702 0.3160
C42 C 0.347(4) 0.6070(11) 0.2368(8)
H35 H 0.2680 0.6278 0.2305
H36 H 0.3784 0.6011 0.2079
H37 H 0.4004 0.6358 0.2574
C43 C 0.340(4) 0.4899(11) 0.2358(7)
H38 H 0.3359 0.4489 0.2517
O12 O 0.1891(16) 0.4140(7) 0.3503(7)
N9 N 0.177(2) 0.3053(8) 0.3526(7)
C44 C 0.178(2) 0.2417(9) 0.3754(9)
H39 H 0.1062 0.2165 0.3628
H40 H 0.1785 0.2486 0.4084
H41 H 0.2485 0.2166 0.3705
C45 C 0.196(2) 0.2999(11) 0.3059(8)
H42 H 0.2522 0.2635 0.3032
H43 H 0.2298 0.3418 0.2964
H44 H 0.1208 0.2908 0.2861
C46 C 0.177(2) 0.3620(9) 0.3732(8)
H45 H 0.1681 0.3645 0.4047
O13 O 0.887(2) 0.3663(11) 0.4088(7)
N10 N 0.845(3) 0.2844(11) 0.3620(7)
C47 C 0.841(3) 0.2487(14) 0.3195(9)
H46 H 0.9098 0.2187 0.3217
H47 H 0.8436 0.2804 0.2944
H48 H 0.7677 0.2226 0.3135
C48 C 0.827(3) 0.2463(14) 0.4013(9)
H49 H 0.7822 0.2057 0.3913
H50 H 0.7816 0.2728 0.4207
H51 H 0.9039 0.2342 0.4189
C49 C 0.875(3) 0.3462(12) 0.3676(8)
H52 H 0.8871 0.3743 0.3428
O14 O 0.0565(17) 0.2126(10) 0.5634(5)
N11 N 0.169(2) 0.1818(10) 0.6291(6)
C50 C 0.223(3) 0.1876(13) 0.6767(7)
H53 H 0.1681 0.1698 0.6964
H54 H 0.2390 0.2346 0.6841
H55 H 0.2971 0.1623 0.6817
C51 C 0.177(3) 0.1159(11) 0.6112(8)
H56 H 0.2613 0.1028 0.6143
H57 H 0.1424 0.1151 0.5786
H58 H 0.1347 0.0846 0.6283
C52 C 0.114(2) 0.2271(12) 0.6033(7)
H59 H 0.1160 0.2719 0.6138
O15 O -0.003(3) 0.6429(12) 0.2391(10)
N12 N -0.001(3) 0.5372(12) 0.2501(9)
C53 C 0.003(4) 0.4671(13) 0.2396(13)
H60 H 0.0851 0.4548 0.2364
H61 H -0.0493 0.4579 0.2107
H62 H -0.0223 0.4411 0.2645
C54 C 0.000(4) 0.5518(17) 0.2974(10)
H63 H -0.0584 0.5240 0.3095
H64 H -0.0192 0.5989 0.3009
H65 H 0.0796 0.5427 0.3144
C55 C 0.008(4) 0.5847(13) 0.2216(10)
H66 H 0.0202 0.5777 0.1908
O16 O 0.673(3) 0.4683(10) 0.2638(13)
N13 N 0.6705(17) 0.5783(7) 0.2656(7)
C56 C 0.678(2) 0.5695(10) 0.3159(8)
H67 H 0.7450 0.5400 0.3271
H68 H 0.6042 0.5496 0.3227
H69 H 0.6905 0.6129 0.3311
C57 C 0.688(2) 0.6444(9) 0.2506(9)
H70 H 0.6335 0.6746 0.2632
H71 H 0.6722 0.6461 0.2169
H72 H 0.7702 0.6581 0.2613
C58 C 0.671(2) 0.5243(9) 0.2432(8)
H73 H 0.6688 0.5255 0.2109
H74? H 0.6753 0.4786 0.2517
O17? O 0.662(3) 0.5553(14) 0.2044(10)
loop_
_geom_bond_atom_site_label_1
_geom_bond_atom_site_label_2
_geom_bond_site_symmetry_1
_geom_bond_site_symmetry_2
Zn1 O2 1_555 1_555
Zn2 O5 1_555 1_555
O1 C1 1_555 1_555
O2 C1 1_555 1_555
O3 C16 1_555 1_555
O4 C16 1_555 1_555
O5 C8 1_555 1_555
O6 C8 1_555 1_555
O7 C17 1_555 1_555
O8 C17 1_555 1_555
O9 C9 1_555 1_555
N1 H1 1_555 1_555
N2 H2 1_555 1_555
N3 Zn1 1_555 1_555
N4 C25 1_555 1_555
N5 Zn2 1_555 1_555
N6 C35 1_555 1_555
C1 C2 1_555 1_555
C2 C3 1_555 1_555
C3 H3 1_555 1_555
C4 C3 1_555 1_555
C5 C4 1_555 1_555
H4 C5 1_555 1_555
C6 N1 1_555 1_555
C7 C2 1_555 1_555
H5 C7 1_555 1_555
C8 C4 1_555 1_555
C9 N1 1_555 1_555
C10 N2 1_555 1_555
C11 C10 1_555 1_555
H6 C11 1_555 1_555
C12 C11 1_555 1_555
C13 C12 1_555 1_555
H7 C13 1_555 1_555
C14 C13 1_555 1_555
C15 C10 1_555 1_555
H8 C15 1_555 1_555
C16 C12 1_555 1_555
C17 C14 1_555 1_555
C18 N3 1_555 1_555
H9 C18 1_555 1_555
C19 C18 1_555 1_555
H10 C19 1_555 1_555
C20 C19 1_555 1_555
C21 C20 1_555 1_555
H11 C21 1_555 1_555
C22 N3 1_555 1_555
H12 C22 1_555 1_555
C23 C20 1_555 1_555
C24 C23 1_555 1_555
H13 C24 1_555 1_555
C25 C24 1_555 1_555
H14 C25 1_555 1_555
C26 N4 1_555 1_555
H15 C26 1_555 1_555
C27 C23 1_555 1_555
H16 C27 1_555 1_555
C28 N5 1_555 1_555
H17 C28 1_555 1_555
C29 C28 1_555 1_555
H18 C29 1_555 1_555
C30 C29 1_555 1_555
C31 C30 1_555 1_555
H19 C31 1_555 1_555
C32 N5 1_555 1_555
H20 C32 1_555 1_555
C33 C30 1_555 1_555
C34 C33 1_555 1_555
H21 C34 1_555 1_555
C35 C34 1_555 1_555
H22 C35 1_555 1_555
C36 N6 1_555 1_555
H23 C36 1_555 1_555
C37 C33 1_555 1_555
H24 C37 1_555 1_555
O10 C40 1_555 1_555
N7 C38 1_555 1_555
C38 H25 1_555 1_555
H26 C38 1_555 1_555
H27 C38 1_555 1_555
C39 N7 1_555 1_555
H28 C39 1_555 1_555
H29 C39 1_555 1_555
H30 C39 1_555 1_555
C40 N7 1_555 1_555
H31 C40 1_555 1_555
O11 C43 1_555 1_555
N8 C41 1_555 1_555
C41 H32 1_555 1_555
H33 C41 1_555 1_555
H34 C41 1_555 1_555
C42 N8 1_555 1_555
H35 C42 1_555 1_555
H36 C42 1_555 1_555
H37 C42 1_555 1_555
C43 N8 1_555 1_555
H38 C43 1_555 1_555
O12 C46 1_555 1_555
N9 C44 1_555 1_555
C44 H39 1_555 1_555
H40 C44 1_555 1_555
H41 C44 1_555 1_555
C45 N9 1_555 1_555
H42 C45 1_555 1_555
H43 C45 1_555 1_555
H44 C45 1_555 1_555
C46 N9 1_555 1_555
H45 C46 1_555 1_555
O13 C49 1_555 1_555
N10 C47 1_555 1_555
C47 H46 1_555 1_555
H47 C47 1_555 1_555
H48 C47 1_555 1_555
C48 N10 1_555 1_555
H49 C48 1_555 1_555
H50 C48 1_555 1_555
H51 C48 1_555 1_555
C49 N10 1_555 1_555
H52 C49 1_555 1_555
O14 C52 1_555 1_555
N11 C50 1_555 1_555
C50 H53 1_555 1_555
H54 C50 1_555 1_555
H55 C50 1_555 1_555
C51 N11 1_555 1_555
H56 C51 1_555 1_555
H57 C51 1_555 1_555
H58 C51 1_555 1_555
C52 N11 1_555 1_555
H59 C52 1_555 1_555
O15 C55 1_555 1_555
N12 C53 1_555 1_555
C53 H60 1_555 1_555
H61 C53 1_555 1_555
H62 C53 1_555 1_555
C54 N12 1_555 1_555
H63 C54 1_555 1_555
H64 C54 1_555 1_555
H65 C54 1_555 1_555
C55 N12 1_555 1_555
H66 C55 1_555 1_555
O16 C58 1_555 1_555
N13 C56 1_555 1_555
C56 H67 1_555 1_555
H68 C56 1_555 1_555
H69 C56 1_555 1_555
C57 N13 1_555 1_555
H70 C57 1_555 1_555
H71 C57 1_555 1_555
H72 C57 1_555 1_555
C58 N13 1_555 1_555
H73 C58 1_555 1_555
Zn1C O3 1_555 1_555
Zn1A O4 1_555 1_555
Zn1_2 N4 1_555 1_555
Zn2B O6 1_555 1_555
Zn2C O7 1_555 1_555
Zn2_2 N6 1_555 1_555
O3C Zn1 1_555 1_555
O4A Zn1 1_555 1_555
O6B Zn2 1_555 1_555
O7C Zn2 1_555 1_555
N4_2 Zn1 1_555 1_555
N6_2 Zn2 1_555 1_555
N2 C9 1_555 1_555
C5 C6 1_555 1_555
C6 C7 1_555 1_555
C14 C15 1_555 1_555
C21 C22 1_555 1_555
C26 C27 1_555 1_555
C31 C32 1_555 1_555
C36 C37 1_555 1_555

#END
