
#######################################################################
#
#                 Cambridge Crystallographic Data Centre
#                                CCDC 
#
#######################################################################
#
# If this CIF has been generated from an entry in the Cambridge 
# Structural Database, then it will include bibliographic, chemical, 
# crystal, experimental, refinement or atomic coordinate data resulting 
# from the CCDC's data processing and validation procedures.
#
#######################################################################

data_HASSUR
_symmetry_cell_setting           cubic
_symmetry_space_group_name_H-M   'I a -3'
_symmetry_Int_Tables_number      206
_space_group_name_Hall           '-I 2b 2c 3'
loop_
_symmetry_equiv_pos_site_id
_symmetry_equiv_pos_as_xyz
1 x,y,z
2 1/2-x,-y,1/2+z
3 -x,1/2+y,1/2-z
4 1/2+x,1/2-y,-z
5 z,x,y
6 1/2+z,1/2-x,-y
7 1/2-z,-x,1/2+y
8 -z,1/2+x,1/2-y
9 y,z,x
10 -y,1/2+z,1/2-x
11 1/2+y,1/2-z,-x
12 1/2-y,-z,1/2+x
13 1/2+x,1/2+y,1/2+z
14 -x,1/2-y,z
15 1/2-x,y,-z
16 x,-y,1/2-z
17 1/2+z,1/2+x,1/2+y
18 z,-x,1/2-y
19 -z,1/2-x,y
20 1/2-z,x,-y
21 1/2+y,1/2+z,1/2+x
22 1/2-y,z,-x
23 y,-z,1/2-x
24 -y,1/2-z,x
25 -x,-y,-z
26 1/2+x,y,1/2-z
27 x,1/2-y,1/2+z
28 1/2-x,1/2+y,z
29 -z,-x,-y
30 1/2-z,1/2+x,y
31 1/2+z,x,1/2-y
32 z,1/2-x,1/2+y
33 -y,-z,-x
34 y,1/2-z,1/2+x
35 1/2-y,1/2+z,x
36 1/2+y,z,1/2-x
37 1/2-x,1/2-y,1/2-z
38 x,1/2+y,-z
39 1/2+x,-y,z
40 -x,y,1/2+z
41 1/2-z,1/2-x,1/2-y
42 -z,x,1/2+y
43 z,1/2+x,-y
44 1/2+z,-x,y
45 1/2-y,1/2-z,1/2-x
46 1/2+y,-z,x
47 -y,z,1/2+x
48 y,1/2+z,-x
_cell_length_a                   33.975(3)
_cell_length_b                   33.975(3)
_cell_length_c                   33.975(3)
_cell_angle_alpha                90
_cell_angle_beta                 90
_cell_angle_gamma                90
_cell_volume                     39217.4
loop_
_atom_site_label
_atom_site_type_symbol
_atom_site_fract_x
_atom_site_fract_y
_atom_site_fract_z
In1 In 0.659807(19) 0.715259(19) 0.887051(17)
O1 O 0.72128(16) 0.69808(18) 0.90064(17)
O2 O 0.68356(19) 0.68265(19) 0.83423(14)
O3 O 0.76989(15) 0.65897(17) 0.88386(17)
O4 O 0.73217(15) 0.64235(16) 0.81653(16)
O5 O 0.6728(3) 0.7524(2) 0.94062(18)
O6 O 0.6125(2) 0.7529(2) 0.9221(2)
O7 O 0.6281(3) 0.6625(3) 0.8939(4)
O8 O 0.6521(4) 0.6667(4) 0.9496(4)
C1 C 0.7389(2) 0.6739(3) 0.8782(2)
C2 C 0.7166(2) 0.6663(3) 0.8392(3)
C3 C 0.6400(4) 0.7652(4) 0.9445(3)
C4 C 0.6334(4) 0.6471(5) 0.9251(6)
C5 C 0.6297(3) 0.7941(3) 0.9735(3)
C6 C 0.6591(3) 0.8108(3) 0.9959(3)
H1 H 0.6857 0.8049 0.9900
C7 C 0.6509(3) 0.8358(3) 1.0267(3)
H2 H 0.6719 0.8447 1.0428
C8 C 0.6129(3) 0.8484(3) 1.0349(3)
C9 C 0.5829(3) 0.8327(3) 1.0116(3)
H3 H 0.5563 0.8399 1.0166
C10 C 0.5915(3) 0.8064(3) 0.9810(3)
H4 H 0.5707 0.7967 0.9651
C11 C 0.6042(3) 0.8764(3) 1.0662(3)
C12 C 0.5719(3) 0.8706(3) 1.0910(3)
H5 H 0.5539 0.8498 1.0860
C13 C 0.6146(3) 0.6100(4) 0.9336(4)
C14 C 0.5974(4) 0.5879(4) 0.9049(4)
H6 H 0.5981 0.5976 0.8787
C15 C 0.5788(4) 0.5517(4) 0.9118(4)
H7 H 0.5687 0.5371 0.8902
C16 C 0.5747(3) 0.5371(3) 0.9496(3)
C17 C 0.5909(3) 0.5607(3) 0.9788(3)
H8 H 0.5885 0.5521 1.0053
C18 C 0.6106(3) 0.5967(3) 0.9719(4)
H9 H 0.6210 0.6115 0.9933
C19 C 0.5536(2) 0.5017(2) 0.9583(2)
C20 C 0.5636(2) 0.4789(2) 0.9901(2)
H10 H 0.5864 0.4857 1.0049
In1NA In 0.612949(17) 0.840193(19) 0.784741(19)
In1RA In 0.784741(19) 0.612949(17) 0.840193(19)
In1E In 0.387051(17) 0.840193(19) 1.284741(19)
In1K In 0.784741(19) 1.112949(17) 1.159807(19)
In1F In 0.612949(17) 0.340193(19) 1.215259(19)
In1I In 0.284741(19) 0.387051(17) 0.840193(19)
In1H In 0.715259(19) 0.887051(17) 0.659807(19)
O1NA O 0.59936(17) 0.77872(16) 0.80192(18)
O1H O 0.69808(18) 0.90064(17) 0.72128(16)
O1RA O 0.80192(18) 0.59936(17) 0.77872(16)
O2NA O 0.66577(14) 0.81644(19) 0.81735(19)
O2H O 0.68265(19) 0.83423(14) 0.68356(19)
O2RA O 0.81735(19) 0.66577(14) 0.81644(19)
O3NA O 0.61614(17) 0.73011(15) 0.84103(17)
O3H O 0.65897(17) 0.88386(17) 0.76989(15)
O4NA O 0.68347(16) 0.76783(15) 0.85765(16)
O4H O 0.64235(16) 0.81653(16) 0.73217(15)
O5E O 0.44062(18) 0.8272(3) 1.2476(2)
O5K O 0.7476(2) 1.05938(18) 1.1728(3)
O5NA O 0.55938(18) 0.8272(3) 0.7476(2)
O5RA O 0.7476(2) 0.55938(18) 0.8272(3)
O6E O 0.4221(2) 0.8875(2) 1.2471(2)
O6K O 0.7471(2) 1.0779(2) 1.1125(2)
O6NA O 0.5779(2) 0.8875(2) 0.7471(2)
O6RA O 0.7471(2) 0.5779(2) 0.8875(2)
O7F O 0.6061(4) 0.3719(3) 1.1625(3)
O7I O 0.3375(3) 0.3939(4) 0.8719(3)
O7NA O 0.6061(4) 0.8719(3) 0.8375(3)
O7RA O 0.8375(3) 0.6061(4) 0.8719(3)
O8F O 0.5504(4) 0.3479(4) 1.1667(4)
O8I O 0.3333(4) 0.4496(4) 0.8479(4)
C1NA C 0.6218(2) 0.7611(2) 0.8261(3)
C1H C 0.6739(3) 0.8782(2) 0.7389(2)
C2NA C 0.6608(3) 0.7834(2) 0.8337(3)
C2H C 0.6663(3) 0.8392(3) 0.7166(2)
C3E C 0.4445(3) 0.8600(4) 1.2348(4)
C3K C 0.7348(4) 1.0555(3) 1.1400(4)
C4F C 0.5749(6) 0.3666(4) 1.1471(5)
C4I C 0.3529(5) 0.4251(6) 0.8666(4)
C5E C 0.4735(3) 0.8703(3) 1.2059(3)
C5K C 0.7059(3) 1.0265(3) 1.1297(3)
C6E C 0.4959(3) 0.8409(3) 1.1892(3)
C6K C 0.6892(3) 1.0041(3) 1.1591(3)
H1E H 0.4900 0.8143 1.1951
H1K H 0.6951 1.0100 1.1857
C7E C 0.5267(3) 0.8491(3) 1.1642(3)
C7K C 0.6642(3) 0.9733(3) 1.1509(3)
H2E H 0.5428 0.8281 1.1553
H2K H 0.6553 0.9572 1.1719
C8E C 0.5349(3) 0.8871(3) 1.1516(3)
C8K C 0.6516(3) 0.9651(3) 1.1129(3)
C9E C 0.5116(3) 0.9171(3) 1.1673(3)
C9K C 0.6673(3) 0.9884(3) 1.0829(3)
H3E H 0.5166 0.9437 1.1601
H3K H 0.6601 0.9834 1.0563
C10E C 0.4810(3) 0.9085(3) 1.1936(3)
C10K C 0.6936(3) 1.0190(3) 1.0915(3)
H4E H 0.4651 0.9293 1.2033
H4K H 0.7033 1.0349 1.0707
C11E C 0.5662(3) 0.8958(3) 1.1236(3)
C11K C 0.6236(3) 0.9338(3) 1.1042(3)
C12E C 0.5910(3) 0.9281(3) 1.1294(3)
C12K C 0.6294(3) 0.9090(3) 1.0719(3)
H5K H 0.6502 0.9140 1.0539
H5E H 0.5860 0.9461 1.1502
C13F C 0.5664(4) 0.3854(3) 1.1100(4)
C13I C 0.3900(4) 0.4336(4) 0.8854(3)
C14F C 0.5951(4) 0.4026(4) 1.0879(4)
C14I C 0.4121(4) 0.4049(4) 0.9026(4)
H6F H 0.6213 0.4019 1.0976
H6I H 0.4024 0.3787 0.9019
C15F C 0.5882(4) 0.4212(4) 1.0517(4)
C15I C 0.4483(4) 0.4118(4) 0.9212(4)
H7F H 0.6098 0.4313 1.0371
H7I H 0.4629 0.3902 0.9313
C16F C 0.5504(3) 0.4253(3) 1.0371(3)
C16I C 0.4629(3) 0.4496(3) 0.9253(3)
C17F C 0.5212(3) 0.4091(3) 1.0607(3)
C17I C 0.4393(3) 0.4788(3) 0.9091(3)
H8F H 0.4947 0.4115 1.0521
H8I H 0.4479 0.5053 0.9115
C18F C 0.5281(4) 0.3894(3) 1.0967(3)
C18I C 0.4033(3) 0.4719(4) 0.8894(3)
H9F H 0.5067 0.3790 1.1115
H9I H 0.3885 0.4933 0.8790
C19F C 0.5417(2) 0.4464(2) 1.0017(2)
C19I C 0.4983(2) 0.4583(2) 0.9464(2)
C20F C 0.5099(2) 0.4364(2) 0.9789(2)
C20I C 0.5211(2) 0.4901(2) 0.9364(2)
H10I H 0.5143 0.5049 0.9136
H10F H 0.4951 0.4136 0.9857
loop_
_geom_bond_atom_site_label_1
_geom_bond_atom_site_label_2
_geom_bond_site_symmetry_1
_geom_bond_site_symmetry_2
In1 O1 1_555 1_555
O1 C1 1_555 1_555
O2 In1 1_555 1_555
O3 C1 1_555 1_555
O4 C2 1_555 1_555
O5 In1 1_555 1_555
O6 In1 1_555 1_555
O7 In1 1_555 1_555
O8 C4 1_555 1_555
C1 C2 1_555 1_555
C2 O2 1_555 1_555
C3 O5 1_555 1_555
C4 O7 1_555 1_555
C5 C3 1_555 1_555
C6 C5 1_555 1_555
H1 C6 1_555 1_555
C7 C6 1_555 1_555
H2 C7 1_555 1_555
C8 C7 1_555 1_555
C9 C8 1_555 1_555
H3 C9 1_555 1_555
C10 C5 1_555 1_555
H4 C10 1_555 1_555
C11 C8 1_555 1_555
C12 C11 1_555 1_555
H5 C12 1_555 1_555
C13 C4 1_555 1_555
C14 C13 1_555 1_555
H6 C14 1_555 1_555
C15 C14 1_555 1_555
H7 C15 1_555 1_555
C16 C15 1_555 1_555
C17 C16 1_555 1_555
H8 C17 1_555 1_555
C18 C13 1_555 1_555
H9 C18 1_555 1_555
C19 C16 1_555 1_555
C20 C19 1_555 1_555
H10 C20 1_555 1_555
In1NA O1NA 1_555 1_555
In1RA O3 1_555 1_555
In1E O5E 1_555 1_555
In1K O5K 1_555 1_555
In1F O7F 1_555 1_555
In1I O7I 1_555 1_555
In1H O1H 1_555 1_555
O1NA C1NA 1_555 1_555
O1H C1H 1_555 1_555
O1RA In1RA 1_555 1_555
O2NA In1NA 1_555 1_555
O2H In1H 1_555 1_555
O2RA In1RA 1_555 1_555
O3NA In1 1_555 1_555
O3H In1NA 1_555 1_555
O4NA In1 1_555 1_555
O4H In1NA 1_555 1_555
O5E C3E 1_555 1_555
O5K C3K 1_555 1_555
O5NA In1NA 1_555 1_555
O5RA In1RA 1_555 1_555
O6E In1E 1_555 1_555
O6K In1K 1_555 1_555
O6NA In1NA 1_555 1_555
O6RA In1RA 1_555 1_555
O7F C4F 1_555 1_555
O7I C4I 1_555 1_555
O7NA In1NA 1_555 1_555
O7RA In1RA 1_555 1_555
O8F C4F 1_555 1_555
O8I C4I 1_555 1_555
C1NA O3NA 1_555 1_555
C1H O3H 1_555 1_555
C2NA O2NA 1_555 1_555
C2H O2H 1_555 1_555
C3E O6E 1_555 1_555
C3K O6K 1_555 1_555
C4F C13F 1_555 1_555
C4I C13I 1_555 1_555
C5E C3E 1_555 1_555
C5K C3K 1_555 1_555
C6E C5E 1_555 1_555
C6K C5K 1_555 1_555
H1E C6E 1_555 1_555
H1K C6K 1_555 1_555
C7E C6E 1_555 1_555
C7K C6K 1_555 1_555
H2E C7E 1_555 1_555
H2K C7K 1_555 1_555
C8E C7E 1_555 1_555
C8K C7K 1_555 1_555
C9E C8E 1_555 1_555
C9K C8K 1_555 1_555
H3E C9E 1_555 1_555
H3K C9K 1_555 1_555
C10E C5E 1_555 1_555
C10K C5K 1_555 1_555
H4E C10E 1_555 1_555
H4K C10K 1_555 1_555
C11E C12 1_555 1_555
C11K C8K 1_555 1_555
C12E C11E 1_555 1_555
C12K C11 1_555 1_555
H5K C12K 1_555 1_555
H5E C12E 1_555 1_555
C13F C14F 1_555 1_555
C13I C14I 1_555 1_555
C14F H6F 1_555 1_555
C14I H6I 1_555 1_555
C15F C14F 1_555 1_555
C15I C14I 1_555 1_555
H7F C15F 1_555 1_555
H7I C15I 1_555 1_555
C16F C15F 1_555 1_555
C16I C15I 1_555 1_555
C17F C16F 1_555 1_555
C17I C16I 1_555 1_555
H8F C17F 1_555 1_555
H8I C17I 1_555 1_555
C18F C13F 1_555 1_555
C18I C13I 1_555 1_555
H9F C18F 1_555 1_555
H9I C18I 1_555 1_555
C19F C20 1_555 1_555
C19I C16I 1_555 1_555
C20F C19F 1_555 1_555
C20I C19 1_555 1_555
H10I C20I 1_555 1_555
H10F C20F 1_555 1_555
O4 In1RA 1_555 1_555
O6 C3 1_555 1_555
C9 C10 1_555 1_555
C17 C18 1_555 1_555
O4NA C2NA 1_555 1_555
O4H C2H 1_555 1_555
C1NA C2NA 1_555 1_555
C1H C2H 1_555 1_555
C8E C11E 1_555 1_555
C9E C10E 1_555 1_555
C9K C10K 1_555 1_555
C11K C12E 1_555 1_555
C11K C12K 1_555 1_555
C16F C19F 1_555 1_555
C17F C18F 1_555 1_555
C17I C18I 1_555 1_555
C19I C20F 1_555 1_555
C19I C20I 1_555 1_555

#END
