
#######################################################################
#
#                 Cambridge Crystallographic Data Centre
#                                CCDC 
#
#######################################################################
#
# If this CIF has been generated from an entry in the Cambridge 
# Structural Database, then it will include bibliographic, chemical, 
# crystal, experimental, refinement or atomic coordinate data resulting 
# from the CCDC's data processing and validation procedures.
#
#######################################################################

data_HATZOS02
_symmetry_cell_setting           tetragonal
_symmetry_space_group_name_H-M   'P 43 21 2'
_symmetry_Int_Tables_number      96
_space_group_name_Hall           'P 4nw 2abw'
loop_
_symmetry_equiv_pos_site_id
_symmetry_equiv_pos_as_xyz
1 x,y,z
2 -x,-y,1/2+z
3 1/2-y,1/2+x,3/4+z
4 1/2+y,1/2-x,1/4+z
5 1/2-x,1/2+y,3/4-z
6 1/2+x,1/2-y,1/4-z
7 y,x,-z
8 -y,-x,1/2-z
_cell_length_a                   10.2364(4)
_cell_length_b                   10.2364(4)
_cell_length_c                   28.109(2)
_cell_angle_alpha                90
_cell_angle_beta                 90
_cell_angle_gamma                90
_cell_volume                     2945.37
loop_
_atom_site_label
_atom_site_type_symbol
_atom_site_fract_x
_atom_site_fract_y
_atom_site_fract_z
Ag1 Ag -0.19678(3) -0.39385(3) -0.483600(9)
N1 N -0.0364(3) -0.1892(2) -0.27310(9)
N2 N -0.0438(3) -0.2479(3) -0.47041(8)
O1 O -0.2598(3) -0.2120(2) -0.41550(8)
C1 C -0.0459(3) -0.2079(3) -0.31984(11)
H1 H 0.0154 -0.2609 -0.3348
C2 C -0.1436(3) -0.1514(3) -0.34714(11)
C3 C -0.2339(3) -0.0710(3) -0.32570(12)
H2 H -0.3013 -0.0335 -0.3432
C4 C -0.2218(4) -0.0473(4) -0.27726(12)
H3 H -0.2797 0.0086 -0.2619
C5 C -0.1236(4) -0.1072(3) -0.25244(12)
H4 H -0.1165 -0.0910 -0.2200
C6 C -0.1552(3) -0.1848(3) -0.39851(10)
C7 C -0.0368(3) -0.1785(3) -0.42968(10)
C8 C 0.0657(4) -0.0967(3) -0.41967(12)
H5 H 0.0698 -0.0538 -0.3905
C9 C 0.1633(4) -0.0783(4) -0.45334(15)
H6 H 0.2328 -0.0219 -0.4476
C10 C 0.1540(5) -0.1455(4) -0.49510(15)
H7 H 0.2165 -0.1335 -0.5187
C11 C 0.0520(4) -0.2313(3) -0.50237(12)
H8 H 0.0496 -0.2794 -0.5304
Ag1C Ag 0.10615(3) -0.30322(3) -0.233600(9)
N1B N -0.3108(2) -0.5364(3) -0.52310(9)
C12 C -0.1139(6) -0.7287(5) -0.36512(15)
F1 F -0.1830(6) -0.8059(4) -0.39235(12)
F2 F -0.1749(4) -0.7184(3) -0.32455(10)
F3 F -0.0069(5) -0.7904(5) -0.35669(16)
S1 S -0.08716(10) -0.57262(9) -0.39331(4)
O2 O -0.0168(3) -0.6006(3) -0.43542(10)
O3 O -0.2166(4) -0.5288(4) -0.40144(14)
O4 O -0.0191(5) -0.5020(4) -0.35867(15)
loop_
_geom_bond_atom_site_label_1
_geom_bond_atom_site_label_2
_geom_bond_site_symmetry_1
_geom_bond_site_symmetry_2
Ag1 N2 1_555 1_555
N1 C1 1_555 1_555
N2 C7 1_555 1_555
O1 C6 1_555 1_555
C1 H1 1_555 1_555
C2 C1 1_555 1_555
C3 C2 1_555 1_555
H2 C3 1_555 1_555
C4 C3 1_555 1_555
H3 C4 1_555 1_555
C5 N1 1_555 1_555
H4 C5 1_555 1_555
C6 C2 1_555 1_555
C7 C6 1_555 1_555
C8 C7 1_555 1_555
H5 C8 1_555 1_555
C9 C8 1_555 1_555
H6 C9 1_555 1_555
C10 C9 1_555 1_555
H7 C10 1_555 1_555
C11 N2 1_555 1_555
H8 C11 1_555 1_555
C12 F1 1_555 1_555
F2 C12 1_555 1_555
F3 C12 1_555 1_555
S1 C12 1_555 1_555
O2 S1 1_555 1_555
O3 S1 1_555 1_555
O4 S1 1_555 1_555
Ag1C N1 1_555 1_555
N1B Ag1 1_555 1_555
C4 C5 1_555 1_555
C10 C11 1_555 1_555

#END
