
#######################################################################
#
#                 Cambridge Crystallographic Data Centre
#                                CCDC 
#
#######################################################################
#
# If this CIF has been generated from an entry in the Cambridge 
# Structural Database, then it will include bibliographic, chemical, 
# crystal, experimental, refinement or atomic coordinate data resulting 
# from the CCDC's data processing and validation procedures.
#
#######################################################################

data_HATZOS
_symmetry_cell_setting           tetragonal
_symmetry_space_group_name_H-M   'P 41 21 2'
_symmetry_Int_Tables_number      92
_space_group_name_Hall           'P 4abw 2nw'
loop_
_symmetry_equiv_pos_site_id
_symmetry_equiv_pos_as_xyz
1 x,y,z
2 -x,-y,1/2+z
3 1/2-y,1/2+x,1/4+z
4 1/2+y,1/2-x,3/4+z
5 1/2-x,1/2+y,1/4-z
6 1/2+x,1/2-y,3/4-z
7 y,x,-z
8 -y,-x,1/2-z
_cell_length_a                   10.2355(4)
_cell_length_b                   10.2355(4)
_cell_length_c                   28.105(2)
_cell_angle_alpha                90
_cell_angle_beta                 90
_cell_angle_gamma                90
_cell_volume                     2944.43
loop_
_atom_site_label
_atom_site_type_symbol
_atom_site_fract_x
_atom_site_fract_y
_atom_site_fract_z
Ag1 Ag -0.39386(3) 0.19679(3) 0.233600(10)
N1 N -0.1894(2) 0.0362(3) 0.02303(9)
N2 N -0.2481(3) 0.0439(3) 0.22032(9)
O1 O -0.2123(2) 0.2596(3) 0.16550(8)
C1 C -0.2078(3) 0.0460(3) 0.06988(11)
H1 H -0.2607 -0.0154 0.0849
C2 C -0.1515(3) 0.1436(3) 0.09707(11)
C3 C -0.0709(3) 0.2336(3) 0.07572(13)
H2 H -0.0333 0.3008 0.0933
C4 C -0.0471(4) 0.2217(4) 0.02730(12)
H3 H 0.0088 0.2796 0.0119
C5 C -0.1072(3) 0.1234(4) 0.00247(13)
H4 H -0.0909 0.1162 -0.0300
C6 C -0.1849(3) 0.1551(3) 0.14851(11)
C7 C -0.1786(3) 0.0366(3) 0.17966(10)
C8 C -0.0970(3) -0.0657(4) 0.16966(13)
H5 H -0.0541 -0.0698 0.1405
C9 C -0.0786(4) -0.1636(4) 0.20342(15)
H6 H -0.0224 -0.2332 0.1977
C10 C -0.1459(4) -0.1539(5) 0.24511(15)
H7 H -0.1339 -0.2164 0.2688
C11 C -0.2315(4) -0.0520(4) 0.25235(12)
H8 H -0.2795 -0.0496 0.2804
Ag1C Ag -0.30321(3) -0.10614(3) -0.016400(10)
N1B N -0.5362(3) 0.3106(2) 0.27303(9)
C12 C -0.7285(5) 0.1134(6) 0.11517(15)
F1 F -0.8057(4) 0.1831(6) 0.14235(12)
F2 F -0.7185(3) 0.1747(4) 0.07448(10)
F3 F -0.7902(5) 0.0067(5) 0.10679(16)
S1 S -0.57260(9) 0.08712(10) 0.14331(4)
O2 O -0.5291(4) 0.2167(4) 0.15145(14)
O3 O -0.6006(3) 0.0168(3) 0.18544(10)
O4 O -0.5017(4) 0.0194(5) 0.10865(15)
loop_
_geom_bond_atom_site_label_1
_geom_bond_atom_site_label_2
_geom_bond_site_symmetry_1
_geom_bond_site_symmetry_2
Ag1 N2 1_555 1_555
N1 C1 1_555 1_555
N2 C7 1_555 1_555
O1 C6 1_555 1_555
C1 H1 1_555 1_555
C2 C1 1_555 1_555
C3 C2 1_555 1_555
H2 C3 1_555 1_555
C4 C3 1_555 1_555
H3 C4 1_555 1_555
C5 N1 1_555 1_555
H4 C5 1_555 1_555
C6 C2 1_555 1_555
C7 C6 1_555 1_555
C8 C7 1_555 1_555
H5 C8 1_555 1_555
C9 C8 1_555 1_555
H6 C9 1_555 1_555
C10 C9 1_555 1_555
H7 C10 1_555 1_555
C11 N2 1_555 1_555
H8 C11 1_555 1_555
C12 F1 1_555 1_555
F2 C12 1_555 1_555
F3 C12 1_555 1_555
S1 C12 1_555 1_555
O2 S1 1_555 1_555
O3 S1 1_555 1_555
O4 S1 1_555 1_555
Ag1C N1 1_555 1_555
N1B Ag1 1_555 1_555
C4 C5 1_555 1_555
C10 C11 1_555 1_555

#END
