
#######################################################################
#
#                 Cambridge Crystallographic Data Centre
#                                CCDC 
#
#######################################################################
#
# If this CIF has been generated from an entry in the Cambridge 
# Structural Database, then it will include bibliographic, chemical, 
# crystal, experimental, refinement or atomic coordinate data resulting 
# from the CCDC's data processing and validation procedures.
#
#######################################################################

data_HAWREE
_symmetry_cell_setting           triclinic
_symmetry_space_group_name_H-M   'P -1'
_symmetry_Int_Tables_number      2
_space_group_name_Hall           '-P 1'
loop_
_symmetry_equiv_pos_site_id
_symmetry_equiv_pos_as_xyz
1 x,y,z
2 -x,-y,-z
_cell_length_a                   11.1053(10)
_cell_length_b                   12.5767(12)
_cell_length_c                   20.0751(19)
_cell_angle_alpha                82.8400(10)
_cell_angle_beta                 77.765(2)
_cell_angle_gamma                79.2580(10)
_cell_volume                     2681.54
loop_
_atom_site_label
_atom_site_type_symbol
_atom_site_fract_x
_atom_site_fract_y
_atom_site_fract_z
Mn1 Mn 0.52324(6) 0.23138(5) 0.24474(3)
Mn2 Mn 0.62858(6) 0.48945(5) 0.22780(3)
Mn3 Mn 0.37152(6) 0.71754(5) 0.26540(3)
Mn4 Mn 0.67370(6) -0.25547(5) 0.22973(4)
Mn5 Mn 0.41963(6) -0.02530(5) 0.25766(3)
C1 C 1.1631(4) -0.0932(4) 0.2529(2)
C2 C 1.0304(4) -0.0435(4) 0.2481(3)
C3 C 0.9946(5) 0.0712(4) 0.2492(3)
H1 H 1.0563 0.1136 0.2505
C4 C 0.8754(5) 0.1224(4) 0.2483(3)
H2 H 0.8526 0.1989 0.2490
C5 C 0.7872(4) 0.0553(4) 0.2462(3)
C6 C 0.8226(4) -0.0572(4) 0.2435(2)
C7 C 0.9453(4) -0.1091(4) 0.2444(3)
H3 H 0.9689 -0.1854 0.2425
C8 C -0.1150(4) 0.5558(4) 0.2339(2)
C9 C 0.0184(4) 0.5074(4) 0.2372(3)
C10 C 0.0554(5) 0.3932(4) 0.2319(3)
H4 H -0.0049 0.3514 0.2274
C11 C 0.1753(4) 0.3423(4) 0.2331(3)
H5 H 0.1993 0.2661 0.2304
C12 C 0.2616(4) 0.4089(4) 0.2387(2)
C13 C 0.2245(4) 0.5209(4) 0.2433(2)
C14 C 0.1010(4) 0.5717(4) 0.2435(3)
H6 H 0.0758 0.6473 0.2478
C15 C 0.6241(5) 0.1869(4) 0.6075(2)
C16 C 0.6232(5) 0.2025(4) 0.5318(2)
C17 C 0.5758(6) 0.1281(4) 0.5007(3)
H7 H 0.5505 0.0656 0.5277
C18 C 0.5650(5) 0.1431(4) 0.4327(3)
H8 H 0.5350 0.0918 0.4122
C19 C 0.6006(5) 0.2382(4) 0.3956(2)
C20 C 0.6502(6) 0.3107(4) 0.4254(3)
C21 C 0.6649(6) 0.2923(4) 0.4937(3)
H9 H 0.7022 0.3399 0.5132
C22 C 0.3464(5) 0.3403(4) -0.1001(2)
C23 C 0.3722(5) 0.3048(4) -0.0296(2)
C24 C 0.4193(5) 0.3746(4) 0.0051(3)
H10 H 0.4301 0.4450 -0.0161
C25 C 0.4499(5) 0.3444(4) 0.0680(3)
H11 H 0.4817 0.3919 0.0906
C26 C 0.4319(4) 0.2392(4) 0.0977(2)
C27 C 0.3840(5) 0.1699(4) 0.0642(2)
C28 C 0.3535(5) 0.2020(4) -0.0005(3)
H12 H 0.3214 0.1550 -0.0234
C29 C 0.7356(5) 0.3186(5) 0.1269(3)
H13 H 0.7138 0.3804 0.0936
H14 H 0.8160 0.3276 0.1376
C30 C 0.7596(5) 0.2357(4) 0.0946(2)
H15 H 0.8254 0.2451 0.0543
H16 H 0.6841 0.2251 0.0800
H17 H 0.7880 0.1720 0.1242
C31 C 0.3015(5) 0.1434(4) 0.3576(3)
H18 H 0.2229 0.1428 0.3420
H19 H 0.3134 0.0778 0.3899
C32 C 0.2809(5) 0.2229(4) 0.3925(3)
H20 H 0.2087 0.2165 0.4296
H21 H 0.2636 0.2902 0.3633
H22 H 0.3544 0.2244 0.4119
N1 N 0.6623(3) 0.0792(3) 0.2468(2)
N2 N 0.6241(3) -0.0140(3) 0.2447(2)
N3 N 0.7167(3) -0.0985(3) 0.2426(2)
N4 N 0.3293(3) 0.5621(3) 0.2466(2)
N5 N 0.4230(3) 0.4775(3) 0.2443(2)
N6 N 0.3852(3) 0.3851(3) 0.2400(2)
N7 N 0.6723(5) 0.3956(4) 0.3783(2)
N8 N 0.6360(4) 0.3764(3) 0.3233(2)
N9 N 0.5928(4) 0.2822(3) 0.33090(19)
N10 N 0.4533(4) 0.1846(3) 0.1582(2)
N11 N 0.4188(4) 0.0869(3) 0.1603(2)
N12 N 0.3779(4) 0.0738(3) 0.1051(2)
O1 O 1.2285(3) -0.0324(3) 0.26759(19)
O2 O 1.1988(3) -0.1919(3) 0.24261(18)
O3 O -0.1527(3) 0.6526(3) 0.24906(19)
O4 O -0.1799(3) 0.4967(3) 0.21619(18)
O5 O 0.6738(3) 0.2522(3) 0.63117(17)
O6 O 0.5727(3) 0.1109(3) 0.64169(17)
O7 O 0.3885(4) 0.4231(3) -0.13050(17)
O8 O 0.2893(3) 0.2829(3) -0.12552(17)
O9 O 0.4860(3) 0.8264(2) 0.20931(16)
H45 H 0.4827 0.8357 0.1595
O10 O 0.5581(3) 0.6332(2) 0.28255(16)
H46 H 0.5624 0.6193 0.3322
O11 O 0.6559(3) 0.3342(3) 0.18091(16)
H47 H 0.7205 0.3018 0.2088
O12 O 0.3881(3) 0.1284(2) 0.30598(16)
H48 H 0.4197 0.0623 0.3065
Mn2_2 Mn -0.37142(6) 0.48945(5) 0.22780(3)
Mn2A Mn 0.37142(6) 0.51055(5) -0.22780(3)
Mn3_2 Mn 1.37152(6) -0.28246(5) 0.26540(3)
Mn3A Mn 0.62848(6) 0.28246(5) 0.73460(3)
Mn4_2 Mn -0.32630(6) 0.74453(5) 0.22973(4)
Mn4A Mn 0.32630(6) 0.25547(5) -0.22973(4)
Mn4_3 Mn 0.67370(6) 0.74453(5) 0.22973(4)
Mn5_2 Mn 1.41963(6) -0.02530(5) 0.25766(3)
Mn5A Mn 0.58037(6) 0.02530(5) 0.74234(3)
Mn5_3 Mn 0.41963(6) 0.97470(5) 0.25766(3)
O1_2 O 0.2285(3) -0.0324(3) 0.26759(19)
O2_2 O 0.1988(3) 0.8081(3) 0.24261(18)
O3_2 O 0.8473(3) -0.3474(3) 0.24906(19)
O4_2 O 0.8201(3) 0.4967(3) 0.21619(18)
O5A O 0.3262(3) 0.7478(3) 0.36883(17)
O6A O 0.4273(3) -0.1109(3) 0.35831(17)
O7A O 0.6115(4) 0.5769(3) 0.13050(17)
O8A O 0.7107(3) -0.2829(3) 0.12552(17)
O9_2 O 0.4860(3) -0.1736(2) 0.20931(16)
H45_2 H 0.4827 -0.1643 0.1595
O10_2 O 0.5581(3) -0.3668(2) 0.28255(16)
H46_2 H 0.5624 -0.3807 0.3322
C33 C 0.9179(18) 0.9788(13) 0.4265(8)
H23 H 1.0085 0.9739 0.4212
H24 H 0.8766 1.0051 0.4710
H25 H 0.8883 1.0294 0.3899
C34 C 0.7661(14) 0.8587(15) 0.4300(7)
H26 H 0.7652 0.7818 0.4265
H27 H 0.7283 0.9031 0.3937
H28 H 0.7184 0.8796 0.4747
C41 C 0.9815(13) 0.7831(13) 0.4150(7)
H44 H 1.0660 0.7935 0.4082
N13 N 0.8896(13) 0.8753(9) 0.4229(5)
O13 O 0.9632(14) 0.6920(9) 0.4159(8)
C35 C 0.0977(15) 0.4375(12) 0.4287(6)
H29 H 0.0293 0.4020 0.4556
H30 H 0.1154 0.4177 0.3815
H31 H 0.0734 0.5165 0.4290
C36 C 0.2140(8) 0.4008(6) 0.4598(4)
H32 H 0.1943 0.4175 0.5082
H33 H 0.2387 0.3212 0.4589
O14 O 0.3177(14) 0.4533(11) 0.4235(7)
H49 H 0.3798 0.4314 0.4422
C37 C 0.817(4) 0.267(3) -0.0601(12)
H34 H 0.7540 0.3329 -0.0566
H35 H 0.8737 0.2710 -0.1047
H36 H 0.8649 0.2606 -0.0236
C38 C 0.750(4) 0.164(4) -0.053(2)
H37 H 0.6939 0.1710 -0.0076
H38 H 0.6946 0.1857 -0.0864
O15 O 0.7779(13) 0.0452(12) -0.0551(7)
H50 H 0.8525 0.0226 -0.0515
C39 C 0.082(4) 0.553(3) 0.058(2)
H39 H 0.0363 0.6168 0.0352
H40 H 0.1721 0.5535 0.0435
H41 H 0.0581 0.5558 0.1076
C40 C 0.052(3) 0.455(2) 0.0389(13)
H42 H 0.1156 0.4524 -0.0040
H43 H -0.0250 0.4923 0.0233
O16 O 0.025(2) 0.345(2) 0.0358(13)
H51 H 0.0483 0.3279 -0.0046
O17 O 0.8011(12) 0.5504(8) 0.4086(4)
H52 H 0.7549 0.6118 0.4039
H53 H 0.7711 0.4981 0.4334
O18 O 0.7217(10) 0.0301(7) 0.0743(6)
H54 H 0.7399 0.0522 0.1087
H55 H 0.6927 -0.0288 0.0785
O19 O 0.965(2) -0.101(3) -0.0558(9)
H56 H 1.0437 -0.1133 -0.0707
H57 H 0.9195 -0.1434 -0.0641
O20 O 0.052(3) 0.195(2) -0.0828(9)
H58 H 0.0055 0.2071 -0.0442
H59 H 0.0310 0.1568 -0.1093
O21 O 0.6625(16) 0.7548(13) 0.3585(8)
H60 H 0.6090 0.8094 0.3717
H61 H 0.6409 0.6927 0.3620
loop_
_geom_bond_atom_site_label_1
_geom_bond_atom_site_label_2
_geom_bond_site_symmetry_1
_geom_bond_site_symmetry_2
Mn1 N1 1_555 1_555
Mn2 N5 1_555 1_555
Mn3 N4 1_555 1_555
Mn4 N3 1_555 1_555
Mn5 N2 1_555 1_555
C1 C2 1_555 1_555
C2 C3 1_555 1_555
C3 H1 1_555 1_555
C4 C3 1_555 1_555
H2 C4 1_555 1_555
C5 C4 1_555 1_555
C6 C5 1_555 1_555
C7 C2 1_555 1_555
H3 C7 1_555 1_555
C8 C9 1_555 1_555
C9 C10 1_555 1_555
C10 H4 1_555 1_555
C11 C10 1_555 1_555
H5 C11 1_555 1_555
C12 C11 1_555 1_555
C13 C12 1_555 1_555
C14 C9 1_555 1_555
H6 C14 1_555 1_555
C15 C16 1_555 1_555
C16 C17 1_555 1_555
C17 H7 1_555 1_555
C18 C17 1_555 1_555
H8 C18 1_555 1_555
C19 C18 1_555 1_555
C20 C19 1_555 1_555
C21 C16 1_555 1_555
H9 C21 1_555 1_555
C22 C23 1_555 1_555
C23 C24 1_555 1_555
C24 H10 1_555 1_555
C25 C24 1_555 1_555
H11 C25 1_555 1_555
C26 C25 1_555 1_555
C27 C26 1_555 1_555
C28 C23 1_555 1_555
H12 C28 1_555 1_555
C29 H13 1_555 1_555
H14 C29 1_555 1_555
C30 C29 1_555 1_555
H15 C30 1_555 1_555
H16 C30 1_555 1_555
H17 C30 1_555 1_555
C31 H18 1_555 1_555
H19 C31 1_555 1_555
C32 C31 1_555 1_555
H20 C32 1_555 1_555
H21 C32 1_555 1_555
H22 C32 1_555 1_555
C33 H23 1_555 1_555
H24 C33 1_555 1_555
H25 C33 1_555 1_555
C34 H26 1_555 1_555
H27 C34 1_555 1_555
H28 C34 1_555 1_555
C35 H29 1_555 1_555
H30 C35 1_555 1_555
H31 C35 1_555 1_555
C36 C35 1_555 1_555
H32 C36 1_555 1_555
H33 C36 1_555 1_555
C37 H34 1_555 1_555
H35 C37 1_555 1_555
H36 C37 1_555 1_555
C38 C37 1_555 1_555
H37 C38 1_555 1_555
H38 C38 1_555 1_555
C39 H39 1_555 1_555
H40 C39 1_555 1_555
H41 C39 1_555 1_555
C40 C39 1_555 1_555
H42 C40 1_555 1_555
H43 C40 1_555 1_555
C41 H44 1_555 1_555
N1 C5 1_555 1_555
N2 N1 1_555 1_555
N3 C6 1_555 1_555
N4 C13 1_555 1_555
N5 N4 1_555 1_555
N6 Mn1 1_555 1_555
N7 C20 1_555 1_555
N8 Mn2 1_555 1_555
N9 Mn1 1_555 1_555
N10 Mn1 1_555 1_555
N11 Mn5 1_555 1_555
N12 C27 1_555 1_555
N13 C33 1_555 1_555
O1 C1 1_555 1_555
O2 C1 1_555 1_555
O3 C8 1_555 1_555
O4 C8 1_555 1_555
O5 C15 1_555 1_555
O6 C15 1_555 1_555
O7 C22 1_555 1_555
O8 C22 1_555 1_555
O9 Mn3 1_555 1_555
H45 O9 1_555 1_555
O10 Mn2 1_555 1_555
H46 O10 1_555 1_555
O11 Mn1 1_555 1_555
H47 O11 1_555 1_555
O12 Mn1 1_555 1_555
H48 O12 1_555 1_555
O13 C41 1_555 1_555
O14 C36 1_555 1_555
H49 O14 1_555 1_555
O15 C38 1_555 1_555
H50 O15 1_555 1_555
O16 C40 1_555 1_555
H51 O16 1_555 1_555
O17 H52 1_555 1_555
H53 O17 1_555 1_555
O18 H54 1_555 1_555
H55 O18 1_555 1_555
O19 H56 1_555 1_555
H57 O19 1_555 1_555
O20 H58 1_555 1_555
H59 O20 1_555 1_555
O21 H60 1_555 1_555
H61 O21 1_555 1_555
Mn2_2 O4 1_555 1_555
Mn2A O7 1_555 1_555
Mn3_2 O2 1_555 1_555
Mn3A O5 1_555 1_555
Mn4_2 O3 1_555 1_555
Mn4A O8 1_555 1_555
Mn4_3 O9 1_555 1_555
Mn5_2 O1 1_555 1_555
Mn5A O6 1_555 1_555
Mn5_3 O9 1_555 1_555
O1_2 Mn5 1_555 1_555
O2_2 Mn3 1_555 1_555
O3_2 Mn4 1_555 1_555
O4_2 Mn2 1_555 1_555
O5A Mn3 1_555 1_555
O6A Mn5 1_555 1_555
O7A Mn2 1_555 1_555
O8A Mn4 1_555 1_555
O9_2 Mn4 1_555 1_555
H45_2 O9_2 1_555 1_555
O10_2 Mn4 1_555 1_555
H46_2 O10_2 1_555 1_555
Mn2 O11 1_555 1_555
Mn3 O10 1_555 1_555
Mn5 O12 1_555 1_555
Mn5 O9_2 1_555 1_555
C6 C7 1_555 1_555
C12 N6 1_555 1_555
C13 C14 1_555 1_555
C19 N9 1_555 1_555
C20 C21 1_555 1_555
C26 N10 1_555 1_555
C27 C28 1_555 1_555
C29 O11 1_555 1_555
C31 O12 1_555 1_555
C34 N13 1_555 1_555
C41 N13 1_555 1_555
N2 N3 1_555 1_555
N5 N6 1_555 1_555
N7 N8 1_555 1_555
N8 N9 1_555 1_555
N10 N11 1_555 1_555
N11 N12 1_555 1_555
O10 Mn4_3 1_555 1_555

#END
