
#######################################################################
#
#                 Cambridge Crystallographic Data Centre
#                                CCDC 
#
#######################################################################
#
# If this CIF has been generated from an entry in the Cambridge 
# Structural Database, then it will include bibliographic, chemical, 
# crystal, experimental, refinement or atomic coordinate data resulting 
# from the CCDC's data processing and validation procedures.
#
#######################################################################

data_HAWVOS
_symmetry_cell_setting           monoclinic
_symmetry_space_group_name_H-M   'P 21/c'
_symmetry_Int_Tables_number      14
_space_group_name_Hall           '-P 2ybc'
loop_
_symmetry_equiv_pos_site_id
_symmetry_equiv_pos_as_xyz
1 x,y,z
2 -x,1/2+y,1/2-z
3 -x,-y,-z
4 x,1/2-y,1/2+z
_cell_length_a                   11.6140(5)
_cell_length_b                   16.0888(7)
_cell_length_c                   12.0204(6)
_cell_angle_alpha                90
_cell_angle_beta                 112.699(2)
_cell_angle_gamma                90
_cell_volume                     2072.11
loop_
_atom_site_label
_atom_site_type_symbol
_atom_site_fract_x
_atom_site_fract_y
_atom_site_fract_z
Er1 Er -0.80555(3) 0.027889(17) -0.42061(2)
S1 S -0.94703(18) 0.21983(11) -0.78539(16)
S2 S -0.50992(19) 0.28376(12) -0.24976(16)
O1 O -0.8724(5) 0.0764(3) -0.6174(4)
O2 O -1.0665(5) 0.0300(3) -0.6580(4)
O3 O -0.9412(5) 0.3651(3) -0.9307(4)
O4 O -1.1403(5) 0.4041(3) -0.9763(4)
O5 O -0.7249(5) 0.1036(3) -0.2212(4)
O6 O -0.6658(5) 0.1405(3) -0.3677(4)
O7 O -0.3498(5) 0.4346(3) -0.2061(4)
O8 O -0.3730(4) 0.4775(3) -0.0411(4)
C1 C -1.0427(7) 0.1540(4) -0.7498(6)
C2 C -1.1652(7) 0.1777(4) -0.8007(6)
H2 H -1.2306 0.1488 -0.7921
C3 C -1.1794(7) 0.2512(4) -0.8675(6)
H3 H -1.2560 0.2771 -0.9067
C4 C -1.0709(7) 0.2808(4) -0.8693(6)
C5 C -0.9891(7) 0.0808(4) -0.6699(6)
C6 C -1.0493(8) 0.3561(4) -0.9305(6)
C7 C -0.6067(7) 0.2285(4) -0.1989(6)
C8 C -0.6161(7) 0.2653(4) -0.0999(6)
H4 H -0.6638 0.2439 -0.0598
C9 C -0.5456(7) 0.3390(4) -0.0653(6)
H5 H -0.5433 0.3720 -0.0009
C10 C -0.4815(7) 0.3568(4) -0.1358(6)
C11 C -0.6692(7) 0.1521(5) -0.2652(6)
C12 C -0.3966(6) 0.4267(4) -0.1277(6)
Er1B Er -1.19445(3) -0.027889(17) -0.57939(2)
Er1A Er -1.19445(3) 0.527889(17) -1.07939(2)
Er1A_2 Er -0.19445(3) 0.527889(17) -0.07939(2)
Er1C Er -0.80555(3) 0.472111(17) -0.92061(2)
O2B O -0.9335(5) -0.0300(3) -0.3420(4)
O3C O -0.9412(5) 0.1349(3) -0.4307(4)
O4A O -0.8597(5) -0.0959(3) -0.5237(4)
O7A O -0.6502(5) -0.0654(3) -0.2939(4)
O8A O -0.6270(4) -0.0225(3) -0.4589(4)
O9 O -0.1229(8) -0.0534(5) 0.0871(6)
H1 H -0.1211 -0.0780 0.1475
C13 C -0.2141(10) -0.0500(6) -0.1325(8)
H6 H -0.1317 -0.0483 -0.1351
H7 H -0.2672 -0.0823 -0.2013
C14 C -0.2044(12) -0.0958(7) -0.0177(9)
H8 H -0.2866 -0.1001 -0.0151
H9 H -0.1734 -0.1516 -0.0188
C15 C -0.3116(10) 0.0583(6) -0.2761(7)
H10 H -0.3448 0.1137 -0.2883
H11 H -0.3762 0.0198 -0.3203
H12 H -0.2446 0.0548 -0.3039
C16 C -0.1639(9) 0.0976(7) -0.0813(8)
H13 H -0.1979 0.1527 -0.0901
H14 H -0.1005 0.0957 -0.1141
H15 H -0.1281 0.0831 0.0026
C17 C -0.3684(10) 0.0475(7) -0.1038(10)
H16 H -0.3961 0.1042 -0.1137
H17 H -0.3393 0.0326 -0.0201
H18 H -0.4364 0.0119 -0.1498
N1 N -0.2645(7) 0.0379(5) -0.1468(6)
loop_
_geom_bond_atom_site_label_1
_geom_bond_atom_site_label_2
_geom_bond_site_symmetry_1
_geom_bond_site_symmetry_2
Er1 O1 1_555 1_555
S1 C1 1_555 1_555
S2 C7 1_555 1_555
O1 C5 1_555 1_555
O2 C5 1_555 1_555
O3 C6 1_555 1_555
O4 C6 1_555 1_555
O5 Er1 1_555 1_555
O6 Er1 1_555 1_555
O7 C12 1_555 1_555
O8 C12 1_555 1_555
O9 H1 1_555 1_555
C1 C2 1_555 1_555
C2 H2 1_555 1_555
C3 C2 1_555 1_555
H3 C3 1_555 1_555
C4 S1 1_555 1_555
C5 C1 1_555 1_555
C6 C4 1_555 1_555
C7 C8 1_555 1_555
C8 H4 1_555 1_555
C9 C8 1_555 1_555
H5 C9 1_555 1_555
C10 S2 1_555 1_555
C11 O5 1_555 1_555
C12 C10 1_555 1_555
C13 H6 1_555 1_555
H7 C13 1_555 1_555
C14 O9 1_555 1_555
H8 C14 1_555 1_555
H9 C14 1_555 1_555
C15 H10 1_555 1_555
H11 C15 1_555 1_555
H12 C15 1_555 1_555
C16 H13 1_555 1_555
H14 C16 1_555 1_555
H15 C16 1_555 1_555
C17 H16 1_555 1_555
H17 C17 1_555 1_555
H18 C17 1_555 1_555
N1 C13 1_555 1_555
Er1B O2 1_555 1_555
Er1A O4 1_555 1_555
Er1A_2 O7 1_555 1_555
Er1C O3 1_555 1_555
O2B Er1 1_555 1_555
O3C Er1 1_555 1_555
O4A Er1 1_555 1_555
O7A Er1 1_555 1_555
O8A Er1 1_555 1_555
O6 C11 1_555 1_555
O8 Er1A_2 1_555 1_555
C3 C4 1_555 1_555
C7 C11 1_555 1_555
C9 C10 1_555 1_555
C13 C14 1_555 1_555
C15 N1 1_555 1_555
C16 N1 1_555 1_555
C17 N1 1_555 1_555

#END
