
#######################################################################
#
#                 Cambridge Crystallographic Data Centre
#                                CCDC 
#
#######################################################################
#
# If this CIF has been generated from an entry in the Cambridge 
# Structural Database, then it will include bibliographic, chemical, 
# crystal, experimental, refinement or atomic coordinate data resulting 
# from the CCDC's data processing and validation procedures.
#
#######################################################################

data_HAWVEI
_symmetry_cell_setting           monoclinic
_symmetry_space_group_name_H-M   'P 21/c'
_symmetry_Int_Tables_number      14
_space_group_name_Hall           '-P 2ybc'
loop_
_symmetry_equiv_pos_site_id
_symmetry_equiv_pos_as_xyz
1 x,y,z
2 -x,1/2+y,1/2-z
3 -x,-y,-z
4 x,1/2-y,1/2+z
_cell_length_a                   11.6005(3)
_cell_length_b                   16.4488(5)
_cell_length_c                   12.0828(4)
_cell_angle_alpha                90
_cell_angle_beta                 112.295(2)
_cell_angle_gamma                90
_cell_volume                     2133.21
loop_
_atom_site_label
_atom_site_type_symbol
_atom_site_fract_x
_atom_site_fract_y
_atom_site_fract_z
Nd1 Nd -0.80624(4) 0.02640(2) -0.42306(4)
S1 S -0.9455(2) 0.21759(13) -0.7899(2)
S2 S -0.5101(2) 0.28146(14) -0.2464(2)
O1 O -0.8627(6) 0.0794(3) -0.6259(5)
O2 O -1.0498(6) 0.0319(3) -0.6501(5)
O3 O -0.9452(6) 0.3612(3) -0.9320(5)
O4 O -1.1449(5) 0.3975(3) -0.9757(5)
O5 O -0.7248(5) 0.1042(3) -0.2187(5)
O6 O -0.6542(6) 0.1384(3) -0.3585(6)
O7 O -0.3554(5) 0.4320(3) -0.2092(6)
O8 O -0.3804(5) 0.4733(3) -0.0440(5)
C1 C -1.0387(8) 0.1524(5) -0.7504(7)
C2 C -1.1596(9) 0.1761(5) -0.7954(8)
H2 H -1.2227 0.1486 -0.7813
C3 C -1.1793(8) 0.2465(5) -0.8653(8)
H3 H -1.2570 0.2705 -0.9038
C4 C -1.0711(7) 0.2760(5) -0.8706(7)
C5 C -0.9791(9) 0.0833(5) -0.6703(8)
C6 C -1.0519(9) 0.3509(5) -0.9300(8)
C7 C -0.6048(7) 0.2257(5) -0.1948(8)
C8 C -0.6163(8) 0.2631(5) -0.0968(8)
H4 H -0.6649 0.2428 -0.0571
C9 C -0.5461(8) 0.3355(5) -0.0638(8)
H5 H -0.5423 0.3676 0.0010
C10 C -0.4843(7) 0.3535(5) -0.1370(7)
C11 C -0.6650(8) 0.1510(5) -0.2604(9)
C12 C -0.4011(7) 0.4239(5) -0.1301(10)
Nd1B Nd -1.19376(4) -0.02640(2) -0.57694(4)
Nd1C Nd -0.80624(4) 0.47360(2) -0.92306(4)
Nd1A Nd -1.19376(4) 0.52640(2) -1.07694(4)
Nd1A_2 Nd -0.19376(4) 0.52640(2) -0.07694(4)
O2B O -0.9502(6) -0.0319(3) -0.3499(5)
O3C O -0.9452(6) 0.1388(3) -0.4320(5)
O4A O -0.8551(5) -0.1025(3) -0.5243(5)
O7A O -0.6446(5) -0.0680(3) -0.2908(6)
O8A O -0.6196(5) -0.0267(3) -0.4560(5)
O9 O -0.1311(9) -0.0550(6) 0.0828(9)
H1 H -0.1322 -0.0812 0.1401
C13 C -0.2182(12) -0.0455(7) -0.1370(11)
H6 H -0.1346 -0.0446 -0.1369
H7 H -0.2705 -0.0753 -0.2075
C14 C -0.2151(14) -0.0918(9) -0.0271(13)
H8 H -0.2984 -0.0934 -0.0263
H9 H -0.1890 -0.1473 -0.0315
C15 C -0.3122(12) 0.0618(7) -0.2746(10)
H10 H -0.3442 0.1163 -0.2844
H11 H -0.3776 0.0250 -0.3190
H12 H -0.2459 0.0585 -0.3036
C16 C -0.1639(11) 0.0951(8) -0.0799(12)
H13 H -0.1955 0.1496 -0.0874
H14 H -0.0990 0.0924 -0.1108
H15 H -0.1311 0.0796 0.0029
C17 C -0.3685(11) 0.0489(8) -0.1006(13)
H16 H -0.3967 0.1042 -0.1098
H17 H -0.3379 0.0342 -0.0175
H18 H -0.4365 0.0138 -0.1450
N1 N -0.2646(8) 0.0398(5) -0.1474(8)
loop_
_geom_bond_atom_site_label_1
_geom_bond_atom_site_label_2
_geom_bond_site_symmetry_1
_geom_bond_site_symmetry_2
Nd1 O1 1_555 1_555
S1 C1 1_555 1_555
S2 C7 1_555 1_555
O1 C5 1_555 1_555
O2 C5 1_555 1_555
O3 C6 1_555 1_555
O4 C6 1_555 1_555
O5 Nd1 1_555 1_555
O6 Nd1 1_555 1_555
O7 C12 1_555 1_555
O8 C12 1_555 1_555
O9 H1 1_555 1_555
C1 C2 1_555 1_555
C2 H2 1_555 1_555
C3 C2 1_555 1_555
H3 C3 1_555 1_555
C4 S1 1_555 1_555
C5 C1 1_555 1_555
C6 C4 1_555 1_555
C7 C8 1_555 1_555
C8 H4 1_555 1_555
C9 C8 1_555 1_555
H5 C9 1_555 1_555
C10 S2 1_555 1_555
C11 O5 1_555 1_555
C12 C10 1_555 1_555
C13 H6 1_555 1_555
H7 C13 1_555 1_555
C14 O9 1_555 1_555
H8 C14 1_555 1_555
H9 C14 1_555 1_555
C15 H10 1_555 1_555
H11 C15 1_555 1_555
H12 C15 1_555 1_555
C16 H13 1_555 1_555
H14 C16 1_555 1_555
H15 C16 1_555 1_555
C17 H16 1_555 1_555
H17 C17 1_555 1_555
H18 C17 1_555 1_555
N1 C13 1_555 1_555
Nd1B O2 1_555 1_555
Nd1C O3 1_555 1_555
Nd1A O4 1_555 1_555
Nd1A_2 O7 1_555 1_555
O2B Nd1 1_555 1_555
O3C Nd1 1_555 1_555
O4A Nd1 1_555 1_555
O7A Nd1 1_555 1_555
O8A Nd1 1_555 1_555
O6 C11 1_555 1_555
O8 Nd1A_2 1_555 1_555
C3 C4 1_555 1_555
C7 C11 1_555 1_555
C9 C10 1_555 1_555
C13 C14 1_555 1_555
C15 N1 1_555 1_555
C16 N1 1_555 1_555
C17 N1 1_555 1_555

#END
