
#######################################################################
#
#                 Cambridge Crystallographic Data Centre
#                                CCDC 
#
#######################################################################
#
# If this CIF has been generated from an entry in the Cambridge 
# Structural Database, then it will include bibliographic, chemical, 
# crystal, experimental, refinement or atomic coordinate data resulting 
# from the CCDC's data processing and validation procedures.
#
#######################################################################

data_HAWWAF
_symmetry_cell_setting           monoclinic
_symmetry_space_group_name_H-M   'P 21/c'
_symmetry_Int_Tables_number      14
_space_group_name_Hall           '-P 2ybc'
loop_
_symmetry_equiv_pos_site_id
_symmetry_equiv_pos_as_xyz
1 x,y,z
2 -x,1/2+y,1/2-z
3 -x,-y,-z
4 x,1/2-y,1/2+z
_cell_length_a                   11.5408(17)
_cell_length_b                   16.159(2)
_cell_length_c                   12.0019(16)
_cell_angle_alpha                90
_cell_angle_beta                 112.733(6)
_cell_angle_gamma                90
_cell_volume                     2064.33
loop_
_atom_site_label
_atom_site_type_symbol
_atom_site_fract_x
_atom_site_fract_y
_atom_site_fract_z
Dy1 Dy 0.194491(9) 0.027813(7) 0.078775(10)
S1 S 0.05294(6) 0.21891(4) -0.28757(6)
S2 S 0.48925(6) 0.28359(4) 0.25072(6)
O1 O 0.12931(16) 0.07623(12) -0.12042(16)
O2 O -0.06309(19) 0.02949(11) -0.15689(19)
O3 O 0.05675(15) 0.36373(11) -0.43212(16)
O4 O -0.14275(16) 0.40206(11) -0.47671(17)
O5 O 0.27470(17) 0.10433(12) 0.27988(17)
O6 O 0.33740(17) 0.13971(13) 0.13568(17)
O7 O 0.64768(16) 0.43479(12) 0.29265(16)
O8 O 0.62348(17) 0.47735(11) 0.45693(18)
C1 C -0.0433(2) 0.15240(16) -0.2518(2)
C2 C -0.1662(2) 0.17670(17) -0.3013(2)
H2 H -0.2315 0.1483 -0.2911
C3 C -0.1822(2) 0.24951(17) -0.3692(3)
H3 H -0.2597 0.2749 -0.4086
C4 C -0.0724(2) 0.27939(16) -0.3718(2)
C5 C 0.0116(2) 0.08146(16) -0.1712(2)
C6 C -0.0509(2) 0.35410(16) -0.4314(2)
C7 C 0.3929(2) 0.22804(17) 0.3034(2)
C8 C 0.3829(2) 0.26540(19) 0.4008(2)
H4 H 0.3348 0.2443 0.4412
C9 C 0.4521(2) 0.33871(17) 0.4341(2)
H5 H 0.4544 0.3719 0.4982
C10 C 0.5162(2) 0.35627(16) 0.3621(2)
C11 C 0.3312(2) 0.15247(17) 0.2373(2)
C12 C 0.6001(2) 0.42727(17) 0.3709(2)
Dy1B Dy -0.194491(9) -0.027813(7) -0.078775(10)
Dy1A Dy -0.194491(9) 0.527813(7) -0.578775(10)
Dy1A_2 Dy 0.805509(9) 0.527813(7) 0.421225(10)
Dy1C Dy 0.194491(9) 0.472187(7) -0.421225(10)
O2B O 0.06309(19) -0.02949(11) 0.15689(19)
O3C O 0.05675(15) 0.13627(11) 0.06788(16)
O4A O 0.14275(16) -0.09794(11) -0.02329(17)
O7A O 0.35232(16) -0.06521(12) 0.20735(16)
O8A O 0.37652(17) -0.02265(11) 0.04307(18)
O9 O 0.8752(3) -0.0520(2) 0.5863(2)
H1 H 0.8772 -0.0765 0.6469
C13 C 0.7853(4) -0.0481(2) 0.3693(4)
H6 H 0.8686 -0.0468 0.3676
H7 H 0.7321 -0.0800 0.2998
C14 C 0.7935(4) -0.0939(3) 0.4821(3)
H8 H 0.7106 -0.0979 0.4842
H9 H 0.8244 -0.1496 0.4807
C15 C 0.6887(4) 0.0603(3) 0.2223(3)
H10 H 0.6556 0.1156 0.2104
H11 H 0.6236 0.0222 0.1772
H12 H 0.7565 0.0568 0.1950
C16 C 0.8381(4) 0.0981(3) 0.4196(3)
H13 H 0.8043 0.1531 0.4109
H14 H 0.9017 0.0959 0.3866
H15 H 0.8743 0.0836 0.5037
C17 C 0.6299(4) 0.0479(3) 0.3962(4)
H16 H 0.6017 0.1043 0.3865
H17 H 0.6583 0.0326 0.4798
H18 H 0.5617 0.0125 0.3491
N1 N 0.7361(3) 0.03888(17) 0.3540(2)
loop_
_geom_bond_atom_site_label_1
_geom_bond_atom_site_label_2
_geom_bond_site_symmetry_1
_geom_bond_site_symmetry_2
Dy1 O1 1_555 1_555
S1 C1 1_555 1_555
S2 C7 1_555 1_555
O1 C5 1_555 1_555
O2 C5 1_555 1_555
O3 C6 1_555 1_555
O4 C6 1_555 1_555
O5 Dy1 1_555 1_555
O6 Dy1 1_555 1_555
O7 C12 1_555 1_555
O8 C12 1_555 1_555
O9 H1 1_555 1_555
C1 C2 1_555 1_555
C2 H2 1_555 1_555
C3 C2 1_555 1_555
H3 C3 1_555 1_555
C4 S1 1_555 1_555
C5 C1 1_555 1_555
C6 C4 1_555 1_555
C7 C8 1_555 1_555
C8 H4 1_555 1_555
C9 C8 1_555 1_555
H5 C9 1_555 1_555
C10 S2 1_555 1_555
C11 O5 1_555 1_555
C12 C10 1_555 1_555
C13 H6 1_555 1_555
H7 C13 1_555 1_555
C14 O9 1_555 1_555
H8 C14 1_555 1_555
H9 C14 1_555 1_555
C15 H10 1_555 1_555
H11 C15 1_555 1_555
H12 C15 1_555 1_555
C16 H13 1_555 1_555
H14 C16 1_555 1_555
H15 C16 1_555 1_555
C17 H16 1_555 1_555
H17 C17 1_555 1_555
H18 C17 1_555 1_555
N1 C13 1_555 1_555
Dy1B O2 1_555 1_555
Dy1A O4 1_555 1_555
Dy1A_2 O7 1_555 1_555
Dy1C O3 1_555 1_555
O2B Dy1 1_555 1_555
O3C Dy1 1_555 1_555
O4A Dy1 1_555 1_555
O7A Dy1 1_555 1_555
O8A Dy1 1_555 1_555
O6 C11 1_555 1_555
O8 Dy1A_2 1_555 1_555
C3 C4 1_555 1_555
C7 C11 1_555 1_555
C9 C10 1_555 1_555
C13 C14 1_555 1_555
C15 N1 1_555 1_555
C16 N1 1_555 1_555
C17 N1 1_555 1_555

#END
