
#######################################################################
#
#                 Cambridge Crystallographic Data Centre
#                                CCDC 
#
#######################################################################
#
# If this CIF has been generated from an entry in the Cambridge 
# Structural Database, then it will include bibliographic, chemical, 
# crystal, experimental, refinement or atomic coordinate data resulting 
# from the CCDC's data processing and validation procedures.
#
#######################################################################

data_HAZGOF02
_symmetry_cell_setting           monoclinic
_symmetry_space_group_name_H-M   'C 2/c'
_symmetry_Int_Tables_number      15
_space_group_name_Hall           '-C 2yn'
loop_
_symmetry_equiv_pos_site_id
_symmetry_equiv_pos_as_xyz
1 x,y,z
2 -x,y,1/2-z
3 1/2+x,1/2+y,z
4 1/2-x,1/2+y,1/2-z
5 -x,-y,-z
6 x,-y,1/2+z
7 1/2-x,1/2-y,-z
8 1/2+x,1/2-y,1/2+z
_cell_length_a                   8.75468(15)
_cell_length_b                   34.37449(16)
_cell_length_c                   11.16967(10)
_cell_angle_alpha                90
_cell_angle_beta                 111.7476(10)
_cell_angle_gamma                90
_cell_volume                     3122.13
loop_
_atom_site_label
_atom_site_type_symbol
_atom_site_fract_x
_atom_site_fract_y
_atom_site_fract_z
Sc1 Sc 0.0000 0.36556(17) 0.25000
Sc2 Sc 0.5000 0.38669(16) 0.25000
O1 O 0.2028(10) 0.36526(35) 0.4223(8)
O2 O 0.4368(12) 0.3868(4) 0.4108(7)
O3 O 0.1002(13) 0.40951(26) 0.1763(10)
O4 O 0.3284(10) 0.43068(26) 0.1645(12)
O5 O -0.1068(11) 0.32174(28) 0.3238(10)
O6 O -0.3344(12) 0.34347(24) 0.3437(11)
C1 C 0.3519(11) 0.3763(5) 0.47652(35)
C2 C 0.4276(5) 0.3768(6) 0.61631(26)
C3 C 0.3296(4) 0.3746(6) 0.6898(4)
C4 C 0.5982(5) 0.3766(6) 0.6764(4)
C5 C 0.1761(8) 0.43529(20) 0.1401(10)
C6 C 0.0790(5) 0.46685(13) 0.0631(7)
C7 C -0.0857(5) 0.47278(17) 0.0431(7)
C8 C 0.1682(4) 0.49570(16) 0.0305(8)
C9 C -0.2274(10) 0.31697(17) 0.3598(8)
C10 C -0.2337(6) 0.28318(12) 0.4355(6)
C11 C -0.1158(6) 0.25397(16) 0.4625(7)
C12 C -0.3702(5) 0.27881(14) 0.4695(7)
Sc1_2 Sc 1.0000 0.36556(17) 1.25000
Sc1D Sc 0.0000 0.63444(17) -0.25000
Sc1F Sc -0.5000 0.13444(17) 0.75000
Sc2_2 Sc -0.5000 0.38669(16) 0.25000
Sc2_3 Sc 0.5000 0.38669(16) 1.25000
Sc2D Sc -0.5000 0.61331(16) -0.25000
Sc2F Sc 0.0000 0.11331(16) 0.75000
O1A O 0.7972(10) 0.36526(35) 1.0777(8)
O1A_2 O -0.2028(10) 0.36526(35) 0.0777(8)
O2A O 0.5632(12) 0.3868(4) 1.0892(7)
O2A_2 O 0.5632(12) 0.3868(4) 0.0892(7)
O3D O -0.1002(13) 0.59049(26) -0.1763(10)
O3A O -0.1002(13) 0.40951(26) 0.3237(10)
O4D O -0.3284(10) 0.56932(26) -0.1645(12)
O4A O 0.6716(10) 0.43068(26) 0.3355(12)
O5F O -0.3932(11) 0.17826(28) 0.6762(10)
O5A O 0.1068(11) 0.32174(28) 0.1762(10)
O6F O -0.1656(12) 0.15653(24) 0.6563(11)
O6_2 O 0.6656(12) 0.34347(24) 0.3437(11)
O6A O 0.3344(12) 0.34347(24) 0.1563(11)
C1A C 0.6481(11) 0.3763(5) 1.02348(35)
C2A C 0.5724(5) 0.3768(6) 0.88369(26)
C3A C 0.6704(4) 0.3746(6) 0.8102(4)
C4A C 0.4018(5) 0.3766(6) 0.8236(4)
C5D C -0.1761(8) 0.56471(20) -0.1401(10)
C6D C -0.0790(5) 0.53315(13) -0.0631(7)
C7D C 0.0857(5) 0.52722(17) -0.0431(7)
C8D C -0.1682(4) 0.50430(16) -0.0305(8)
C9F C -0.2726(10) 0.18303(17) 0.6402(8)
C10F C -0.2663(6) 0.21682(12) 0.5645(6)
C11F C -0.3842(6) 0.24603(16) 0.5375(7)
C12F C -0.1298(5) 0.22119(14) 0.5305(7)
loop_
_geom_bond_atom_site_label_1
_geom_bond_atom_site_label_2
_geom_bond_site_symmetry_1
_geom_bond_site_symmetry_2
Sc1 O1 1_555 1_555
Sc2 O2 1_555 1_555
O1 C1 1_555 1_555
O2 C1 1_555 1_555
O3 Sc1 1_555 1_555
O4 Sc2 1_555 1_555
O5 Sc1 1_555 1_555
O6 C9 1_555 1_555
C1 C2 1_555 1_555
C2 C3 1_555 1_555
C3 C4A 1_555 1_555
C4 C2 1_555 1_555
C5 O3 1_555 1_555
C6 C5 1_555 1_555
C7 C6 1_555 1_555
C8 C6 1_555 1_555
C9 O5 1_555 1_555
C10 C9 1_555 1_555
C11 C10 1_555 1_555
C12 C10 1_555 1_555
Sc1_2 O1A 1_555 1_555
Sc1D O3D 1_555 1_555
Sc1F O5F 1_555 1_555
Sc2_2 O6 1_555 1_555
Sc2_3 O2A 1_555 1_555
Sc2D O4D 1_555 1_555
Sc2F O6F 1_555 1_555
O1A C1A 1_555 1_555
O1A_2 Sc1 1_555 1_555
O2A C1A 1_555 1_555
O2A_2 Sc2 1_555 1_555
O3D C5D 1_555 1_555
O3A Sc1 1_555 1_555
O4D C5D 1_555 1_555
O4A Sc2 1_555 1_555
O5F C9F 1_555 1_555
O5A Sc1 1_555 1_555
O6F C9F 1_555 1_555
O6_2 Sc2 1_555 1_555
O6A Sc2 1_555 1_555
C1A C2A 1_555 1_555
C2A C3A 1_555 1_555
C3A C4 1_555 1_555
C4A C2A 1_555 1_555
C5D C6D 1_555 1_555
C6D C7D 1_555 1_555
C7D C8 1_555 1_555
C8D C7 1_555 1_555
C9F C10F 1_555 1_555
C10F C11F 1_555 1_555
C11F C12 1_555 1_555
C12F C11 1_555 1_555
O4 C5 1_555 1_555
C6D C8D 1_555 1_555
C10F C12F 1_555 1_555

#END
