
#######################################################################
#
#                 Cambridge Crystallographic Data Centre
#                                CCDC 
#
#######################################################################
#
# If this CIF has been generated from an entry in the Cambridge 
# Structural Database, then it will include bibliographic, chemical, 
# crystal, experimental, refinement or atomic coordinate data resulting 
# from the CCDC's data processing and validation procedures.
#
#######################################################################

data_HAZNIH
_symmetry_cell_setting           monoclinic
_symmetry_space_group_name_H-M   'C 2/c'
_symmetry_Int_Tables_number      15
_space_group_name_Hall           '-C 2yn'
loop_
_symmetry_equiv_pos_site_id
_symmetry_equiv_pos_as_xyz
1 x,y,z
2 -x,y,1/2-z
3 1/2+x,1/2+y,z
4 1/2-x,1/2+y,1/2-z
5 -x,-y,-z
6 x,-y,1/2+z
7 1/2-x,1/2-y,-z
8 1/2+x,1/2-y,1/2+z
_cell_length_a                   15.3959(9)
_cell_length_b                   17.3775(10)
_cell_length_c                   15.0543(12)
_cell_angle_alpha                90
_cell_angle_beta                 120.4200(10)
_cell_angle_gamma                90
_cell_volume                     3473.2
loop_
_atom_site_label
_atom_site_type_symbol
_atom_site_fract_x
_atom_site_fract_y
_atom_site_fract_z
O6 O 0.5000 0.3574(10) 0.2500
H8 H 0.5602 0.3817 0.2901
C13 C 0.4734(18) 0.3678(14) 0.1441(8)
H9 H 0.5202 0.3514 0.1236
H10 H 0.4630 0.4221 0.1315
C14 C 0.3767(15) 0.3302(14) 0.0706(9)
H11 H 0.3516 0.3417 -0.0007
H12 H 0.3867 0.2757 0.0815
H13 H 0.3288 0.3472 0.0895
H8A H 0.4398 0.3817 0.2099
C13A C 0.5266(18) 0.3678(14) 0.3559(8)
H9A H 0.4798 0.3514 0.3764
H10A H 0.5370 0.4221 0.3685
C14A C 0.6233(15) 0.3302(14) 0.4294(9)
H11A H 0.6484 0.3417 0.5007
H12A H 0.6133 0.2757 0.4185
H13A H 0.6712 0.3472 0.4105
Cd1 Cd -0.13389(3) 0.63271(2) 0.71430(3)
Br1 Br -0.46302(7) 0.59895(6) 0.12981(6)
Br2 Br 0.13792(5) 0.63254(4) 1.30796(5)
O1 O -0.0953(4) 0.4928(3) 0.5717(3)
O2 O -0.2156(3) 0.5763(3) 0.5500(3)
O3 O -0.0510(3) 0.6705(3) 0.8826(3)
O4 O 0.0762(3) 0.7138(2) 0.8656(3)
O5 O 0.0000 0.5542(3) 0.7500
H1 H 0.0263 0.5293 0.8063
N1 N -0.2187(4) 0.4554(3) 0.2647(3)
N2 N 0.2387(4) 0.7794(3) 1.1669(3)
C1 C -0.1807(4) 0.4686(3) 0.3648(4)
H2 H -0.1221 0.4430 0.4116
C2 C -0.3020(5) 0.4932(4) 0.1972(5)
H3 H -0.3295 0.4844 0.1270
C3 C -0.3475(5) 0.5447(4) 0.2296(4)
C4 C -0.3094(4) 0.5596(4) 0.3334(4)
H4 H -0.3396 0.5952 0.3555
C5 C -0.2246(4) 0.5192(3) 0.4024(4)
C6 C -0.1743(5) 0.5306(4) 0.5183(4)
C7 C 0.1761(4) 0.7656(3) 1.0664(4)
H5 H 0.1857 0.7922 1.0184
C8 C 0.2245(5) 0.7405(4) 1.2351(4)
H6 H 0.2677 0.7495 1.3050
C9 C 0.1483(4) 0.6879(4) 1.2053(4)
C10 C 0.0820(4) 0.6744(3) 1.1027(4)
H7 H 0.0285 0.6403 1.0817
C11 C 0.0976(4) 0.7134(3) 1.0315(4)
C12 C 0.0352(4) 0.6978(3) 0.9166(4)
Cd1E Cd -0.13389(3) 0.36729(2) 1.21430(3)
Cd1A Cd 0.13389(3) 0.63271(2) 0.78570(3)
Cd1E_2 Cd -0.13389(3) 0.36729(2) 0.21430(3)
Cd1G Cd 0.36611(3) 0.86729(2) 1.21430(3)
Cd1F Cd -0.36611(3) 0.86729(2) 0.28570(3)
Br1E Br -0.46302(7) 0.40105(6) 0.62981(6)
Br2A Br -0.13792(5) 0.63254(4) 0.19204(5)
O1E O -0.0953(4) 0.5072(3) 1.0717(3)
O2E O -0.2156(3) 0.4237(3) 1.0500(3)
O2A O 0.2156(3) 0.5763(3) 0.9500(3)
O3A O 0.0510(3) 0.6705(3) 0.6174(3)
O4A O -0.0762(3) 0.7138(2) 0.6344(3)
H1A H -0.0263 0.5293 0.6937
N1E N -0.2187(4) 0.5446(3) 0.7647(3)
N1D N 0.2187(4) 0.5446(3) 0.7353(3)
N2A N -0.2387(4) 0.7794(3) 0.3331(3)
N2G N -0.2613(4) 0.7206(3) 0.6669(3)
N2F N 0.2613(4) 0.7206(3) 0.8331(3)
C1E C -0.1807(4) 0.5314(3) 0.8648(4)
H2E H -0.1221 0.5570 0.9116
C2E C -0.3020(5) 0.5068(4) 0.6972(5)
H3E H -0.3295 0.5156 0.6270
C3E C -0.3475(5) 0.4553(4) 0.7296(4)
C4E C -0.3094(4) 0.4404(4) 0.8334(4)
H4E H -0.3396 0.4048 0.8555
C5E C -0.2246(4) 0.4808(3) 0.9024(4)
C6E C -0.1743(5) 0.4694(4) 1.0183(4)
C7A C -0.1761(4) 0.7656(3) 0.4336(4)
H5A H -0.1857 0.7922 0.4816
C8A C -0.2245(5) 0.7405(4) 0.2649(4)
H6A H -0.2677 0.7495 0.1950
C9A C -0.1483(4) 0.6879(4) 0.2947(4)
C10A C -0.0820(4) 0.6744(3) 0.3973(4)
H7A H -0.0285 0.6403 0.4183
C11A C -0.0976(4) 0.7134(3) 0.4685(4)
C12A C -0.0352(4) 0.6978(3) 0.5834(4)
loop_
_geom_bond_atom_site_label_1
_geom_bond_atom_site_label_2
_geom_bond_site_symmetry_1
_geom_bond_site_symmetry_2
Cd1 O2 1_555 1_555
Br1 C3 1_555 1_555
Br2 C9 1_555 1_555
O1 C6 1_555 1_555
O2 C6 1_555 1_555
O3 Cd1 1_555 1_555
O4 C12 1_555 1_555
O5 Cd1 1_555 1_555
H1 O5 1_555 1_555
N1 C1 1_555 1_555
N2 C7 1_555 1_555
C1 H2 1_555 1_555
C2 N1 1_555 1_555
H3 C2 1_555 1_555
C3 C2 1_555 1_555
C4 C3 1_555 1_555
H4 C4 1_555 1_555
C5 C1 1_555 1_555
C6 C5 1_555 1_555
C7 H5 1_555 1_555
C8 N2 1_555 1_555
H6 C8 1_555 1_555
C9 C8 1_555 1_555
C10 C9 1_555 1_555
H7 C10 1_555 1_555
C11 C7 1_555 1_555
C12 O3 1_555 1_555
O6 H8 1_555 1_555
C13 O6 1_555 1_555
H9 C13 1_555 1_555
H10 C13 1_555 1_555
C14 C13 1_555 1_555
H11 C14 1_555 1_555
H12 C14 1_555 1_555
H13 C14 1_555 1_555
Cd1E O2E 1_555 1_555
Cd1A O4 1_555 1_555
Cd1E_2 N1 1_555 1_555
Cd1G N2 1_555 1_555
Cd1F N2A 1_555 1_555
Br1E C3E 1_555 1_555
Br2A C9A 1_555 1_555
O1E C6E 1_555 1_555
O2E C6E 1_555 1_555
O2A Cd1A 1_555 1_555
O3A Cd1A 1_555 1_555
O4A Cd1 1_555 1_555
H1A O5 1_555 1_555
N1E Cd1 1_555 1_555
N1D Cd1A 1_555 1_555
N2A C7A 1_555 1_555
N2G Cd1 1_555 1_555
N2F Cd1A 1_555 1_555
C1E N1E 1_555 1_555
H2E C1E 1_555 1_555
C2E N1E 1_555 1_555
H3E C2E 1_555 1_555
C3E C2E 1_555 1_555
C4E C3E 1_555 1_555
H4E C4E 1_555 1_555
C5E C1E 1_555 1_555
C6E C5E 1_555 1_555
C7A H5A 1_555 1_555
C8A N2A 1_555 1_555
H6A C8A 1_555 1_555
C9A C8A 1_555 1_555
C10A C9A 1_555 1_555
H7A C10A 1_555 1_555
C11A C7A 1_555 1_555
C12A O3A 1_555 1_555
H8A O6 1_555 1_555
C13A O6 1_555 1_555
H9A C13A 1_555 1_555
H10A C13A 1_555 1_555
C14A C13A 1_555 1_555
H11A C14A 1_555 1_555
H12A C14A 1_555 1_555
H13A C14A 1_555 1_555
O5 Cd1A 1_555 1_555
C4 C5 1_555 1_555
C10 C11 1_555 1_555
C11 C12 1_555 1_555
O4A C12A 1_555 1_555
C4E C5E 1_555 1_555
C10A C11A 1_555 1_555
C11A C12A 1_555 1_555

#END
