
#######################################################################
#
#                 Cambridge Crystallographic Data Centre
#                                CCDC 
#
#######################################################################
#
# If this CIF has been generated from an entry in the Cambridge 
# Structural Database, then it will include bibliographic, chemical, 
# crystal, experimental, refinement or atomic coordinate data resulting 
# from the CCDC's data processing and validation procedures.
#
#######################################################################

data_HEBKIK
_symmetry_cell_setting           monoclinic
_symmetry_space_group_name_H-M   'P 21'
_symmetry_Int_Tables_number      4
_space_group_name_Hall           'P 2yb'
loop_
_symmetry_equiv_pos_site_id
_symmetry_equiv_pos_as_xyz
1 x,y,z
2 -x,1/2+y,-z
_cell_length_a                   9.4628(12)
_cell_length_b                   15.1900(19)
_cell_length_c                   10.0319(12)
_cell_angle_alpha                90
_cell_angle_beta                 110.630(2)
_cell_angle_gamma                90
_cell_volume                     1349.52
loop_
_atom_site_label
_atom_site_type_symbol
_atom_site_fract_x
_atom_site_fract_y
_atom_site_fract_z
Cd1 Cd 0.74343(5) 0.20867(3) 0.88427(5)
Cd2 Cd 0.95761(6) 0.30855(3) 0.50855(5)
Br1 Br 0.76210(10) 0.03839(6) 0.84804(10)
O1 O 0.8230(7) 0.2710(4) 0.6584(6)
O2 O 0.5912(7) 0.2495(4) 0.6580(6)
O3 O 0.7562(6) 0.2066(4) 0.3639(5)
O4 O 0.9956(7) 0.3281(4) 1.2976(6)
O5 O 0.8633(6) 0.2219(4) 1.1519(5)
O6 O 0.7599(6) 0.3719(4) 0.9265(6)
N1 N 1.5326(7) 0.2079(5) 0.9484(6)
N2 N 0.9084(7) 0.6824(4) 0.4142(7)
N3 N 0.9966(7) 0.2517(5) 0.9590(7)
H1 H 1.0116 0.2777 0.8833
N4 N 0.7241(8) 0.3837(4) 0.4392(7)
H2 H 0.7324 0.4220 0.5114
C1 C 1.4902(9) 0.1324(6) 0.9967(9)
H3 H 1.5558 0.0847 1.0170
C2 C 0.7608(9) 0.6742(5) 0.4021(8)
H4 H 0.7129 0.7234 0.4216
C3 C 1.3557(10) 0.1238(6) 1.0167(10)
H5 H 1.3301 0.0704 1.0477
C4 C 0.9136(9) 0.3986(6) 0.9944(9)
H6 H 0.9195 0.4436 1.0648
H7 H 0.9509 0.4236 0.9241
C5 C 1.2582(8) 0.1937(5) 0.9911(7)
C6 C 0.6790(10) 0.5987(6) 0.3636(9)
H8 H 0.5783 0.5973 0.3563
C7 C 0.9740(10) 0.6101(5) 0.3849(9)
H9 H 1.0746 0.6141 0.3925
C8 C 0.9028(9) 0.5316(5) 0.3447(9)
H10 H 0.9528 0.4837 0.3238
C9 C 0.7471(8) 0.5245(5) 0.3356(8)
C10 C 0.6805(10) 0.2743(5) 0.6020(8)
C11 C 0.6693(9) 0.4377(5) 0.3061(8)
H11 H 0.6913 0.4079 0.2302
H12 H 0.5609 0.4460 0.2764
C12 C 0.9529(8) 0.2849(5) 1.1820(7)
C13 C 1.4413(9) 0.2742(6) 0.9255(9)
H13 H 1.4679 0.3261 0.8910
C14 C 1.0110(8) 0.3209(5) 1.0661(8)
H14 H 1.1167 0.3393 1.1095
C15 C 1.3044(9) 0.2718(6) 0.9499(9)
H15 H 1.2456 0.3223 0.9385
C16 C 0.6196(8) 0.3136(6) 0.4516(7)
H16 H 0.5192 0.3386 0.4336
C17 C 1.1020(9) 0.1804(6) 1.0042(10)
H17 H 1.0561 0.1286 0.9494
H18 H 1.1174 0.1678 1.1032
C18 C 0.6097(9) 0.2402(6) 0.3401(9)
H19 H 0.5440 0.1933 0.3488
H20 H 0.5677 0.2643 0.2446
Br2 Br 1.16904(18) 0.42022(10) 0.65889(16)
H21 H 0.774(8) 0.182(5) 0.453(8)
Cd1_2 Cd 1.74343(5) 0.20867(3) 0.88427(5)
Cd2_2 Cd 0.95761(6) 0.30855(3) 1.50855(5)
Cd2A Cd 1.04239(6) 0.80855(3) 0.49145(5)
O4_2 O 0.9956(7) 0.3281(4) 0.2976(6)
N1_2 N 0.5326(7) 0.2079(5) 0.9484(6)
N2A N 1.0916(7) 0.1824(4) 0.5858(7)
O7 O 0.6774(9) 0.4814(5) 0.6981(9)
O8 O 0.9367(10) 0.5680(6) 0.7174(9)
O9 O 0.4017(13) 0.5030(12) 0.5045(13)
loop_
_geom_bond_atom_site_label_1
_geom_bond_atom_site_label_2
_geom_bond_site_symmetry_1
_geom_bond_site_symmetry_2
Cd1 Br1 1_555 1_555
Cd2 O1 1_555 1_555
O1 C10 1_555 1_555
O2 Cd1 1_555 1_555
O3 Cd2 1_555 1_555
O4 C12 1_555 1_555
O5 Cd1 1_555 1_555
O6 Cd1 1_555 1_555
N1 C1 1_555 1_555
N2 C2 1_555 1_555
N3 Cd1 1_555 1_555
H1 N3 1_555 1_555
N4 Cd2 1_555 1_555
H2 N4 1_555 1_555
C1 H3 1_555 1_555
C2 H4 1_555 1_555
C3 C1 1_555 1_555
H5 C3 1_555 1_555
C4 O6 1_555 1_555
H6 C4 1_555 1_555
H7 C4 1_555 1_555
C5 C3 1_555 1_555
C6 C2 1_555 1_555
H8 C6 1_555 1_555
C7 N2 1_555 1_555
H9 C7 1_555 1_555
C8 C7 1_555 1_555
H10 C8 1_555 1_555
C9 C6 1_555 1_555
C10 O2 1_555 1_555
C11 N4 1_555 1_555
H11 C11 1_555 1_555
H12 C11 1_555 1_555
C12 O5 1_555 1_555
C13 N1 1_555 1_555
H13 C13 1_555 1_555
C14 N3 1_555 1_555
H14 C14 1_555 1_555
C15 C5 1_555 1_555
H15 C15 1_555 1_555
C16 N4 1_555 1_555
H16 C16 1_555 1_555
C17 N3 1_555 1_555
H17 C17 1_555 1_555
H18 C17 1_555 1_555
C18 O3 1_555 1_555
H19 C18 1_555 1_555
H20 C18 1_555 1_555
Br2 Cd2 1_555 1_555
H21 O3 1_555 1_555
Cd1_2 N1 1_555 1_555
Cd2_2 O4 1_555 1_555
Cd2A N2 1_555 1_555
O4_2 Cd2 1_555 1_555
N1_2 Cd1 1_555 1_555
N2A Cd2 1_555 1_555
C4 C14 1_555 1_555
C5 C17 1_555 1_555
C8 C9 1_555 1_555
C9 C11 1_555 1_555
C10 C16 1_555 1_555
C12 C14 1_555 1_555
C13 C15 1_555 1_555
C16 C18 1_555 1_555

#END
