
#######################################################################
#
#                 Cambridge Crystallographic Data Centre
#                                CCDC 
#
#######################################################################
#
# If this CIF has been generated from an entry in the Cambridge 
# Structural Database, then it will include bibliographic, chemical, 
# crystal, experimental, refinement or atomic coordinate data resulting 
# from the CCDC's data processing and validation procedures.
#
#######################################################################

data_HEDTER
_symmetry_cell_setting           monoclinic
_symmetry_space_group_name_H-M   'P 21/n'
_symmetry_Int_Tables_number      14
_space_group_name_Hall           '-P 2yn'
loop_
_symmetry_equiv_pos_site_id
_symmetry_equiv_pos_as_xyz
1 x,y,z
2 1/2-x,1/2+y,1/2-z
3 -x,-y,-z
4 1/2+x,1/2-y,1/2+z
_cell_length_a                   17.005(2)
_cell_length_b                   10.5930(13)
_cell_length_c                   24.0013(19)
_cell_angle_alpha                90
_cell_angle_beta                 91.215(3)
_cell_angle_gamma                90
_cell_volume                     4322.48
loop_
_atom_site_label
_atom_site_type_symbol
_atom_site_fract_x
_atom_site_fract_y
_atom_site_fract_z
C1 C 0.75723(18) -0.0419(3) 0.57388(12)
H1 H 0.7630 -0.0174 0.6109
C2 C 0.75656(18) 0.0472(3) 0.53223(12)
H2 H 0.7609 0.1321 0.5416
C3 C 0.74954(15) 0.0134(3) 0.47686(11)
C4 C 0.74374(17) -0.1145(3) 0.46324(12)
H3 H 0.7405 -0.1394 0.4261
C5 C 0.74287(18) -0.2035(3) 0.50484(11)
H4 H 0.7379 -0.2884 0.4955
C6 C 0.75144(16) 0.1152(3) 0.43332(12)
C7 C 0.81005(16) 0.2064(3) 0.43247(12)
H5 H 0.8502 0.2039 0.4593
C8 C 0.81024(17) 0.3003(3) 0.39300(11)
H6 H 0.8501 0.3604 0.3937
C9 C 0.75137(15) 0.3062(3) 0.35209(12)
C10 C 0.69288(16) 0.2144(3) 0.35231(12)
H7 H 0.6530 0.2170 0.3252
C11 C 0.69264(16) 0.1190(3) 0.39186(10)
H8 H 0.6534 0.0578 0.3908
C12 C 1.14729(19) 0.7363(3) 0.22596(14)
H9 H 1.1833 0.7823 0.2475
C13 C 1.08548(17) 0.6800(3) 0.25143(13)
H10 H 1.0819 0.6839 0.2900
C14 C 1.02971(17) 0.6192(3) 0.22147(12)
C15 C 1.03760(19) 0.6107(3) 0.16342(13)
H11 H 0.9993 0.5695 0.1420
C16 C 1.10188(17) 0.6633(3) 0.13817(13)
H12 H 1.1072 0.6555 0.0998
C17 C 0.96083(16) 0.5606(3) 0.25132(13)
C18 C 0.94512(17) 0.4337(3) 0.24315(12)
H13 H 0.9800 0.3837 0.2236
C19 C 0.87642(17) 0.3809(3) 0.26455(12)
H14 H 0.8659 0.2956 0.2592
C20 C 0.82357(14) 0.4555(3) 0.29392(10)
C21 C 0.83944(17) 0.5832(3) 0.30201(12)
H15 H 0.8045 0.6335 0.3214
C22 C 0.90826(16) 0.6354(3) 0.28084(12)
H16 H 0.9191 0.7206 0.2864
C23 C 0.41165(16) 0.6984(3) 0.13232(11)
H17 H 0.4112 0.7166 0.0944
C24 C 0.47397(17) 0.6473(3) 0.15565(12)
H18 H 0.5177 0.6316 0.1341
C25 C 0.47681(15) 0.6146(3) 0.21371(11)
C26 C 0.40942(16) 0.6425(3) 0.24418(12)
H19 H 0.4084 0.6229 0.2819
C27 C 0.34634(16) 0.6972(3) 0.21960(12)
H20 H 0.3026 0.7157 0.2408
C28 C 0.54788(15) 0.5534(3) 0.23858(11)
C29 C 0.61839(16) 0.5267(3) 0.20804(11)
H21 H 0.6188 0.5445 0.1701
C30 C 0.68272(16) 0.4777(3) 0.23208(12)
H22 H 0.7274 0.4632 0.2114
C31 C 0.68217(15) 0.4486(3) 0.28837(11)
C32 C 0.61496(16) 0.4737(3) 0.32013(12)
H23 H 0.6154 0.4555 0.3580
C33 C 0.54884(15) 0.5251(3) 0.29512(11)
H24 H 0.5046 0.5411 0.3161
C34 C 0.62001(16) -0.4876(3) 0.58617(11)
C35 C 0.58007(18) -0.5289(3) 0.48593(12)
H25 H 0.6273 -0.5797 0.4832
H26 H 0.5896 -0.4462 0.4702
C36 C 0.55263(16) -0.5188(3) 0.54814(11)
H27 H 0.5258 -0.5958 0.5599
C37 C 0.49414(17) -0.4029(3) 0.54450(13)
H28 H 0.5149 -0.3348 0.5222
H29 H 0.4811 -0.3713 0.5811
C38 C 0.87307(17) -0.4947(3) 0.58284(12)
C39 C 1.01771(13) -0.5055(3) 0.55990(12)
H30 H 1.0270 -0.5549 0.5934
H31 H 1.0238 -0.4172 0.5697
C40 C 0.93624(13) -0.5273(3) 0.53959(11)
H32 H 0.9316 -0.6181 0.5325
C41 C 0.92157(17) -0.4603(3) 0.48207(11)
H33 H 0.8699 -0.4836 0.4675
H34 H 0.9220 -0.3696 0.4876
N1 N 0.74920(13) -0.1692(2) 0.56029(9)
N2 N 1.15815(13) 0.7271(2) 0.16900(10)
N3 N 0.34532(12) 0.7262(2) 0.16389(9)
N4 N 0.75227(12) 0.4038(2) 0.31269(9)
Ni1 Ni 0.749932(19) -0.31313(3) 0.622086(12)
O1 O 0.66264(11) -0.3962(2) 0.57592(7)
O2 O 0.62948(11) -0.56260(19) 0.62705(8)
O3 O 0.83119(11) -0.40267(19) 0.57282(8)
O4 O 0.87075(11) -0.56367(19) 0.62539(8)
O5 O 0.75128(11) -0.46259(18) 0.68012(7)
H35 H 0.7131 -0.5248 0.6696
H36 H 0.8026 -0.5003 0.6807
C1B C 0.24277(18) -0.9581(3) 0.42612(12)
H1B H 0.2370 -0.9826 0.3891
C2B C 0.24344(18) -1.0472(3) 0.46777(12)
H2B H 0.2391 -1.1321 0.4584
C3B C 0.25046(15) -1.0134(3) 0.52314(11)
C4B C 0.25626(17) -0.8855(3) 0.53676(12)
H3B H 0.2595 -0.8606 0.5739
C5B C 0.25713(18) -0.7965(3) 0.49516(11)
H4B H 0.2621 -0.7116 0.5045
C6B C 0.24856(16) -1.1152(3) 0.56668(12)
C7B C 0.18995(16) -1.2064(3) 0.56753(12)
H5B H 0.1498 -1.2039 0.5407
C8B C 0.18976(17) -1.3003(3) 0.60700(11)
H6B H 0.1499 -1.3604 0.6063
C9B C 0.24863(15) -1.3062(3) 0.64791(12)
C10B C 0.30712(16) -1.2144(3) 0.64769(12)
H7B H 0.3470 -1.2170 0.6748
C11B C 0.30736(16) -1.1190(3) 0.60814(10)
H8B H 0.3466 -1.0578 0.6092
C12B C -0.14729(19) -1.7363(3) 0.77404(14)
H9B H -0.1833 -1.7823 0.7525
C13B C -0.08548(17) -1.6800(3) 0.74857(13)
H10B H -0.0819 -1.6839 0.7100
C14B C -0.02971(17) -1.6192(3) 0.77853(12)
C15B C -0.03760(19) -1.6107(3) 0.83658(13)
H11B H 0.0007 -1.5695 0.8580
C16B C -0.10188(17) -1.6633(3) 0.86183(13)
H12B H -0.1072 -1.6555 0.9002
C17B C 0.03917(16) -1.5606(3) 0.74868(13)
C18B C 0.05488(17) -1.4337(3) 0.75685(12)
H13B H 0.0200 -1.3837 0.7764
C19B C 0.12358(17) -1.3809(3) 0.73545(12)
H14B H 0.1341 -1.2956 0.7408
C20B C 0.17643(14) -1.4555(3) 0.70608(10)
C21B C 0.16056(17) -1.5832(3) 0.69799(12)
H15B H 0.1955 -1.6335 0.6786
C22B C 0.09174(16) -1.6354(3) 0.71916(12)
H16B H 0.0809 -1.7206 0.7136
C23B C 0.58835(16) -1.6984(3) 0.86768(11)
H17B H 0.5888 -1.7166 0.9056
C24B C 0.52603(17) -1.6473(3) 0.84435(12)
H18B H 0.4823 -1.6316 0.8659
C25B C 0.52319(15) -1.6146(3) 0.78629(11)
C26B C 0.59058(16) -1.6425(3) 0.75582(12)
H19B H 0.5916 -1.6229 0.7181
C27B C 0.65366(16) -1.6972(3) 0.78040(12)
H20B H 0.6974 -1.7157 0.7592
C28B C 0.45212(15) -1.5534(3) 0.76142(11)
C29B C 0.38161(16) -1.5267(3) 0.79196(11)
H21B H 0.3812 -1.5445 0.8299
C30B C 0.31728(16) -1.4777(3) 0.76792(12)
H22B H 0.2726 -1.4632 0.7886
C31B C 0.31783(15) -1.4486(3) 0.71163(11)
C32B C 0.38504(16) -1.4737(3) 0.67987(12)
H23B H 0.3846 -1.4555 0.6420
C33B C 0.45116(15) -1.5251(3) 0.70488(11)
H24B H 0.4954 -1.5411 0.6839
C34B C 0.37999(16) -0.5124(3) 0.41383(11)
C35B C 0.41993(18) -0.4711(3) 0.51407(12)
H25B H 0.3727 -0.4203 0.5168
H26B H 0.4104 -0.5538 0.5298
C36B C 0.44737(16) -0.4812(3) 0.45186(11)
H27B H 0.4742 -0.4042 0.4401
C37B C 0.50586(17) -0.5971(3) 0.45550(13)
H28B H 0.4851 -0.6652 0.4778
H29B H 0.5189 -0.6287 0.4189
C38B C 1.12693(17) -0.5053(3) 0.41716(12)
C39B C 0.98229(13) -0.4945(3) 0.44010(12)
H30B H 0.9730 -0.4451 0.4066
H31B H 0.9762 -0.5828 0.4303
C40B C 1.06376(13) -0.4727(3) 0.46041(11)
H32B H 1.0684 -0.3819 0.4675
C41B C 1.07843(17) -0.5397(3) 0.51793(11)
H33B H 1.1301 -0.5164 0.5325
H34B H 1.0780 -0.6304 0.5124
N1B N 0.25080(13) -0.8308(2) 0.43971(9)
N2B N -0.15815(13) -1.7271(2) 0.83100(10)
N2A N 0.34185(13) -0.7729(2) 0.33100(10)
N2C N 0.65815(13) -0.2271(2) 0.66900(10)
N3B N 0.65468(12) -1.7262(2) 0.83611(9)
N3A N 0.15468(12) -0.7738(2) 0.33611(9)
N3C N 0.84532(12) -0.2262(2) 0.66389(9)
N4B N 0.24773(12) -1.4038(2) 0.68731(9)
Ni1B Ni 0.250068(19) -0.68687(3) 0.377914(12)
Ni1A Ni -0.249932(19) -1.81313(3) 0.877914(12)
Ni1A_2 Ni 0.750068(19) -1.81313(3) 0.877914(12)
Ni1B_2 Ni 1.250068(19) -0.68687(3) 0.377914(12)
Ni1C Ni 0.249932(19) 0.81313(3) 0.122086(12)
Ni1C_2 Ni 1.249932(19) 0.81313(3) 0.122086(12)
O1B O 0.33736(11) -0.6038(2) 0.42408(7)
O2B O 0.37052(11) -0.43740(19) 0.37295(8)
O3B O 1.16881(11) -0.59733(19) 0.42718(8)
O3B_2 O 0.16881(11) -0.59733(19) 0.42718(8)
O4B O 1.12925(11) -0.43633(19) 0.37461(8)
O5B O 0.24872(11) -0.53741(18) 0.31988(7)
H35B H 0.2869 -0.4752 0.3304
H36B H 0.1974 -0.4997 0.3193
loop_
_geom_bond_atom_site_label_1
_geom_bond_atom_site_label_2
_geom_bond_site_symmetry_1
_geom_bond_site_symmetry_2
C1 H1 1_555 1_555
C2 C1 1_555 1_555
H2 C2 1_555 1_555
C3 C2 1_555 1_555
C4 C3 1_555 1_555
H3 C4 1_555 1_555
C5 C4 1_555 1_555
H4 C5 1_555 1_555
C6 C3 1_555 1_555
C7 C6 1_555 1_555
H5 C7 1_555 1_555
C8 C7 1_555 1_555
H6 C8 1_555 1_555
C9 C8 1_555 1_555
C10 C9 1_555 1_555
H7 C10 1_555 1_555
C11 C6 1_555 1_555
H8 C11 1_555 1_555
C12 H9 1_555 1_555
C13 C12 1_555 1_555
H10 C13 1_555 1_555
C14 C13 1_555 1_555
C15 C14 1_555 1_555
H11 C15 1_555 1_555
C16 C15 1_555 1_555
H12 C16 1_555 1_555
C17 C14 1_555 1_555
C18 C17 1_555 1_555
H13 C18 1_555 1_555
C19 C18 1_555 1_555
H14 C19 1_555 1_555
C20 C19 1_555 1_555
C21 C20 1_555 1_555
H15 C21 1_555 1_555
C22 C17 1_555 1_555
H16 C22 1_555 1_555
C23 H17 1_555 1_555
C24 C23 1_555 1_555
H18 C24 1_555 1_555
C25 C24 1_555 1_555
C26 C25 1_555 1_555
H19 C26 1_555 1_555
C27 C26 1_555 1_555
H20 C27 1_555 1_555
C28 C25 1_555 1_555
C29 C28 1_555 1_555
H21 C29 1_555 1_555
C30 C29 1_555 1_555
H22 C30 1_555 1_555
C31 C30 1_555 1_555
C32 C31 1_555 1_555
H23 C32 1_555 1_555
C33 C28 1_555 1_555
H24 C33 1_555 1_555
C34 C36 1_555 1_555
C35 H25 1_555 1_555
H26 C35 1_555 1_555
C36 C35 1_555 1_555
H27 C36 1_555 1_555
C37 C36 1_555 1_555
H28 C37 1_555 1_555
H29 C37 1_555 1_555
C38 C40 1_555 1_555
C39 H30 1_555 1_555
H31 C39 1_555 1_555
C40 C39 1_555 1_555
H32 C40 1_555 1_555
C41 C40 1_555 1_555
H33 C41 1_555 1_555
H34 C41 1_555 1_555
N1 C1 1_555 1_555
N2 C12 1_555 1_555
N3 C23 1_555 1_555
N4 C9 1_555 1_555
Ni1 N1 1_555 1_555
O1 C34 1_555 1_555
O2 C34 1_555 1_555
O3 C38 1_555 1_555
O4 C38 1_555 1_555
O5 Ni1 1_555 1_555
H35 O5 1_555 1_555
H36 O5 1_555 1_555
C1B H1B 1_555 1_555
C2B C1B 1_555 1_555
H2B C2B 1_555 1_555
C3B C2B 1_555 1_555
C4B C3B 1_555 1_555
H3B C4B 1_555 1_555
C5B C4B 1_555 1_555
H4B C5B 1_555 1_555
C6B C3B 1_555 1_555
C7B C6B 1_555 1_555
H5B C7B 1_555 1_555
C8B C7B 1_555 1_555
H6B C8B 1_555 1_555
C9B C8B 1_555 1_555
C10B C9B 1_555 1_555
H7B C10B 1_555 1_555
C11B C6B 1_555 1_555
H8B C11B 1_555 1_555
C12B H9B 1_555 1_555
C13B C12B 1_555 1_555
H10B C13B 1_555 1_555
C14B C13B 1_555 1_555
C15B C14B 1_555 1_555
H11B C15B 1_555 1_555
C16B C15B 1_555 1_555
H12B C16B 1_555 1_555
C17B C14B 1_555 1_555
C18B C17B 1_555 1_555
H13B C18B 1_555 1_555
C19B C18B 1_555 1_555
H14B C19B 1_555 1_555
C20B C19B 1_555 1_555
C21B C20B 1_555 1_555
H15B C21B 1_555 1_555
C22B C17B 1_555 1_555
H16B C22B 1_555 1_555
C23B H17B 1_555 1_555
C24B C23B 1_555 1_555
H18B C24B 1_555 1_555
C25B C24B 1_555 1_555
C26B C25B 1_555 1_555
H19B C26B 1_555 1_555
C27B C26B 1_555 1_555
H20B C27B 1_555 1_555
C28B C25B 1_555 1_555
C29B C28B 1_555 1_555
H21B C29B 1_555 1_555
C30B C29B 1_555 1_555
H22B C30B 1_555 1_555
C31B C30B 1_555 1_555
C32B C31B 1_555 1_555
H23B C32B 1_555 1_555
C33B C28B 1_555 1_555
H24B C33B 1_555 1_555
C34B C36B 1_555 1_555
C35B C37 1_555 1_555
H25B C35B 1_555 1_555
H26B C35B 1_555 1_555
C36B C35B 1_555 1_555
H27B C36B 1_555 1_555
C37B C35 1_555 1_555
H28B C37B 1_555 1_555
H29B C37B 1_555 1_555
C38B C40B 1_555 1_555
C39B C41 1_555 1_555
H30B C39B 1_555 1_555
H31B C39B 1_555 1_555
C40B C39B 1_555 1_555
H32B C40B 1_555 1_555
C41B C39 1_555 1_555
H33B C41B 1_555 1_555
H34B C41B 1_555 1_555
N1B C1B 1_555 1_555
N2B C12B 1_555 1_555
N2A Ni1B 1_555 1_555
N2C Ni1 1_555 1_555
N3B C23B 1_555 1_555
N3A Ni1B 1_555 1_555
N3C Ni1 1_555 1_555
N4B C9B 1_555 1_555
Ni1B N1B 1_555 1_555
Ni1A N2B 1_555 1_555
Ni1A_2 N3B 1_555 1_555
Ni1B_2 O3B 1_555 1_555
Ni1C N3 1_555 1_555
Ni1C_2 N2 1_555 1_555
O1B C34B 1_555 1_555
O2B C34B 1_555 1_555
O3B C38B 1_555 1_555
O3B_2 Ni1B 1_555 1_555
O4B C38B 1_555 1_555
O5B Ni1B 1_555 1_555
H35B O5B 1_555 1_555
H36B O5B 1_555 1_555
C5 N1 1_555 1_555
C10 C11 1_555 1_555
C16 N2 1_555 1_555
C20 N4 1_555 1_555
C21 C22 1_555 1_555
C27 N3 1_555 1_555
C31 N4 1_555 1_555
C32 C33 1_555 1_555
Ni1 O1 1_555 1_555
Ni1 O3 1_555 1_555
C5B N1B 1_555 1_555
C10B C11B 1_555 1_555
C16B N2B 1_555 1_555
C20B N4B 1_555 1_555
C21B C22B 1_555 1_555
C27B N3B 1_555 1_555
C31B N4B 1_555 1_555
C32B C33B 1_555 1_555
C36B C37B 1_555 1_555
C40B C41B 1_555 1_555
Ni1B O1B 1_555 1_555

#END
