
#######################################################################
#
#                 Cambridge Crystallographic Data Centre
#                                CCDC 
#
#######################################################################
#
# If this CIF has been generated from an entry in the Cambridge 
# Structural Database, then it will include bibliographic, chemical, 
# crystal, experimental, refinement or atomic coordinate data resulting 
# from the CCDC's data processing and validation procedures.
#
#######################################################################

data_HEHSUI
_symmetry_cell_setting           monoclinic
_symmetry_space_group_name_H-M   'I 2/a'
_symmetry_Int_Tables_number      15
_space_group_name_Hall           '-I 2ya'
loop_
_symmetry_equiv_pos_site_id
_symmetry_equiv_pos_as_xyz
1 x,y,z
2 1/2+x,1/2+y,1/2+z
3 1/2-x,y,-z
4 -x,1/2+y,1/2-z
5 -x,-y,-z
6 1/2-x,1/2-y,1/2-z
7 1/2+x,-y,z
8 x,1/2-y,1/2+z
_cell_length_a                   18.194(1)
_cell_length_b                   8.264(1)
_cell_length_c                   18.924(1)
_cell_angle_alpha                90
_cell_angle_beta                 103.92(1)
_cell_angle_gamma                90
_cell_volume                     2761.76
loop_
_atom_site_label
_atom_site_type_symbol
_atom_site_fract_x
_atom_site_fract_y
_atom_site_fract_z
Zn1 Zn 0.20537(2) 0.50869(3) 0.61703(2)
O1 O 0.30132(11) 0.67364(23) 0.64591(10)
O2 O 0.40019(11) 0.7340(3) 0.73833(11)
O3 O 0.38085(10) 0.81840(23) 0.89052(11)
O4 O 0.44707(10) 0.58890(24) 0.90827(10)
O5 O 0.21646(11) 0.15894(23) 0.90930(11)
O6 O 0.12974(11) 0.3511(3) 0.90439(12)
O7 O 0.12815(11) 0.33347(24) 0.64926(10)
O8 O 0.09423(11) 0.2322(3) 0.74671(11)
N1 N 0.23947(12) 0.49549(22) 0.72891(12)
N2 N 0.28553(13) 0.4806(3) 0.87729(12)
C1 C 0.29903(13) 0.5804(3) 0.76288(13)
C2 C 0.32155(13) 0.5747(3) 0.83892(13)
C3 C 0.22474(13) 0.3963(3) 0.84088(13)
C4 C 0.20083(13) 0.4046(3) 0.76557(13)
C5 C 0.33756(15) 0.6717(3) 0.71175(14)
C6 C 0.38900(14) 0.6685(3) 0.88293(13)
C7 C 0.18619(14) 0.2943(3) 0.88814(13)
C8 C 0.13483(14) 0.3152(3) 0.71656(14)
O9 O 0.15463(14) 0.4861(3) 0.50989(12)
H1 H 0.177(3) 0.443(7) 0.469(3)
H2 H 0.136(3) 0.564(7) 0.498(3)
O3E O 0.11915(10) 0.68160(23) 0.60948(11)
Zn1E Zn 0.29463(2) 0.99131(3) 0.88297(2)
O5E O 0.28354(11) 0.34106(23) 0.59070(11)
Zn1E_2 Zn 0.29463(2) -0.00869(3) 0.88297(2)
K1 K 0.51668(3) 0.48678(7) 0.80020(4)
K2 K 0.06131(4) 0.20038(9) 0.51990(3)
O10 O 0.01733(13) 0.4459(3) 0.35506(14)
H3 H 0.017(7) 0.411(15) 0.406(6)
H4 H 0.042(3) 0.361(8) 0.351(3)
O11 O -0.07085(15) 0.2617(4) 0.57644(14)
H5 H -0.113(5) 0.254(12) 0.600(5)
H6 H -0.039(5) 0.354(12) 0.619(5)
O12 O 0.2500 0.8187(18) 0.50000
H7 H 0.205(5) 0.831(12) 0.511(5)
H7B H 0.295(5) 0.831(12) 0.489(5)
H8? H 0.259(5) 0.878(12) 0.526(5)
loop_
_geom_bond_atom_site_label_1
_geom_bond_atom_site_label_2
_geom_bond_site_symmetry_1
_geom_bond_site_symmetry_2
Zn1 O1 1_555 1_555
O1 C5 1_555 1_555
O2 C5 1_555 1_555
O3 C6 1_555 1_555
O4 C6 1_555 1_555
O5 C7 1_555 1_555
O6 C7 1_555 1_555
O7 Zn1 1_555 1_555
O8 C8 1_555 1_555
N1 Zn1 1_555 1_555
N2 C2 1_555 1_555
C1 N1 1_555 1_555
C2 C1 1_555 1_555
C3 N2 1_555 1_555
C4 N1 1_555 1_555
C5 C1 1_555 1_555
C6 C2 1_555 1_555
C7 C3 1_555 1_555
C8 O7 1_555 1_555
O9 Zn1 1_555 1_555
H1 O9 1_555 1_555
H2 O9 1_555 1_555
O10 H3 1_555 1_555
H4 O10 1_555 1_555
O11 H5 1_555 1_555
H6 O11 1_555 1_555
O12 H7 1_555 1_555
O3E Zn1 1_555 1_555
Zn1E O3 1_555 1_555
O5E Zn1 1_555 1_555
Zn1E_2 O5 1_555 1_555
H7B O12 1_555 1_555
C3 C4 1_555 1_555
C4 C8 1_555 1_555

#END
