
#######################################################################
#
#                 Cambridge Crystallographic Data Centre
#                                CCDC 
#
#######################################################################
#
# If this CIF has been generated from an entry in the Cambridge 
# Structural Database, then it will include bibliographic, chemical, 
# crystal, experimental, refinement or atomic coordinate data resulting 
# from the CCDC's data processing and validation procedures.
#
#######################################################################

data_HEMTEZ
_symmetry_cell_setting           orthorhombic
_symmetry_space_group_name_H-M   'P c c n'
_symmetry_Int_Tables_number      56
_space_group_name_Hall           '-P 2ab 2ac'
loop_
_symmetry_equiv_pos_site_id
_symmetry_equiv_pos_as_xyz
1 x,y,z
2 1/2-x,1/2-y,z
3 -x,1/2+y,1/2-z
4 1/2+x,-y,1/2-z
5 -x,-y,-z
6 1/2+x,1/2+y,-z
7 x,1/2-y,1/2+z
8 1/2-x,y,1/2+z
_cell_length_a                   27.745(2)
_cell_length_b                   16.1583(12)
_cell_length_c                   22.8192(18)
_cell_angle_alpha                90
_cell_angle_beta                 90
_cell_angle_gamma                90
_cell_volume                     10230.1
loop_
_atom_site_label
_atom_site_type_symbol
_atom_site_fract_x
_atom_site_fract_y
_atom_site_fract_z
Mo1 Mo 0.049520(16) -0.20101(3) 0.43920(2)
Mo2 Mo -0.066809(16) 0.10353(3) 0.37375(2)
Mo3 Mo 0.060182(16) 0.11225(3) 0.36951(2)
Mo4 Mo -0.110690(15) -0.03223(3) 0.40365(2)
Mo5 Mo 0.109930(16) -0.01876(3) 0.39677(2)
Mo6 Mo -0.044240(16) -0.20750(3) 0.44344(2)
Ni1 Ni 0.0000 0.0000 0.5000
Ni2 Ni -0.2500 -0.2500 0.34202(4)
Ni3 Ni 0.2500 -0.2500 0.33384(4)
P1 P -0.13134(5) -0.21924(9) 0.34321(6)
P2 P 0.13351(5) -0.20347(9) 0.33514(6)
P3 P -0.00855(6) 0.18598(10) 0.26103(7)
P4 P -0.00200(4) -0.06720(8) 0.33956(6)
O1 O -0.17663(14) -0.2701(3) 0.34061(18)
O2 O -0.09564(15) -0.2549(2) 0.38777(19)
O3 O -0.14261(14) -0.1272(2) 0.35515(18)
O4 O -0.10565(17) -0.2184(3) 0.2810(2)
O5 O 0.17809(14) -0.2557(3) 0.33203(19)
O6 O 0.09782(15) -0.2419(3) 0.37850(19)
O7 O 0.14546(14) -0.1124(2) 0.35083(19)
O8 O 0.10968(17) -0.2022(3) 0.2721(2)
O9 O -0.01828(19) 0.2776(3) 0.2550(2)
O10 O 0.03997(15) 0.1667(3) 0.29031(19)
O11 O -0.05207(15) 0.1471(3) 0.29228(18)
O12 O -0.00681(19) 0.1451(4) 0.1982(2)
O13 O -0.00272(12) 0.0271(2) 0.34587(18)
O14 O 0.04487(13) -0.1019(2) 0.36576(16)
O15 O -0.04545(13) -0.1059(2) 0.37189(16)
O16 O -0.00599(14) -0.0839(3) 0.27288(18)
O17 O 0.06335(15) -0.2659(3) 0.49395(19)
O18 O 0.10162(13) -0.1122(2) 0.45955(16)
O19 O 0.00175(11) -0.1258(2) 0.47645(17)
O20 O 0.00238(12) -0.2604(3) 0.39201(18)
O21 O -0.05891(13) 0.0311(2) 0.44399(16)
O22 O -0.00416(12) 0.1668(3) 0.40041(18)
O23 O -0.10369(14) 0.0230(2) 0.32862(17)
O24 O -0.10603(15) 0.1760(3) 0.3964(2)
O25 O 0.05746(13) 0.0388(2) 0.43956(16)
O26 O 0.09753(14) 0.0353(2) 0.32231(17)
O27 O 0.09848(15) 0.1875(3) 0.3905(2)
O28 O -0.09850(13) -0.1243(2) 0.46659(17)
O29 O -0.16218(15) 0.0061(3) 0.4319(2)
O30 O 0.16032(15) 0.0252(3) 0.4233(2)
O31 O -0.05133(15) -0.2744(3) 0.49905(18)
O32 O -0.24146(15) -0.1193(3) 0.34169(19)
O33 O 0.24663(17) -0.1173(3) 0.3367(2)
N1 N -0.2500 -0.2500 0.2492(3)
N2 N -0.2500 -0.2500 -0.0637(3)
N3 N 0.2500 -0.2500 0.2409(3)
N4 N 0.2500 -0.2500 -0.0716(3)
C1 C -0.2226(3) -0.3012(6) 0.2185(3)
H1 H -0.2031 -0.3380 0.2388
C2 C -0.2214(3) -0.3031(6) 0.1579(3)
H2 H -0.2013 -0.3403 0.1387
C3 C -0.2500 -0.2500 0.1256(4)
C4 C -0.2153(3) -0.2881(5) -0.0328(3)
H3 H -0.1908 -0.3148 -0.0532
C5 C -0.2140(3) -0.2896(5) 0.0280(3)
H4 H -0.1892 -0.3170 0.0474
C6 C -0.2500 -0.2500 0.0600(4)
C7 C 0.2164(3) -0.2893(6) 0.2102(3)
H5 H 0.1923 -0.3170 0.2305
C8 C 0.2155(3) -0.2914(7) 0.1494(3)
H6 H 0.1914 -0.3209 0.1302
C9 C 0.2500 -0.2500 0.1173(4)
C10 C 0.2129(3) -0.2793(6) -0.0411(3)
H7 H 0.1865 -0.3000 -0.0615
C11 C 0.2117(3) -0.2807(7) 0.0199(3)
H8 H 0.1851 -0.3022 0.0393
C12 C 0.2500 -0.2500 0.0511(4)
Mo1D Mo -0.049520(16) 0.20101(3) 0.56080(2)
Mo2D Mo 0.066809(16) -0.10353(3) 0.62625(2)
Mo3D Mo -0.060182(16) -0.11225(3) 0.63049(2)
Mo4D Mo 0.110690(15) 0.03223(3) 0.59635(2)
Mo5D Mo -0.109930(16) 0.01876(3) 0.60323(2)
Mo6D Mo 0.044240(16) 0.20750(3) 0.55656(2)
Ni2F Ni -0.2500 -0.2500 -0.15798(4)
Ni2E Ni 0.2500 0.2500 0.65798(4)
Ni3F Ni 0.2500 -0.2500 -0.16616(4)
Ni3E Ni -0.2500 0.2500 0.66616(4)
P1D P 0.13134(5) 0.21924(9) 0.65679(6)
P2D P -0.13351(5) 0.20347(9) 0.66486(6)
P3D P 0.00855(6) -0.18598(10) 0.73897(7)
P4D P 0.00200(4) 0.06720(8) 0.66044(6)
O1D O 0.17663(14) 0.2701(3) 0.65939(18)
O1A O -0.32337(14) -0.2299(3) 0.34061(18)
O2D O 0.09564(15) 0.2549(2) 0.61223(19)
O3D O 0.14261(14) 0.1272(2) 0.64485(18)
O4D O 0.10565(17) 0.2184(3) 0.7190(2)
O5D O -0.17809(14) 0.2557(3) 0.66797(19)
O5A O 0.32191(14) -0.2443(3) 0.33203(19)
O6D O -0.09782(15) 0.2419(3) 0.62150(19)
O7D O -0.14546(14) 0.1124(2) 0.64917(19)
O8D O -0.10968(17) 0.2022(3) 0.7279(2)
O9D O 0.01828(19) -0.2776(3) 0.7450(2)
O10D O -0.03997(15) -0.1667(3) 0.70969(19)
O11D O 0.05207(15) -0.1471(3) 0.70772(18)
O12D O 0.00681(19) -0.1451(4) 0.8018(2)
O13D O 0.00272(12) -0.0271(2) 0.65413(18)
O14D O -0.04487(13) 0.1019(2) 0.63424(16)
O15D O 0.04545(13) 0.1059(2) 0.62811(16)
O16D O 0.00599(14) 0.0839(3) 0.72712(18)
O17D O -0.06335(15) 0.2659(3) 0.50605(19)
O18D O -0.10162(13) 0.1122(2) 0.54045(16)
O19D O -0.00175(11) 0.1258(2) 0.52355(17)
O20D O -0.00238(12) 0.2604(3) 0.60799(18)
O21D O 0.05891(13) -0.0311(2) 0.55601(16)
O22D O 0.00416(12) -0.1668(3) 0.59959(18)
O23D O 0.10369(14) -0.0230(2) 0.67138(17)
O24D O 0.10603(15) -0.1760(3) 0.6036(2)
O25D O -0.05746(13) -0.0388(2) 0.56044(16)
O26D O -0.09753(14) -0.0353(2) 0.67769(17)
O27D O -0.09848(15) -0.1875(3) 0.6095(2)
O28D O 0.09850(13) 0.1243(2) 0.53341(17)
O29D O 0.16218(15) -0.0061(3) 0.5681(2)
O30D O -0.16032(15) -0.0252(3) 0.5767(2)
O31D O 0.05133(15) 0.2744(3) 0.50095(18)
O32A O -0.25854(15) -0.3807(3) 0.34169(19)
O33A O 0.25337(17) -0.3827(3) 0.3367(2)
N2F N -0.2500 -0.2500 0.4363(3)
N4F N 0.2500 -0.2500 0.4284(3)
C1A C -0.2774(3) -0.1988(6) 0.2185(3)
H1A H -0.2969 -0.1620 0.2388
C2A C -0.2786(3) -0.1969(6) 0.1579(3)
H2A H -0.2987 -0.1597 0.1387
C4A C -0.2847(3) -0.2119(5) -0.0328(3)
H3A H -0.3092 -0.1852 -0.0532
C5A C -0.2860(3) -0.2104(5) 0.0280(3)
H4A H -0.3108 -0.1830 0.0474
C7A C 0.2836(3) -0.2107(6) 0.2102(3)
H5A H 0.3077 -0.1830 0.2305
C8A C 0.2845(3) -0.2086(7) 0.1494(3)
H6A H 0.3086 -0.1791 0.1302
C10A C 0.2871(3) -0.2207(6) -0.0411(3)
H7A H 0.3135 -0.2000 -0.0615
C11A C 0.2883(3) -0.2193(7) 0.0199(3)
H8A H 0.3149 -0.1978 0.0393
N5 N -0.2912(3) 0.9509(5) 0.4355(3)
N6 N -0.4016(4) 0.9977(6) 0.7109(4)
C13 C -0.2736(3) 1.0032(6) 0.4764(5)
H9 H -0.2455 1.0323 0.4680
C14 C -0.2950(3) 1.0155(6) 0.5296(4)
H10 H -0.2822 1.0533 0.5561
C15 C -0.3367(3) 0.9704(4) 0.5437(3)
C16 C -0.3317(3) 0.9098(5) 0.4481(4)
H11 H -0.3444 0.8744 0.4200
C17 C -0.3552(3) 0.9174(5) 0.5006(4)
H12 H -0.3833 0.8875 0.5076
C18 C -0.3609(3) 0.9783(5) 0.6013(3)
C19 C -0.3622(3) 1.0559(6) 0.6303(3)
H13 H -0.3488 1.1025 0.6129
C20 C -0.3836(4) 1.0616(7) 0.6845(4)
H14 H -0.3852 1.1130 0.7027
C21 C -0.4025(6) 0.9179(8) 0.6841(6)
H15 H -0.4161 0.8724 0.7027
C22 C -0.3817(4) 0.9113(6) 0.6280(4)
H16 H -0.3821 0.8606 0.6088
O34 O -0.4346(2) 0.0046(5) 0.3080(3)
loop_
_geom_bond_atom_site_label_1
_geom_bond_atom_site_label_2
_geom_bond_site_symmetry_1
_geom_bond_site_symmetry_2
Mo1 Mo6 1_555 1_555
Mo2 Mo4 1_555 1_555
Mo3 Mo5 1_555 1_555
Mo4 O3 1_555 1_555
Mo5 O7 1_555 1_555
Mo6 O2 1_555 1_555
Ni1 O19 1_555 1_555
Ni2 O1 1_555 1_555
Ni3 O5 1_555 1_555
P1 O1 1_555 1_555
P2 O5 1_555 1_555
P3 O9 1_555 1_555
P4 O13 1_555 1_555
O2 P1 1_555 1_555
O3 P1 1_555 1_555
O4 P1 1_555 1_555
O6 Mo1 1_555 1_555
O7 P2 1_555 1_555
O8 P2 1_555 1_555
O10 Mo3 1_555 1_555
O11 Mo2 1_555 1_555
O12 P3 1_555 1_555
O13 Mo2 1_555 1_555
O14 Mo1 1_555 1_555
O15 Mo4 1_555 1_555
O16 P4 1_555 1_555
O17 Mo1 1_555 1_555
O18 Mo1 1_555 1_555
O19 Mo1 1_555 1_555
O20 Mo1 1_555 1_555
O21 Mo2 1_555 1_555
O22 Mo2 1_555 1_555
O23 Mo2 1_555 1_555
O24 Mo2 1_555 1_555
O25 Mo3 1_555 1_555
O26 Mo3 1_555 1_555
O27 Mo3 1_555 1_555
O28 Mo4 1_555 1_555
O29 Mo4 1_555 1_555
O30 Mo5 1_555 1_555
O31 Mo6 1_555 1_555
O32 Ni2 1_555 1_555
O33 Ni3 1_555 1_555
N1 Ni2 1_555 1_555
N2 C4 1_555 1_555
N3 Ni3 1_555 1_555
N4 C10 1_555 1_555
N5 C13 1_555 1_555
N6 C20 1_555 1_555
C1 N1 1_555 1_555
H1 C1 1_555 1_555
C2 C1 1_555 1_555
H2 C2 1_555 1_555
C3 C2 1_555 1_555
C4 H3 1_555 1_555
C5 C4 1_555 1_555
H4 C5 1_555 1_555
C6 C3 1_555 1_555
C7 N3 1_555 1_555
H5 C7 1_555 1_555
C8 C7 1_555 1_555
H6 C8 1_555 1_555
C9 C8 1_555 1_555
C10 H7 1_555 1_555
C11 C10 1_555 1_555
H8 C11 1_555 1_555
C12 C9 1_555 1_555
C13 H9 1_555 1_555
C14 C13 1_555 1_555
H10 C14 1_555 1_555
C15 C14 1_555 1_555
C16 N5 1_555 1_555
H11 C16 1_555 1_555
C17 C15 1_555 1_555
H12 C17 1_555 1_555
C18 C15 1_555 1_555
C19 C18 1_555 1_555
H13 C19 1_555 1_555
C20 C19 1_555 1_555
H14 C20 1_555 1_555
C21 N6 1_555 1_555
H15 C21 1_555 1_555
C22 C18 1_555 1_555
H16 C22 1_555 1_555
Mo1D Mo6D 1_555 1_555
Mo2D Mo4D 1_555 1_555
Mo3D Mo5D 1_555 1_555
Mo4D O3D 1_555 1_555
Mo5D O7D 1_555 1_555
Mo6D O2D 1_555 1_555
Ni2F N2 1_555 1_555
Ni2E O1D 1_555 1_555
Ni3F N4 1_555 1_555
Ni3E O5D 1_555 1_555
P1D O1D 1_555 1_555
P2D O5D 1_555 1_555
P3D O9D 1_555 1_555
P4D O13D 1_555 1_555
O1A Ni2 1_555 1_555
O2D P1D 1_555 1_555
O3D P1D 1_555 1_555
O4D P1D 1_555 1_555
O5A Ni3 1_555 1_555
O6D Mo1D 1_555 1_555
O7D P2D 1_555 1_555
O8D P2D 1_555 1_555
O10D Mo3D 1_555 1_555
O11D Mo2D 1_555 1_555
O12D P3D 1_555 1_555
O13D Mo2D 1_555 1_555
O14D Mo1D 1_555 1_555
O15D Mo4D 1_555 1_555
O16D P4D 1_555 1_555
O17D Mo1D 1_555 1_555
O18D Mo1D 1_555 1_555
O19D Ni1 1_555 1_555
O20D Mo1D 1_555 1_555
O21D Ni1 1_555 1_555
O22D Mo2D 1_555 1_555
O23D Mo2D 1_555 1_555
O24D Mo2D 1_555 1_555
O25D Ni1 1_555 1_555
O26D Mo3D 1_555 1_555
O27D Mo3D 1_555 1_555
O28D Mo4D 1_555 1_555
O29D Mo4D 1_555 1_555
O30D Mo5D 1_555 1_555
O31D Mo6D 1_555 1_555
O32A Ni2 1_555 1_555
O33A Ni3 1_555 1_555
N2F Ni2 1_555 1_555
N4F Ni3 1_555 1_555
C1A N1 1_555 1_555
H1A C1A 1_555 1_555
C2A C3 1_555 1_555
H2A C2A 1_555 1_555
C4A N2 1_555 1_555
H3A C4A 1_555 1_555
C5A C6 1_555 1_555
H4A C5A 1_555 1_555
C7A N3 1_555 1_555
H5A C7A 1_555 1_555
C8A C9 1_555 1_555
H6A C8A 1_555 1_555
C10A N4 1_555 1_555
H7A C10A 1_555 1_555
C11A C12 1_555 1_555
H8A C11A 1_555 1_555
Mo3 O13 1_555 1_555
Mo3 O22 1_555 1_555
Mo4 O21 1_555 1_555
Mo4 O23 1_555 1_555
Mo5 O14 1_555 1_555
Mo5 O18 1_555 1_555
Mo5 O25 1_555 1_555
Mo5 O26 1_555 1_555
Mo6 O15 1_555 1_555
Mo6 O19 1_555 1_555
Mo6 O20 1_555 1_555
Mo6 O28 1_555 1_555
Ni1 O21 1_555 1_555
Ni1 O25 1_555 1_555
P2 O6 1_555 1_555
P3 O10 1_555 1_555
P3 O11 1_555 1_555
P4 O14 1_555 1_555
P4 O15 1_555 1_555
C5 C6 1_555 1_555
C11 C12 1_555 1_555
C16 C17 1_555 1_555
C21 C22 1_555 1_555
Mo1D O19D 1_555 1_555
Mo2D O21D 1_555 1_555
Mo3D O13D 1_555 1_555
Mo3D O22D 1_555 1_555
Mo3D O25D 1_555 1_555
Mo4D O21D 1_555 1_555
Mo4D O23D 1_555 1_555
Mo5D O14D 1_555 1_555
Mo5D O18D 1_555 1_555
Mo5D O25D 1_555 1_555
Mo5D O26D 1_555 1_555
Mo6D O15D 1_555 1_555
Mo6D O19D 1_555 1_555
Mo6D O20D 1_555 1_555
Mo6D O28D 1_555 1_555
P2D O6D 1_555 1_555
P3D O10D 1_555 1_555
P3D O11D 1_555 1_555
P4D O14D 1_555 1_555
P4D O15D 1_555 1_555
C1A C2A 1_555 1_555
C4A C5A 1_555 1_555
C7A C8A 1_555 1_555
C10A C11A 1_555 1_555

#END
