
#######################################################################
#
#                 Cambridge Crystallographic Data Centre
#                                CCDC 
#
#######################################################################
#
# If this CIF has been generated from an entry in the Cambridge 
# Structural Database, then it will include bibliographic, chemical, 
# crystal, experimental, refinement or atomic coordinate data resulting 
# from the CCDC's data processing and validation procedures.
#
#######################################################################

data_HICZEA
_symmetry_cell_setting           orthorhombic
_symmetry_space_group_name_H-M   'C 2 2 21'
_symmetry_Int_Tables_number      20
_space_group_name_Hall           'C 2n 2'
loop_
_symmetry_equiv_pos_site_id
_symmetry_equiv_pos_as_xyz
1 x,y,z
2 -x,-y,1/2+z
3 x,-y,-z
4 -x,y,1/2-z
5 1/2+x,1/2+y,z
6 1/2-x,1/2-y,1/2+z
7 1/2+x,1/2-y,-z
8 1/2-x,1/2+y,1/2-z
_cell_length_a                   14.6650(12)
_cell_length_b                   16.7949(10)
_cell_length_c                   16.7292(9)
_cell_angle_alpha                90
_cell_angle_beta                 90
_cell_angle_gamma                90
_cell_volume                     4120.36
loop_
_atom_site_label
_atom_site_type_symbol
_atom_site_fract_x
_atom_site_fract_y
_atom_site_fract_z
O9 O 0.0458(18) 0.0724(16) 0.1240(18)
H11 H 0.0149 0.1145 0.1345
H12 H 0.0893 0.0871 0.1061
O10 O 0.979(4) 0.0000 0.0000
H13 H 0.9938 0.0228 0.0363
H13B H 0.9938 -0.0228 -0.0363
O11 O 1.0000 0.971(4) 0.2500
H14 H 0.9860 1.0024 0.2880
H14C H 1.0140 1.0024 0.2120
N1 N 0.204(2) 0.2135(15) 0.6423(15)
H15 H 0.1811 0.2333 0.6731
H16 H 0.2629 0.2291 0.6442
C19 C 0.166(3) 0.2385(18) 0.5664(18)
H17 H 0.1892 0.2109 0.5288
H18 H 0.1799 0.2937 0.5576
H19 H 0.1014 0.2311 0.5673
C20 C 0.201(3) 0.1286(17) 0.6579(19)
H20 H 0.2267 0.1177 0.7094
H21 H 0.2281 0.1059 0.6251
H22 H 0.1383 0.1113 0.6571
Pr1 Pr 1.0000 0.33163(5) 0.2500
Pr2 Pr 0.83765(6) 0.5000 0.0000
O1 O 0.9486(9) 0.4016(8) 0.0226(5)
O2 O 1.0460(6) 0.3545(5) 0.1129(5)
O3 O 1.2292(10) 0.1147(9) 0.0332(8)
O4 O 1.2232(11) 0.0745(9) -0.0857(8)
C1 C 1.0392(10) 0.2712(9) -0.2390(11)
H1 H 1.0612 0.2356 -0.2580
H2 H 1.0671 0.3174 -0.2624
O5 O 0.8685(6) 0.5351(5) 0.1379(5)
O6 O 0.8950(8) 0.4356(7) 0.2219(6)
O7 O 0.5701(10) 0.7210(9) 0.3347(8)
O8 O 0.6451(8) 0.7506(6) 0.2259(6)
C2 C 0.7771(10) 0.5355(9) 0.4880(11)
H3 H 0.7350 0.5562 0.5102
H4 H 0.8313 0.5589 0.5100
C3 C 1.0107(13) 0.3569(8) 0.0434(8)
C4 C 1.2004(14) 0.1233(12) -0.0366(11)
C5 C 1.0501(9) 0.3064(8) -0.0192(7)
C6 C 1.1085(8) 0.2428(7) 0.0028(11)
H5 H 1.1238 0.2351 0.0562
C7 C 1.1427(10) 0.1922(10) -0.0555(8)
C8 C 1.1182(13) 0.2071(11) -0.1356(9)
H6 H 1.1371 0.1716 -0.1748
C9 C 1.0664(13) 0.2733(11) -0.1582(11)
C10 C 1.0255(10) 0.3155(11) -0.0968(9)
H7 H 0.9794 0.3515 -0.1093
C11 C 0.8625(9) 0.5033(10) 0.2057(7)
C12 C 0.6334(11) 0.7065(9) 0.2878(8)
C13 C 0.8129(10) 0.5459(7) 0.2686(7)
C14 C 0.7542(9) 0.6067(7) 0.2490(11)
H8 H 0.7500 0.6238 0.1963
C15 C 0.7010(11) 0.6430(9) 0.3078(8)
C16 C 0.7138(14) 0.6190(11) 0.3888(9)
H9 H 0.6819 0.6406 0.4253
C17 C 0.7763(13) 0.5622(11) 0.4090(10)
C18 C 0.8229(13) 0.5197(10) 0.3482(9)
H10 H 0.8590 0.4758 0.3604
O1C O 1.0514(9) 0.4016(8) -0.5226(5)
O2C O 0.9540(6) 0.3545(5) -0.6129(5)
O3C O 0.7708(10) 0.1147(9) -0.5332(8)
O4C O 0.7768(11) 0.0745(9) -0.4143(8)
C1C C 0.9608(10) 0.2712(9) -0.2610(11)
H1C H 0.9388 0.2356 -0.2420
H2C H 0.9329 0.3174 -0.2376
C3C C 0.9893(13) 0.3569(8) -0.5434(8)
C4C C 0.7996(14) 0.1233(12) -0.4634(11)
C5C C 0.9499(9) 0.3064(8) -0.4808(7)
C6C C 0.8915(8) 0.2428(7) -0.5028(11)
H5C H 0.8762 0.2351 -0.5562
C7C C 0.8573(10) 0.1922(10) -0.4445(8)
C8C C 0.8818(13) 0.2071(11) -0.3644(9)
H6C H 0.8629 0.1716 -0.3252
C9C C 0.9336(13) 0.2733(11) -0.3418(11)
C10C C 0.9745(10) 0.3155(11) -0.4032(9)
H7C H 1.0206 0.3515 -0.3907
O5B O 0.8685(6) 0.4649(5) 0.8621(5)
O6B O 0.8950(8) 0.5644(7) 0.7781(6)
O7B O 0.5701(10) 0.2790(9) 0.6653(8)
O8B O 0.6451(8) 0.2494(6) 0.7741(6)
C2B C 0.7771(10) 0.4645(9) 0.5120(11)
H3B H 0.7350 0.4438 0.4898
H4B H 0.8313 0.4411 0.4900
C11B C 0.8625(9) 0.4967(10) 0.7943(7)
C12B C 0.6334(11) 0.2935(9) 0.7122(8)
C13B C 0.8129(10) 0.4541(7) 0.7314(7)
C14B C 0.7542(9) 0.3933(7) 0.7510(11)
H8B H 0.7500 0.3762 0.8037
C15B C 0.7010(11) 0.3570(9) 0.6922(8)
C16B C 0.7138(14) 0.3810(11) 0.6112(9)
H9B H 0.6819 0.3594 0.5747
C17B C 0.7763(13) 0.4378(11) 0.5910(10)
C18B C 0.8229(13) 0.4803(10) 0.6518(9)
H10B H 0.8590 0.5242 0.6396
Pr1_2 Pr 1.0000 0.33163(5) -0.7500
Pr1A Pr 1.0000 0.66837(5) 0.7500
Pr1D Pr 0.5000 0.83163(5) 0.2500
Pr1E Pr 0.5000 0.16837(5) 0.7500
Pr2_2 Pr 0.83765(6) 0.5000 1.0000
Pr2A Pr 1.16235(6) 0.5000 -0.5000
Pr2D Pr 1.33765(6) 0.0000 0.0000
Pr2E Pr 0.66235(6) 0.0000 -0.5000
O1B O 0.9486(9) 0.5984(8) -0.0226(5)
O2C_2 O 0.9540(6) 0.3545(5) 0.3871(5)
O3D O 0.7292(10) 0.6147(9) 0.0332(8)
O3F O 0.7292(10) 0.3853(9) -0.0332(8)
O4D O 0.7232(11) 0.5745(9) -0.0857(8)
O4F O 0.7232(11) 0.4255(9) 0.0857(8)
O5B_2 O 0.8685(6) 0.4649(5) -0.1379(5)
O6C O 1.1050(8) 0.4356(7) 0.2781(6)
O7D O 1.0701(10) 0.2210(9) 0.3347(8)
O7G O 0.9299(10) 0.2210(9) 0.1653(8)
O8D O 1.1451(8) 0.2506(6) 0.2259(6)
O8G O 0.8549(8) 0.2506(6) 0.2741(6)
O12? O 1.0392(10) 0.2712(9) -0.2390(11)
O13? O 0.7771(10) 0.5355(9) 0.4880(11)
loop_
_geom_bond_atom_site_label_1
_geom_bond_atom_site_label_2
_geom_bond_site_symmetry_1
_geom_bond_site_symmetry_2
Pr1 O2 1_555 1_555
Pr2 O1 1_555 1_555
O1 C3 1_555 1_555
O2 C3 1_555 1_555
O3 C4 1_555 1_555
O4 C4 1_555 1_555
C1 H1 1_555 1_555
H2 C1 1_555 1_555
O5 Pr2 1_555 1_555
O6 Pr1 1_555 1_555
O7 C12 1_555 1_555
O8 C12 1_555 1_555
C2 H3 1_555 1_555
H4 C2 1_555 1_555
C3 C5 1_555 1_555
C4 C7 1_555 1_555
C5 C6 1_555 1_555
C6 H5 1_555 1_555
C7 C6 1_555 1_555
C8 C7 1_555 1_555
H6 C8 1_555 1_555
C9 C1 1_555 1_555
C10 C5 1_555 1_555
H7 C10 1_555 1_555
C11 O5 1_555 1_555
C12 C15 1_555 1_555
C13 C11 1_555 1_555
C14 C13 1_555 1_555
H8 C14 1_555 1_555
C15 C14 1_555 1_555
C16 C15 1_555 1_555
H9 C16 1_555 1_555
C17 C2 1_555 1_555
C18 C13 1_555 1_555
H10 C18 1_555 1_555
O9 H11 1_555 1_555
H12 O9 1_555 1_555
O10 H13 1_555 1_555
O11 H14 1_555 1_555
N1 H15 1_555 1_555
H16 N1 1_555 1_555
C19 N1 1_555 1_555
H17 C19 1_555 1_555
H18 C19 1_555 1_555
H19 C19 1_555 1_555
C20 N1 1_555 1_555
H20 C20 1_555 1_555
H21 C20 1_555 1_555
H22 C20 1_555 1_555
O1C C3C 1_555 1_555
O2C C3C 1_555 1_555
O3C C4C 1_555 1_555
O4C C4C 1_555 1_555
C1C C1 1_555 1_555
H1C C1C 1_555 1_555
H2C C1C 1_555 1_555
C3C C5C 1_555 1_555
C4C C7C 1_555 1_555
C5C C6C 1_555 1_555
C6C H5C 1_555 1_555
C7C C6C 1_555 1_555
C8C C7C 1_555 1_555
H6C C8C 1_555 1_555
C9C C1C 1_555 1_555
C10C C5C 1_555 1_555
H7C C10C 1_555 1_555
O5B C11B 1_555 1_555
O6B C11B 1_555 1_555
O7B C12B 1_555 1_555
O8B C12B 1_555 1_555
C2B C2 1_555 1_555
H3B C2B 1_555 1_555
H4B C2B 1_555 1_555
C11B C13B 1_555 1_555
C12B C15B 1_555 1_555
C13B C14B 1_555 1_555
C14B H8B 1_555 1_555
C15B C14B 1_555 1_555
C16B C15B 1_555 1_555
H9B C16B 1_555 1_555
C17B C2B 1_555 1_555
C18B C13B 1_555 1_555
H10B C18B 1_555 1_555
Pr1_2 O2C 1_555 1_555
Pr1A O6B 1_555 1_555
Pr1D O7 1_555 1_555
Pr1E O7B 1_555 1_555
Pr2_2 O5B 1_555 1_555
Pr2A O1C 1_555 1_555
Pr2D O3 1_555 1_555
Pr2E O3C 1_555 1_555
O1B Pr2 1_555 1_555
O2C_2 Pr1 1_555 1_555
O3D Pr2 1_555 1_555
O3F Pr2 1_555 1_555
O4D Pr2 1_555 1_555
O4F Pr2 1_555 1_555
O5B_2 Pr2 1_555 1_555
O6C Pr1 1_555 1_555
O7D Pr1 1_555 1_555
O7G Pr1 1_555 1_555
O8D Pr1 1_555 1_555
O8G Pr1 1_555 1_555
H13B O10 1_555 1_555
H14C O11 1_555 1_555
O4 Pr2D 1_555 1_555
O6 C11 1_555 1_555
O8 Pr1D 1_555 1_555
C8 C9 1_555 1_555
C9 C10 1_555 1_555
C16 C17 1_555 1_555
C17 C18 1_555 1_555
O4C Pr2E 1_555 1_555
C8C C9C 1_555 1_555
C9C C10C 1_555 1_555
O8B Pr1E 1_555 1_555
C16B C17B 1_555 1_555
C17B C18B 1_555 1_555

#END
