
#######################################################################
#
#                 Cambridge Crystallographic Data Centre
#                                CCDC 
#
#######################################################################
#
# If this CIF has been generated from an entry in the Cambridge 
# Structural Database, then it will include bibliographic, chemical, 
# crystal, experimental, refinement or atomic coordinate data resulting 
# from the CCDC's data processing and validation procedures.
#
#######################################################################

data_HICZAW
_symmetry_cell_setting           orthorhombic
_symmetry_space_group_name_H-M   'C 2 2 21'
_symmetry_Int_Tables_number      20
_space_group_name_Hall           'C 2n 2'
loop_
_symmetry_equiv_pos_site_id
_symmetry_equiv_pos_as_xyz
1 x,y,z
2 -x,-y,1/2+z
3 x,-y,-z
4 -x,y,1/2-z
5 1/2+x,1/2+y,z
6 1/2-x,1/2-y,1/2+z
7 1/2+x,1/2-y,-z
8 1/2-x,1/2+y,1/2-z
_cell_length_a                   14.6026(4)
_cell_length_b                   16.6301(4)
_cell_length_c                   16.6617(5)
_cell_angle_alpha                90
_cell_angle_beta                 90
_cell_angle_gamma                90
_cell_volume                     4046.17
loop_
_atom_site_label
_atom_site_type_symbol
_atom_site_fract_x
_atom_site_fract_y
_atom_site_fract_z
O11 O 0.4557(15) 0.4314(13) 0.6243(16)
H11 H 0.4876 0.3901 0.6355
H12 H 0.4065 0.4203 0.5994
O12 O 0.518(4) 0.5000 0.5000
H13 H 0.4968 0.4995 0.5412
H13B H 0.4968 0.5005 0.4588
O13 O 0.5000 0.531(3) 0.7500
H14 H 0.4845 0.5029 0.7094
H14C H 0.5155 0.5029 0.7906
N1 N 0.7084(16) 0.7096(13) 0.6414(14)
H15 H 0.6904 0.7351 0.6789
H16 H 0.7695 0.7162 0.6383
C17 C 0.688(2) 0.6223(13) 0.6556(16)
H17 H 0.7177 0.5958 0.6251
H18 H 0.6241 0.6120 0.6471
H19 H 0.7041 0.6085 0.7097
C18 C 0.666(2) 0.7412(14) 0.5659(16)
H20 H 0.6588 0.7050 0.5349
H21 H 0.7049 0.7812 0.5424
H22 H 0.6171 0.7608 0.5762
Sm1 Sm 0.5000 0.16801(5) 0.7500
Sm2 Sm 0.66213(5) 0.0000 0.5000
O1 O 0.6316(6) -0.0343(5) 0.6362(5)
O2 O 0.6045(8) 0.0657(6) 0.7218(5)
O3 O 0.8554(7) -0.2514(6) 0.7253(6)
O4 O 0.9335(9) -0.2200(7) 0.8335(7)
O5 O 0.7338(10) -0.0298(8) 0.9870(10)
H1 H 0.7799 -0.0506 1.0074
H2 H 0.6823 -0.0547 1.0127
O6 O 0.5541(8) 0.0960(7) 0.5235(6)
O7 O 0.4553(6) 0.1446(5) 0.6151(5)
O8 O 0.2742(10) 0.4265(8) 0.4155(8)
O9 O 0.2686(10) 0.3848(8) 0.5358(8)
O10 O 0.4637(9) 0.2316(8) 0.2622(11)
H3 H 0.4360 0.2777 0.2374
H4 H 0.4362 0.1851 0.2381
C1 C 0.6361(8) -0.0025(9) 0.7035(6)
C2 C 0.8695(11) -0.2053(8) 0.7871(8)
C3 C 0.6863(9) -0.0459(7) 0.7680(7)
C4 C 0.7461(9) -0.1088(7) 0.7491(11)
H5 H 0.7499 -0.1276 0.6966
C5 C 0.7990(10) -0.1426(8) 0.8075(8)
C6 C 0.7877(13) -0.1198(11) 0.8879(9)
H6 H 0.8191 -0.1429 0.9242
C7 C 0.7269(15) -0.0612(11) 0.9084(10)
C8 C 0.6812(13) -0.0183(10) 0.8468(9)
H7 H 0.6481 0.0278 0.8589
C9 C 0.4899(11) 0.1426(7) 0.5437(7)
C10 C 0.2986(11) 0.3805(10) 0.4659(10)
C11 C 0.4506(8) 0.1941(7) 0.4827(7)
C12 C 0.3911(8) 0.2575(7) 0.5043(10)
H8 H 0.3753 0.2655 0.5578
C13 C 0.3556(11) 0.3087(8) 0.4442(9)
C14 C 0.3788(12) 0.2932(9) 0.3642(10)
H9 H 0.3549 0.3257 0.3239
C15 C 0.4359(13) 0.2313(13) 0.3438(10)
C16 C 0.4760(9) 0.1871(10) 0.4033(9)
H10 H 0.5182 0.1541 0.3909
O1B O 0.6316(6) 0.0343(5) 1.3638(5)
O2B O 0.6045(8) -0.0657(6) 1.2782(5)
O3B O 0.8554(7) 0.2514(6) 1.2747(6)
O4B O 0.9335(9) 0.2200(7) 1.1665(7)
O5B O 0.7338(10) 0.0298(8) 1.0130(10)
H1B H 0.7799 0.0506 0.9926
H2B H 0.6823 0.0547 0.9873
C1B C 0.6361(8) 0.0025(9) 1.2965(6)
C2B C 0.8695(11) 0.2053(8) 1.2129(8)
C3B C 0.6863(9) 0.0459(7) 1.2320(7)
C4B C 0.7461(9) 0.1088(7) 1.2509(11)
H5B H 0.7499 0.1276 1.3034
C5B C 0.7990(10) 0.1426(8) 1.1925(8)
C6B C 0.7877(13) 0.1198(11) 1.1121(9)
H6B H 0.8191 0.1429 1.0758
C7B C 0.7269(15) 0.0612(11) 1.0916(10)
C8B C 0.6812(13) 0.0183(10) 1.1532(9)
H7B H 0.6481 -0.0278 1.1411
O6C O 0.4459(8) 0.0960(7) -0.0235(6)
O7C O 0.5447(6) 0.1446(5) -0.1151(5)
O8C O 0.7258(10) 0.4265(8) 0.0845(8)
O9C O 0.7314(10) 0.3848(8) -0.0358(8)
O10C O 0.5363(9) 0.2316(8) 0.2378(11)
H3C H 0.5640 0.2777 0.2626
H4C H 0.5638 0.1851 0.2619
C9C C 0.5101(11) 0.1426(7) -0.0437(7)
C10C C 0.7014(11) 0.3805(10) 0.0341(10)
C11C C 0.5494(8) 0.1941(7) 0.0173(7)
C12C C 0.6089(8) 0.2575(7) -0.0043(10)
H8C H 0.6247 0.2655 -0.0578
C13C C 0.6444(11) 0.3087(8) 0.0558(9)
C14C C 0.6212(12) 0.2932(9) 0.1358(10)
H9C H 0.6451 0.3257 0.1761
C15C C 0.5641(13) 0.2313(13) 0.1562(10)
C16C C 0.5240(9) 0.1871(10) 0.0967(9)
H10C H 0.4818 0.1541 0.1091
Sm1_2 Sm 0.5000 0.16801(5) -0.2500
Sm1A Sm 0.5000 -0.16801(5) 1.2500
Sm1D Sm 1.0000 -0.33199(5) 0.7500
Sm1E Sm 1.0000 0.33199(5) 1.2500
Sm2_2 Sm 0.66213(5) 0.0000 1.5000
Sm2A Sm 0.33787(5) 0.0000 0.0000
Sm2D Sm 0.16213(5) 0.5000 0.5000
Sm2E Sm 0.83787(5) 0.5000 0.0000
O1B_2 O 0.6316(6) 0.0343(5) 0.3638(5)
O2C O 0.3955(8) 0.0657(6) 0.7782(5)
O3D O 0.3554(7) 0.2486(6) 0.7253(6)
O3G O 0.6446(7) 0.2486(6) 0.7747(6)
O4D O 0.4335(9) 0.2800(7) 0.8335(7)
O4G O 0.5665(9) 0.2800(7) 0.6665(7)
O6B O 0.5541(8) -0.0960(7) 0.4765(6)
O7C_2 O 0.5447(6) 0.1446(5) 0.8849(5)
O8D O 0.7742(10) -0.0735(8) 0.4155(8)
O8F O 0.7742(10) 0.0735(8) 0.5845(8)
O9D O 0.7686(10) -0.1152(8) 0.5358(8)
O9F O 0.7686(10) 0.1152(8) 0.4642(8)
C19? C 0.4637(9) 0.2316(8) 0.2622(11)
C20? C 0.7338(10) -0.0298(8) 0.9870(10)
loop_
_geom_bond_atom_site_label_1
_geom_bond_atom_site_label_2
_geom_bond_site_symmetry_1
_geom_bond_site_symmetry_2
Sm1 O2 1_555 1_555
Sm2 O1 1_555 1_555
O1 C1 1_555 1_555
O2 C1 1_555 1_555
O3 C2 1_555 1_555
O4 C2 1_555 1_555
O5 H1 1_555 1_555
H2 O5 1_555 1_555
O6 Sm2 1_555 1_555
O7 Sm1 1_555 1_555
O8 C10 1_555 1_555
O9 C10 1_555 1_555
O10 H3 1_555 1_555
H4 O10 1_555 1_555
C1 C3 1_555 1_555
C2 C5 1_555 1_555
C3 C4 1_555 1_555
C4 H5 1_555 1_555
C5 C4 1_555 1_555
C6 C5 1_555 1_555
H6 C6 1_555 1_555
C7 O5 1_555 1_555
C8 C3 1_555 1_555
H7 C8 1_555 1_555
C9 O6 1_555 1_555
C10 C13 1_555 1_555
C11 C9 1_555 1_555
C12 C11 1_555 1_555
H8 C12 1_555 1_555
C13 C12 1_555 1_555
C14 C13 1_555 1_555
H9 C14 1_555 1_555
C15 O10 1_555 1_555
C16 C11 1_555 1_555
H10 C16 1_555 1_555
O11 H11 1_555 1_555
H12 O11 1_555 1_555
O12 H13 1_555 1_555
O13 H14 1_555 1_555
N1 H15 1_555 1_555
H16 N1 1_555 1_555
C17 N1 1_555 1_555
H17 C17 1_555 1_555
H18 C17 1_555 1_555
H19 C17 1_555 1_555
C18 N1 1_555 1_555
H20 C18 1_555 1_555
H21 C18 1_555 1_555
H22 C18 1_555 1_555
O1B C1B 1_555 1_555
O2B C1B 1_555 1_555
O3B C2B 1_555 1_555
O4B C2B 1_555 1_555
O5B O5 1_555 1_555
H1B O5B 1_555 1_555
H2B O5B 1_555 1_555
C1B C3B 1_555 1_555
C2B C5B 1_555 1_555
C3B C4B 1_555 1_555
C4B H5B 1_555 1_555
C5B C4B 1_555 1_555
C6B C5B 1_555 1_555
H6B C6B 1_555 1_555
C7B O5B 1_555 1_555
C8B C3B 1_555 1_555
H7B C8B 1_555 1_555
O6C C9C 1_555 1_555
O7C C9C 1_555 1_555
O8C C10C 1_555 1_555
O9C C10C 1_555 1_555
O10C O10 1_555 1_555
H3C O10C 1_555 1_555
H4C O10C 1_555 1_555
C9C C11C 1_555 1_555
C10C C13C 1_555 1_555
C11C C12C 1_555 1_555
C12C H8C 1_555 1_555
C13C C12C 1_555 1_555
C14C C13C 1_555 1_555
H9C C14C 1_555 1_555
C15C O10C 1_555 1_555
C16C C11C 1_555 1_555
H10C C16C 1_555 1_555
Sm1_2 O7C 1_555 1_555
Sm1A O2B 1_555 1_555
Sm1D O3 1_555 1_555
Sm1E O3B 1_555 1_555
Sm2_2 O1B 1_555 1_555
Sm2A O6C 1_555 1_555
Sm2D O8 1_555 1_555
Sm2E O8C 1_555 1_555
O1B_2 Sm2 1_555 1_555
O2C Sm1 1_555 1_555
O3D Sm1 1_555 1_555
O3G Sm1 1_555 1_555
O4D Sm1 1_555 1_555
O4G Sm1 1_555 1_555
O6B Sm2 1_555 1_555
O7C_2 Sm1 1_555 1_555
O8D Sm2 1_555 1_555
O8F Sm2 1_555 1_555
O9D Sm2 1_555 1_555
O9F Sm2 1_555 1_555
H13B O12 1_555 1_555
H14C O13 1_555 1_555
O4 Sm1D 1_555 1_555
O7 C9 1_555 1_555
O9 Sm2D 1_555 1_555
C6 C7 1_555 1_555
C7 C8 1_555 1_555
C14 C15 1_555 1_555
C15 C16 1_555 1_555
O4B Sm1E 1_555 1_555
C6B C7B 1_555 1_555
C7B C8B 1_555 1_555
O9C Sm2E 1_555 1_555
C14C C15C 1_555 1_555
C15C C16C 1_555 1_555

#END
