
#######################################################################
#
#                 Cambridge Crystallographic Data Centre
#                                CCDC 
#
#######################################################################
#
# If this CIF has been generated from an entry in the Cambridge 
# Structural Database, then it will include bibliographic, chemical, 
# crystal, experimental, refinement or atomic coordinate data resulting 
# from the CCDC's data processing and validation procedures.
#
#######################################################################

data_HIDCUU
_symmetry_cell_setting           orthorhombic
_symmetry_space_group_name_H-M   'C 2 2 21'
_symmetry_Int_Tables_number      20
_space_group_name_Hall           'C 2n 2'
loop_
_symmetry_equiv_pos_site_id
_symmetry_equiv_pos_as_xyz
1 x,y,z
2 -x,-y,1/2+z
3 x,-y,-z
4 -x,y,1/2-z
5 1/2+x,1/2+y,z
6 1/2-x,1/2-y,1/2+z
7 1/2+x,1/2-y,-z
8 1/2-x,1/2+y,1/2-z
_cell_length_a                   14.6077(6)
_cell_length_b                   16.5568(6)
_cell_length_c                   16.6303(7)
_cell_angle_alpha                90
_cell_angle_beta                 90
_cell_angle_gamma                90
_cell_volume                     4022.15
loop_
_atom_site_label
_atom_site_type_symbol
_atom_site_fract_x
_atom_site_fract_y
_atom_site_fract_z
O9 O 0.528(4) 0.5000 0.5000
H11 H 0.5158 0.5202 0.4633
H11B H 0.5158 0.4798 0.5367
N1 N 0.2094(16) 0.2066(14) 0.6396(16)
H12 H 0.1980 0.2397 0.6814
H13 H 0.2698 0.2085 0.6294
C19 C 0.184(3) 0.1220(16) 0.662(2)
H14 H 0.1947 0.1135 0.7186
H15 H 0.2139 0.0877 0.6351
H16 H 0.1195 0.1156 0.6515
C20 C 0.158(3) 0.2368(19) 0.567(2)
H17 H 0.2010 0.2332 0.5235
H18 H 0.1409 0.2922 0.5751
H19 H 0.1050 0.2052 0.5552
O10 O 0.5445(16) 0.4313(15) 0.8759(18)
H20 H 0.5129 0.3898 0.8643
H21 H 0.6151 0.4429 0.8791
O11 O 0.5000 0.527(4) 0.7500
H22 H 0.5138 0.4988 0.7831
H22C H 0.4862 0.4988 0.7169
Eu1 Eu 0.66194(5) 0.0000 0.5000
Eu2 Eu 0.5000 0.16804(4) 0.7500
O1 O 0.5538(7) 0.0969(6) 0.5239(6)
O2 O 0.4566(6) 0.1437(5) 0.6148(5)
O3 O 0.2664(9) 0.3848(8) 0.5362(8)
O4 O 0.2719(9) 0.4261(8) 0.4140(8)
O5 O 0.3569(7) 0.2480(6) 0.7251(6)
O6 O 0.4353(7) 0.2804(6) 0.8322(6)
O7 O 0.1310(6) 0.4654(5) 0.6353(6)
O8 O 0.1021(7) 0.5654(7) 0.7219(6)
C1 C 0.2315(10) 0.4688(9) 0.9872(11)
H1 H 0.2847 0.4445 1.0110
H2 H 0.1798 0.4439 1.0128
C2 C 0.4905(11) 0.1424(8) 0.5440(8)
C3 C 0.2968(11) 0.3792(10) 0.4654(10)
C4 C 0.4512(8) 0.1951(7) 0.4830(7)
C5 C 0.4755(10) 0.1858(11) 0.4033(9)
H3 H 0.5193 0.1475 0.3895
C6 C 0.4362(14) 0.2322(13) 0.3437(11)
C7 C 0.3783(12) 0.2932(11) 0.3646(10)
H4 H 0.3535 0.3256 0.3244
C8 C 0.3546(10) 0.3088(9) 0.4456(9)
C9 C 0.3916(8) 0.2579(7) 0.5055(10)
H5 H 0.3767 0.2658 0.5593
C10 C 0.3688(11) 0.2936(9) 0.7859(9)
C11 C 0.1365(8) 0.4984(10) 0.7037(6)
C12 C 0.2991(10) 0.3553(8) 0.8074(8)
C13 C 0.2471(8) 0.3922(7) 0.7488(10)
H6 H 0.2524 0.3756 0.6956
C14 C 0.1874(8) 0.4536(7) 0.7683(7)
C15 C 0.1794(12) 0.4803(9) 0.8468(8)
H7 H 0.1440 0.5253 0.8590
C16 C 0.2258(14) 0.4381(12) 0.9081(10)
C17 C 0.2871(13) 0.3790(11) 0.8873(9)
H8 H 0.3214 0.3541 0.9273
C18 C 0.4648(9) 0.2347(9) 0.2626(10)
H9 H 0.4366 0.2821 0.2404
H10 H 0.4354 0.1895 0.2374
O1C O 0.4462(7) 0.0969(6) -0.0239(6)
O2C O 0.5434(6) 0.1437(5) -0.1148(5)
O3C O 0.7336(9) 0.3848(8) -0.0362(8)
O4C O 0.7281(9) 0.4261(8) 0.0860(8)
C2C C 0.5095(11) 0.1424(8) -0.0440(8)
C3C C 0.7032(11) 0.3792(10) 0.0346(10)
C4C C 0.5488(8) 0.1951(7) 0.0170(7)
C5C C 0.5245(10) 0.1858(11) 0.0967(9)
H3C H 0.4807 0.1475 0.1105
C6C C 0.5638(14) 0.2322(13) 0.1563(11)
C7C C 0.6217(12) 0.2932(11) 0.1354(10)
H4C H 0.6465 0.3256 0.1756
C8C C 0.6454(10) 0.3088(9) 0.0544(9)
C9C C 0.6084(8) 0.2579(7) -0.0055(10)
H5C H 0.6233 0.2658 -0.0593
C18C C 0.5352(9) 0.2347(9) 0.2374(10)
H9C H 0.5634 0.2821 0.2596
H10C H 0.5646 0.1895 0.2626
O5B O 0.3569(7) 0.7520(6) 1.2749(6)
O6B O 0.4353(7) 0.7196(6) 1.1678(6)
O7B O 0.1310(6) 0.5346(5) 1.3647(6)
O8B O 0.1021(7) 0.4346(7) 1.2781(6)
C1B C 0.2315(10) 0.5312(9) 1.0128(11)
H1B H 0.2847 0.5555 0.9890
H2B H 0.1798 0.5561 0.9872
C10B C 0.3688(11) 0.7064(9) 1.2141(9)
C11B C 0.1365(8) 0.5016(10) 1.2963(6)
C12B C 0.2991(10) 0.6447(8) 1.1926(8)
C13B C 0.2471(8) 0.6078(7) 1.2512(10)
H6B H 0.2524 0.6244 1.3044
C14B C 0.1874(8) 0.5464(7) 1.2317(7)
C15B C 0.1794(12) 0.5197(9) 1.1532(8)
H7B H 0.1440 0.4747 1.1410
C16B C 0.2258(14) 0.5619(12) 1.0919(10)
C17B C 0.2871(13) 0.6210(11) 1.1127(9)
H8B H 0.3214 0.6459 1.0727
Eu1A Eu 0.33806(5) 0.0000 0.0000
Eu1D Eu 0.16194(5) 0.5000 0.5000
Eu1D_2 Eu 0.16194(5) 0.5000 1.5000
Eu1E Eu 0.83806(5) 0.5000 0.0000
Eu2_2 Eu 0.5000 0.16804(4) -0.2500
Eu2A Eu 0.5000 0.83196(4) 1.2500
Eu2D Eu 0.0000 0.66804(4) 0.7500
Eu2E Eu 0.0000 0.33196(4) 1.2500
O1B O 0.5538(7) -0.0969(6) 0.4761(6)
O2C_2 O 0.5434(6) 0.1437(5) 0.8852(5)
O3D O 0.7664(9) -0.1152(8) 0.5362(8)
O3F O 0.7664(9) 0.1152(8) 0.4638(8)
O4D O 0.7719(9) -0.0739(8) 0.4140(8)
O4F O 0.7719(9) 0.0739(8) 0.5860(8)
O5C O 0.6431(7) 0.2480(6) 0.7749(6)
O6C O 0.5647(7) 0.2804(6) 0.6678(6)
O7D O 0.6310(6) -0.0346(5) 0.6353(6)
O7F O 0.6310(6) 0.0346(5) 0.3647(6)
O8D O 0.6021(7) 0.0654(7) 0.7219(6)
O8G O 0.3979(7) 0.0654(7) 0.7781(6)
O12? O 0.2315(10) 0.4688(9) 0.9872(11)
O13? O 0.4648(9) 0.2347(9) 0.2626(10)
loop_
_geom_bond_atom_site_label_1
_geom_bond_atom_site_label_2
_geom_bond_site_symmetry_1
_geom_bond_site_symmetry_2
Eu1 O1 1_555 1_555
Eu2 O2 1_555 1_555
O1 C2 1_555 1_555
O2 C2 1_555 1_555
O3 C3 1_555 1_555
O4 C3 1_555 1_555
O5 Eu2 1_555 1_555
O6 Eu2 1_555 1_555
O7 C11 1_555 1_555
O8 C11 1_555 1_555
C1 H1 1_555 1_555
H2 C1 1_555 1_555
C2 C4 1_555 1_555
C3 C8 1_555 1_555
C4 C5 1_555 1_555
C5 H3 1_555 1_555
C6 C5 1_555 1_555
C7 C6 1_555 1_555
H4 C7 1_555 1_555
C8 C7 1_555 1_555
C9 C4 1_555 1_555
H5 C9 1_555 1_555
C10 O5 1_555 1_555
C11 C14 1_555 1_555
C12 C10 1_555 1_555
C13 C12 1_555 1_555
H6 C13 1_555 1_555
C14 C13 1_555 1_555
C15 C14 1_555 1_555
H7 C15 1_555 1_555
C16 C1 1_555 1_555
C17 C12 1_555 1_555
H8 C17 1_555 1_555
C18 C6 1_555 1_555
H9 C18 1_555 1_555
H10 C18 1_555 1_555
O9 H11 1_555 1_555
N1 H12 1_555 1_555
H13 N1 1_555 1_555
C19 N1 1_555 1_555
H14 C19 1_555 1_555
H15 C19 1_555 1_555
H16 C19 1_555 1_555
C20 N1 1_555 1_555
H17 C20 1_555 1_555
H18 C20 1_555 1_555
H19 C20 1_555 1_555
O10 H20 1_555 1_555
H21 O10 1_555 1_555
O11 H22 1_555 1_555
O1C C2C 1_555 1_555
O2C C2C 1_555 1_555
O3C C3C 1_555 1_555
O4C C3C 1_555 1_555
C2C C4C 1_555 1_555
C3C C8C 1_555 1_555
C4C C5C 1_555 1_555
C5C H3C 1_555 1_555
C6C C5C 1_555 1_555
C7C C6C 1_555 1_555
H4C C7C 1_555 1_555
C8C C7C 1_555 1_555
C9C C4C 1_555 1_555
H5C C9C 1_555 1_555
C18C C18 1_555 1_555
H9C C18C 1_555 1_555
H10C C18C 1_555 1_555
O5B C10B 1_555 1_555
O6B C10B 1_555 1_555
O7B C11B 1_555 1_555
O8B C11B 1_555 1_555
C1B C1 1_555 1_555
H1B C1B 1_555 1_555
H2B C1B 1_555 1_555
C10B C12B 1_555 1_555
C11B C14B 1_555 1_555
C12B C13B 1_555 1_555
C13B H6B 1_555 1_555
C14B C13B 1_555 1_555
C15B C14B 1_555 1_555
H7B C15B 1_555 1_555
C16B C1B 1_555 1_555
C17B C12B 1_555 1_555
H8B C17B 1_555 1_555
Eu1A O1C 1_555 1_555
Eu1D O3 1_555 1_555
Eu1D_2 O7B 1_555 1_555
Eu1E O3C 1_555 1_555
Eu2_2 O2C 1_555 1_555
Eu2A O5B 1_555 1_555
Eu2D O8 1_555 1_555
Eu2E O8B 1_555 1_555
O1B Eu1 1_555 1_555
O2C_2 Eu2 1_555 1_555
O3D Eu1 1_555 1_555
O3F Eu1 1_555 1_555
O4D Eu1 1_555 1_555
O4F Eu1 1_555 1_555
O5C Eu2 1_555 1_555
O6C Eu2 1_555 1_555
O7D Eu1 1_555 1_555
O7F Eu1 1_555 1_555
O8D Eu2 1_555 1_555
O8G Eu2 1_555 1_555
H11B O9 1_555 1_555
H22C O11 1_555 1_555
O4 Eu1D 1_555 1_555
O6 C10 1_555 1_555
O7 Eu1D 1_555 1_555
C8 C9 1_555 1_555
C15 C16 1_555 1_555
C16 C17 1_555 1_555
O4C Eu1E 1_555 1_555
C6C C18C 1_555 1_555
C8C C9C 1_555 1_555
O6B Eu2A 1_555 1_555
C15B C16B 1_555 1_555
C16B C17B 1_555 1_555

#END
