
#######################################################################
#
#                 Cambridge Crystallographic Data Centre
#                                CCDC 
#
#######################################################################
#
# If this CIF has been generated from an entry in the Cambridge 
# Structural Database, then it will include bibliographic, chemical, 
# crystal, experimental, refinement or atomic coordinate data resulting 
# from the CCDC's data processing and validation procedures.
#
#######################################################################

data_HIDDAB
_symmetry_cell_setting           orthorhombic
_symmetry_space_group_name_H-M   'C 2 2 21'
_symmetry_Int_Tables_number      20
_space_group_name_Hall           'C 2n 2'
loop_
_symmetry_equiv_pos_site_id
_symmetry_equiv_pos_as_xyz
1 x,y,z
2 -x,-y,1/2+z
3 x,-y,-z
4 -x,y,1/2-z
5 1/2+x,1/2+y,z
6 1/2-x,1/2-y,1/2+z
7 1/2+x,1/2-y,-z
8 1/2-x,1/2+y,1/2-z
_cell_length_a                   14.6702(6)
_cell_length_b                   16.3686(5)
_cell_length_c                   16.5747(7)
_cell_angle_alpha                90
_cell_angle_beta                 90
_cell_angle_gamma                90
_cell_volume                     3980.09
loop_
_atom_site_label
_atom_site_type_symbol
_atom_site_fract_x
_atom_site_fract_y
_atom_site_fract_z
N1 N 0.7144(17) 0.2946(14) 0.6403(16)
H11 H 0.7703 0.2882 0.6285
H12 H 0.7028 0.2664 0.6858
C19 C 0.681(2) 0.3776(16) 0.659(2)
H13 H 0.7017 0.3932 0.7120
H14 H 0.6153 0.3779 0.6585
H15 H 0.7034 0.4156 0.6201
C20 C 0.660(2) 0.264(2) 0.5718(19)
H16 H 0.6076 0.2489 0.5888
H17 H 0.6902 0.2181 0.5476
H18 H 0.6533 0.3015 0.5369
O9 O 0.5000 0.469(4) 0.7500
H19 H 0.4747 0.4946 0.7116
H19C H 0.5253 0.4946 0.7884
O10 O 0.9528(14) 0.0652(16) 0.6255(19)
H20 H 0.8969 0.0786 0.6216
H21 H 0.9843 0.1070 0.6378
O11 O 0.036(4) 0.0000 0.5000
H22 H 0.0125 0.0210 0.5421
H22B H 0.0125 -0.0210 0.4579
Tb1 Tb 0.66159(5) 0.0000 0.5000
Tb2 Tb 0.5000 -0.16773(4) 0.7500
O1 O 0.7622(8) 0.1166(7) 0.5348(7)
O2 O 0.7735(7) 0.0716(7) 0.4162(7)
O3 O 0.9574(6) 0.3571(5) 0.6154(5)
O4 O 1.0552(8) 0.4031(7) 0.5241(5)
O5 O 0.6016(9) -0.0678(6) 0.7225(6)
O6 O 0.6311(6) 0.0347(5) 0.6344(5)
O7 O 0.8590(7) 0.2533(7) 0.7234(6)
O8 O 0.9340(9) 0.2206(8) 0.8307(7)
C1 C 0.9652(10) 0.2663(10) 0.2620(10)
H1 H 0.9377 0.3145 0.2396
H2 H 0.9398 0.2256 0.2393
C2 C 0.7973(9) 0.1203(11) 0.4662(10)
C3 C 0.9926(11) 0.3587(7) 0.5462(7)
C4 C 0.8540(11) 0.1900(9) 0.4453(8)
C5 C 0.8901(8) 0.2419(8) 0.5058(10)
H3 H 0.8752 0.2339 0.5579
C6 C 0.9508(8) 0.3049(7) 0.4846(7)
C7 C 0.9748(10) 0.3144(9) 0.4039(9)
H4 H 1.0109 0.3490 0.3920
C8 C 0.9392(12) 0.2652(11) 0.3434(10)
C9 C 0.8766(12) 0.2052(12) 0.3647(9)
H5 H 0.8491 0.1744 0.3244
C10 C 0.6355(8) 0.0015(10) 0.7028(6)
C11 C 0.8713(10) 0.2057(8) 0.7848(8)
C12 C 0.6873(8) 0.0456(7) 0.7680(7)
C13 C 0.6789(11) 0.0208(9) 0.8463(10)
H6 H 0.6399 -0.0221 0.8593
C14 C 0.7287(13) 0.0597(12) 0.9071(12)
C15 C 0.7845(11) 0.1211(10) 0.8878(11)
H7 H 0.8111 0.1445 0.9231
C16 C 0.8003(10) 0.1444(8) 0.8058(8)
C17 C 0.7466(8) 0.1078(7) 0.7479(11)
H8 H 0.7504 0.1253 0.6946
C18 C 0.7339(10) 0.0307(8) 0.9869(10)
H9 H 0.6833 0.0564 1.0133
H10 H 0.7872 0.0384 0.9941
O1C O 1.2378(8) 0.1166(7) -0.0348(7)
O2C O 1.2265(7) 0.0716(7) 0.0838(7)
O3C O 1.0426(6) 0.3571(5) -0.1154(5)
O4C O 0.9448(8) 0.4031(7) -0.0241(5)
C1C C 1.0348(10) 0.2663(10) 0.2380(10)
H1C H 1.0623 0.3145 0.2604
H2C H 1.0602 0.2256 0.2607
C2C C 1.2027(9) 0.1203(11) 0.0338(10)
C3C C 1.0074(11) 0.3587(7) -0.0462(7)
C4C C 1.1460(11) 0.1900(9) 0.0547(8)
C5C C 1.1099(8) 0.2419(8) -0.0058(10)
H3C H 1.1248 0.2339 -0.0579
C6C C 1.0492(8) 0.3049(7) 0.0154(7)
C7C C 1.0252(10) 0.3144(9) 0.0961(9)
H4C H 0.9891 0.3490 0.1080
C8C C 1.0608(12) 0.2652(11) 0.1566(10)
C9C C 1.1234(12) 0.2052(12) 0.1353(9)
H5C H 1.1509 0.1744 0.1756
O5B O 0.6016(9) 0.0678(6) 1.2775(6)
O6B O 0.6311(6) -0.0347(5) 1.3656(5)
O7B O 0.8590(7) -0.2533(7) 1.2766(6)
O8B O 0.9340(9) -0.2206(8) 1.1693(7)
C10B C 0.6355(8) -0.0015(10) 1.2972(6)
C11B C 0.8713(10) -0.2057(8) 1.2152(8)
C12B C 0.6873(8) -0.0456(7) 1.2320(7)
C13B C 0.6789(11) -0.0208(9) 1.1537(10)
H6B H 0.6399 0.0221 1.1407
C14B C 0.7287(13) -0.0597(12) 1.0929(12)
C15B C 0.7845(11) -0.1211(10) 1.1122(11)
H7B H 0.8111 -0.1445 1.0769
C16B C 0.8003(10) -0.1444(8) 1.1942(8)
C17B C 0.7466(8) -0.1078(7) 1.2521(11)
H8B H 0.7504 -0.1253 1.3054
C18B C 0.7339(10) -0.0307(8) 1.0131(10)
H9B H 0.6833 -0.0564 0.9867
H10B H 0.7872 -0.0384 1.0059
Tb1_2 Tb 0.66159(5) 0.0000 1.5000
Tb1A Tb 1.33841(5) 0.0000 0.0000
Tb1D Tb 1.16159(5) 0.5000 0.5000
Tb1E Tb 0.83841(5) 0.5000 0.0000
Tb2A Tb 0.5000 0.16773(4) 1.2500
Tb2D Tb 1.0000 0.33227(4) -0.2500
Tb2D_2 Tb 1.0000 0.33227(4) 0.7500
Tb2E Tb 1.0000 -0.33227(4) 1.2500
O1B O 0.7622(8) -0.1166(7) 0.4652(7)
O2B O 0.7735(7) -0.0716(7) 0.5838(7)
O3D O 0.4574(6) -0.1429(5) 0.6154(5)
O3G O 0.5426(6) -0.1429(5) 0.8846(5)
O4D O 0.5552(8) -0.0969(7) 0.5241(5)
O4F O 0.5552(8) 0.0969(7) 0.4759(5)
O5C O 0.3984(9) -0.0678(6) 0.7775(6)
O6B_2 O 0.6311(6) -0.0347(5) 0.3656(5)
O7D O 0.3590(7) -0.2467(7) 0.7234(6)
O7G O 0.6410(7) -0.2467(7) 0.7766(6)
O8D O 0.4340(9) -0.2794(8) 0.8307(7)
O8G O 0.5660(9) -0.2794(8) 0.6693(7)
O12? O 0.7339(10) 0.0307(8) 0.9869(10)
O13? O 0.9652(10) 0.2663(10) 0.2620(10)
loop_
_geom_bond_atom_site_label_1
_geom_bond_atom_site_label_2
_geom_bond_site_symmetry_1
_geom_bond_site_symmetry_2
Tb1 O1 1_555 1_555
Tb2 O5 1_555 1_555
O1 C2 1_555 1_555
O2 Tb1 1_555 1_555
O3 C3 1_555 1_555
O4 C3 1_555 1_555
O5 C10 1_555 1_555
O6 Tb1 1_555 1_555
O7 C11 1_555 1_555
O8 C11 1_555 1_555
C1 H1 1_555 1_555
H2 C1 1_555 1_555
C2 O2 1_555 1_555
C3 C6 1_555 1_555
C4 C2 1_555 1_555
C5 C4 1_555 1_555
H3 C5 1_555 1_555
C6 C5 1_555 1_555
C7 C6 1_555 1_555
H4 C7 1_555 1_555
C8 C1 1_555 1_555
C9 C4 1_555 1_555
H5 C9 1_555 1_555
C10 O6 1_555 1_555
C11 C16 1_555 1_555
C12 C10 1_555 1_555
C13 C12 1_555 1_555
H6 C13 1_555 1_555
C14 C13 1_555 1_555
C15 C14 1_555 1_555
H7 C15 1_555 1_555
C16 C15 1_555 1_555
C17 C12 1_555 1_555
H8 C17 1_555 1_555
C18 C14 1_555 1_555
H9 C18 1_555 1_555
H10 C18 1_555 1_555
N1 H11 1_555 1_555
H12 N1 1_555 1_555
C19 N1 1_555 1_555
H13 C19 1_555 1_555
H14 C19 1_555 1_555
H15 C19 1_555 1_555
C20 N1 1_555 1_555
H16 C20 1_555 1_555
H17 C20 1_555 1_555
H18 C20 1_555 1_555
O9 H19 1_555 1_555
O10 H20 1_555 1_555
H21 O10 1_555 1_555
O11 H22 1_555 1_555
O1C C2C 1_555 1_555
O2C C2C 1_555 1_555
O3C C3C 1_555 1_555
O4C C3C 1_555 1_555
C1C C1 1_555 1_555
H1C C1C 1_555 1_555
H2C C1C 1_555 1_555
C2C C4C 1_555 1_555
C3C C6C 1_555 1_555
C4C C5C 1_555 1_555
C5C H3C 1_555 1_555
C6C C5C 1_555 1_555
C7C C6C 1_555 1_555
H4C C7C 1_555 1_555
C8C C1C 1_555 1_555
C9C C4C 1_555 1_555
H5C C9C 1_555 1_555
O5B C10B 1_555 1_555
O6B C10B 1_555 1_555
O7B C11B 1_555 1_555
O8B C11B 1_555 1_555
C10B C12B 1_555 1_555
C11B C16B 1_555 1_555
C12B C13B 1_555 1_555
C13B H6B 1_555 1_555
C14B C13B 1_555 1_555
C15B C14B 1_555 1_555
H7B C15B 1_555 1_555
C16B C15B 1_555 1_555
C17B C12B 1_555 1_555
H8B C17B 1_555 1_555
C18B C18 1_555 1_555
H9B C18B 1_555 1_555
H10B C18B 1_555 1_555
Tb1_2 O6B 1_555 1_555
Tb1A O1C 1_555 1_555
Tb1D O4 1_555 1_555
Tb1E O4C 1_555 1_555
Tb2A O5B 1_555 1_555
Tb2D O3C 1_555 1_555
Tb2D_2 O3 1_555 1_555
Tb2E O7B 1_555 1_555
O1B Tb1 1_555 1_555
O2B Tb1 1_555 1_555
O3D Tb2 1_555 1_555
O3G Tb2 1_555 1_555
O4D Tb1 1_555 1_555
O4F Tb1 1_555 1_555
O5C Tb2 1_555 1_555
O6B_2 Tb1 1_555 1_555
O7D Tb2 1_555 1_555
O7G Tb2 1_555 1_555
O8D Tb2 1_555 1_555
O8G Tb2 1_555 1_555
H19C O9 1_555 1_555
H22B O11 1_555 1_555
O7 Tb2D_2 1_555 1_555
O8 Tb2D_2 1_555 1_555
C7 C8 1_555 1_555
C8 C9 1_555 1_555
C16 C17 1_555 1_555
O2C Tb1A 1_555 1_555
C7C C8C 1_555 1_555
C8C C9C 1_555 1_555
O8B Tb2E 1_555 1_555
C14B C18B 1_555 1_555
C16B C17B 1_555 1_555

#END
