
#######################################################################
#
#                 Cambridge Crystallographic Data Centre
#                                CCDC 
#
#######################################################################
#
# If this CIF has been generated from an entry in the Cambridge 
# Structural Database, then it will include bibliographic, chemical, 
# crystal, experimental, refinement or atomic coordinate data resulting 
# from the CCDC's data processing and validation procedures.
#
#######################################################################

data_HIFGOU
_symmetry_cell_setting           triclinic
_symmetry_space_group_name_H-M   'P -1'
_symmetry_Int_Tables_number      2
_space_group_name_Hall           '-P 1'
loop_
_symmetry_equiv_pos_site_id
_symmetry_equiv_pos_as_xyz
1 x,y,z
2 -x,-y,-z
_cell_length_a                   9.728(4)
_cell_length_b                   11.672(5)
_cell_length_c                   14.554(5)
_cell_angle_alpha                93.466(5)
_cell_angle_beta                 96.367(5)
_cell_angle_gamma                93.175(5)
_cell_volume                     1636.13
loop_
_atom_site_label
_atom_site_type_symbol
_atom_site_fract_x
_atom_site_fract_y
_atom_site_fract_z
Zn1 Zn 0.86462(4) 0.03767(3) 0.02663(2)
O1 O 0.7958(2) -0.0905(2) -0.07018(16)
O2 O 1.0001(2) -0.1499(2) -0.10810(17)
O3 O 0.8266(3) 0.1582(2) -0.06932(17)
O4 O 1.0292(3) 0.0920(2) -0.09606(18)
N1 N 0.7094(3) 0.0304(3) 0.1098(2)
N2 N 0.4781(3) 0.0188(3) 0.4031(2)
C1 C 0.8682(4) -0.1511(3) -0.1172(2)
C2 C 0.7942(4) -0.2306(3) -0.1931(2)
C3 C 0.8609(4) -0.2732(3) -0.2663(2)
H1 H 0.9556 -0.2565 -0.2662
C4 C 0.7885(4) -0.3398(3) -0.3390(3)
H2 H 0.8346 -0.3653 -0.3883
C5 C 0.6463(4) -0.3701(3) -0.3404(3)
C6 C 0.5802(4) -0.3284(3) -0.2656(3)
H3 H 0.4864 -0.3476 -0.2643
C7 C 0.6517(4) -0.2593(3) -0.1939(3)
H4 H 0.6053 -0.2314 -0.1455
C8 C 0.5708(4) -0.4384(3) -0.4199(3)
C9 C 0.5861(4) -0.4063(3) -0.5091(3)
H5 H 0.6454 -0.3425 -0.5152
C10 C 0.4816(4) -0.5365(3) -0.4099(3)
C11 C 0.4610(4) -0.5823(3) -0.3177(3)
H6 H 0.5142 -0.5341 -0.2691
H7 H 0.4910 -0.6592 -0.3161
H8 H 0.3646 -0.5828 -0.3089
C12 C 0.9308(4) 0.1554(3) -0.1129(3)
C13 C 0.9432(4) 0.2325(3) -0.1910(3)
C14 C 1.0650(4) 0.2431(4) -0.2299(3)
H9 H 1.1407 0.2047 -0.2058
C15 C 1.0774(4) 0.3099(4) -0.3048(3)
H10 H 1.1623 0.3189 -0.3280
C16 C 0.9643(4) 0.3631(4) -0.3449(3)
C17 C 0.8425(4) 0.3544(4) -0.3043(3)
H11 H 0.7665 0.3922 -0.3287
C18 C 0.8312(4) 0.2904(4) -0.2279(3)
H12 H 0.7485 0.2863 -0.2014
C19 C 0.9801(4) 0.4315(3) -0.4262(3)
C20 C 1.0861(4) 0.5186(3) -0.4185(3)
H13 H 1.1440 0.5306 -0.3631
C21 C 0.8916(4) 0.4123(3) -0.5099(3)
C22 C 0.7749(4) 0.3188(3) -0.5258(3)
H14 H 0.7715 0.2780 -0.4707
H15 H 0.7910 0.2663 -0.5762
H16 H 0.6884 0.3531 -0.5404
C23 C 0.6026(5) -0.0450(4) 0.0943(3)
H17 H 0.5913 -0.0904 0.0390
C24 C 0.5055(5) -0.0603(5) 0.1565(3)
H18 H 0.4304 -0.1136 0.1416
C25 C 0.5204(4) 0.0023(4) 0.2388(3)
C26 C 0.6303(6) 0.0807(5) 0.2548(3)
H19 H 0.6440 0.1262 0.3101
C27 C 0.7215(6) 0.0933(5) 0.1901(3)
H20 H 0.7951 0.1483 0.2028
C28 C 0.4154(4) -0.0069(4) 0.3084(3)
H21 H 0.3438 0.0460 0.2942
H22 H 0.3719 -0.0842 0.3025
C29 C 0.5521(5) -0.0793(4) 0.4374(3)
H23 H 0.6199 -0.1000 0.3962
H24 H 0.4870 -0.1451 0.4385
C30 C 0.3754(4) 0.0483(4) 0.4656(3)
H25 H 0.3089 -0.0165 0.4669
H26 H 0.3256 0.1129 0.4436
O1A O 0.2042(2) -0.9095(2) -0.92982(16)
C1A C 0.1318(4) -0.8489(3) -0.8828(2)
C2A C 0.2058(4) -0.7694(3) -0.8069(2)
C3A C 0.1391(4) -0.7268(3) -0.7337(2)
H1A H 0.0444 -0.7435 -0.7338
C4A C 0.2115(4) -0.6602(3) -0.6610(3)
H2A H 0.1654 -0.6347 -0.6117
C5A C 0.3537(4) -0.6299(3) -0.6596(3)
C6A C 0.4198(4) -0.6716(3) -0.7344(3)
H3A H 0.5136 -0.6524 -0.7357
C7A C 0.3483(4) -0.7407(3) -0.8061(3)
H4A H 0.3947 -0.7686 -0.8545
C8A C 0.4292(4) -0.5616(3) -0.5801(3)
C9A C 0.4139(4) -0.5937(3) -0.4909(3)
H5A H 0.3546 -0.6575 -0.4848
C10A C 0.5184(4) -0.4635(3) -0.5901(3)
C11A C 0.5390(4) -0.4177(3) -0.6823(3)
H6A H 0.4858 -0.4659 -0.7309
H7A H 0.5090 -0.3408 -0.6839
H8A H 0.6354 -0.4172 -0.6911
O2A O -0.0001(2) -0.8501(2) -0.89190(17)
O3A O 1.1734(3) 0.8418(2) -0.93068(17)
C12A C 1.0692(4) 0.8446(3) -0.8871(3)
C13A C 1.0568(4) 0.7675(3) -0.8090(3)
C14A C 0.9350(4) 0.7569(4) -0.7701(3)
H9A H 0.8593 0.7953 -0.7942
C15A C 0.9226(4) 0.6901(4) -0.6952(3)
H10A H 0.8377 0.6811 -0.6720
C16A C 1.0357(4) 0.6369(4) -0.6551(3)
C17A C 1.1575(4) 0.6456(4) -0.6957(3)
H11A H 1.2335 0.6078 -0.6713
C18A C 1.1688(4) 0.7096(4) -0.7721(3)
H12A H 1.2515 0.7137 -0.7986
C19A C 1.0199(4) 0.5685(3) -0.5738(3)
C20A C 0.9139(4) 0.4814(3) -0.5815(3)
H13A H 0.8560 0.4694 -0.6369
C21A C 1.1084(4) 0.5877(3) -0.4901(3)
C22A C 1.2251(4) 0.6812(3) -0.4742(3)
H14A H 1.2285 0.7220 -0.5293
H15A H 1.2090 0.7337 -0.4238
H16A H 1.3116 0.6469 -0.4596
O4A O 0.9708(3) 0.9080(2) -0.90394(18)
N1A N 0.2906(3) -0.0304(3) 0.8902(2)
N2A N 0.5219(3) -0.0188(3) 0.5969(2)
C23A C 0.3974(5) 0.0450(4) 0.9057(3)
H17A H 0.4087 0.0904 0.9610
C24A C 0.4945(5) 0.0603(5) 0.8435(3)
H18A H 0.5696 0.1136 0.8584
C25A C 0.4796(4) -0.0023(4) 0.7612(3)
C26A C 0.3697(6) -0.0807(5) 0.7452(3)
H19A H 0.3560 -0.1262 0.6899
C27A C 0.2785(6) -0.0933(5) 0.8099(3)
H20A H 0.2049 -0.1483 0.7972
C28A C 0.5846(4) 0.0069(4) 0.6916(3)
H21A H 0.6562 -0.0460 0.7058
H22A H 0.6281 0.0842 0.6975
C29A C 0.4479(5) 0.0793(4) 0.5626(3)
H23A H 0.3801 0.1000 0.6038
H24A H 0.5130 0.1451 0.5615
C30A C 0.6246(4) -0.0483(4) 0.5344(3)
H25A H 0.6911 0.0165 0.5331
H26A H 0.6744 -0.1129 0.5564
Zn1A Zn 0.13538(4) -1.03767(3) -1.02663(2)
Zn1_2 Zn -0.13538(4) -0.96233(3) -0.97337(2)
Zn1_3 Zn 0.86462(4) 1.03767(3) -0.97337(2)
Zn1A_2 Zn 0.13538(4) -0.03767(3) 0.97337(2)
Zn1A_3 Zn 1.13538(4) -0.03767(3) -0.02663(2)
Zn1A_4 Zn 1.13538(4) 0.96233(3) -1.02663(2)
O2_2 O 0.0001(2) -1.1499(2) -1.10810(17)
O2A_2 O 0.9999(2) 0.1499(2) 0.10810(17)
O3A_2 O 0.1734(3) -1.1582(2) -0.93068(17)
O4_2 O 0.0292(3) -0.9080(2) -1.09606(18)
O4A_2 O 0.9708(3) -0.0920(2) 0.09606(18)
N1A_2 N 0.2906(3) -1.0304(3) -1.1098(2)
loop_
_geom_bond_atom_site_label_1
_geom_bond_atom_site_label_2
_geom_bond_site_symmetry_1
_geom_bond_site_symmetry_2
Zn1 O1 1_555 1_555
O1 C1 1_555 1_555
O2 C1 1_555 1_555
O3 Zn1 1_555 1_555
O4 C12 1_555 1_555
N1 Zn1 1_555 1_555
N2 C28 1_555 1_555
C1 C2 1_555 1_555
C2 C3 1_555 1_555
C3 H1 1_555 1_555
C4 C3 1_555 1_555
H2 C4 1_555 1_555
C5 C4 1_555 1_555
C6 C5 1_555 1_555
H3 C6 1_555 1_555
C7 C2 1_555 1_555
H4 C7 1_555 1_555
C8 C5 1_555 1_555
C9 C8 1_555 1_555
H5 C9 1_555 1_555
C10 C8 1_555 1_555
C11 C10 1_555 1_555
H6 C11 1_555 1_555
H7 C11 1_555 1_555
H8 C11 1_555 1_555
C12 O3 1_555 1_555
C13 C12 1_555 1_555
C14 C13 1_555 1_555
H9 C14 1_555 1_555
C15 C14 1_555 1_555
H10 C15 1_555 1_555
C16 C15 1_555 1_555
C17 C16 1_555 1_555
H11 C17 1_555 1_555
C18 C13 1_555 1_555
H12 C18 1_555 1_555
C19 C16 1_555 1_555
C20 C19 1_555 1_555
H13 C20 1_555 1_555
C21 C19 1_555 1_555
C22 C21 1_555 1_555
H14 C22 1_555 1_555
H15 C22 1_555 1_555
H16 C22 1_555 1_555
C23 N1 1_555 1_555
H17 C23 1_555 1_555
C24 C23 1_555 1_555
H18 C24 1_555 1_555
C25 C24 1_555 1_555
C26 C25 1_555 1_555
H19 C26 1_555 1_555
C27 N1 1_555 1_555
H20 C27 1_555 1_555
C28 C25 1_555 1_555
H21 C28 1_555 1_555
H22 C28 1_555 1_555
C29 N2 1_555 1_555
H23 C29 1_555 1_555
H24 C29 1_555 1_555
C30 N2 1_555 1_555
H25 C30 1_555 1_555
H26 C30 1_555 1_555
O1A C1A 1_555 1_555
C1A C2A 1_555 1_555
C2A C3A 1_555 1_555
C3A H1A 1_555 1_555
C4A C3A 1_555 1_555
H2A C4A 1_555 1_555
C5A C4A 1_555 1_555
C6A C5A 1_555 1_555
H3A C6A 1_555 1_555
C7A C2A 1_555 1_555
H4A C7A 1_555 1_555
C8A C5A 1_555 1_555
C9A C10 1_555 1_555
H5A C9A 1_555 1_555
C10A C9 1_555 1_555
C11A C10A 1_555 1_555
H6A C11A 1_555 1_555
H7A C11A 1_555 1_555
H8A C11A 1_555 1_555
O2A C1A 1_555 1_555
O3A C12A 1_555 1_555
C12A C13A 1_555 1_555
C13A C14A 1_555 1_555
C14A H9A 1_555 1_555
C15A C14A 1_555 1_555
H10A C15A 1_555 1_555
C16A C15A 1_555 1_555
C17A C16A 1_555 1_555
H11A C17A 1_555 1_555
C18A C13A 1_555 1_555
H12A C18A 1_555 1_555
C19A C16A 1_555 1_555
C20A C21 1_555 1_555
H13A C20A 1_555 1_555
C21A C20 1_555 1_555
C22A C21A 1_555 1_555
H14A C22A 1_555 1_555
H15A C22A 1_555 1_555
H16A C22A 1_555 1_555
O4A C12A 1_555 1_555
N1A C23A 1_555 1_555
N2A C28A 1_555 1_555
C23A H17A 1_555 1_555
C24A C23A 1_555 1_555
H18A C24A 1_555 1_555
C25A C24A 1_555 1_555
C26A C25A 1_555 1_555
H19A C26A 1_555 1_555
C27A N1A 1_555 1_555
H20A C27A 1_555 1_555
C28A C25A 1_555 1_555
H21A C28A 1_555 1_555
H22A C28A 1_555 1_555
C29A C30 1_555 1_555
H23A C29A 1_555 1_555
H24A C29A 1_555 1_555
C30A C29 1_555 1_555
H25A C30A 1_555 1_555
H26A C30A 1_555 1_555
Zn1A O1A 1_555 1_555
Zn1_2 O2A 1_555 1_555
Zn1_3 O4A 1_555 1_555
Zn1A_2 N1A 1_555 1_555
Zn1A_3 O2 1_555 1_555
Zn1A_4 O3A 1_555 1_555
O2_2 Zn1A 1_555 1_555
O2A_2 Zn1 1_555 1_555
O3A_2 Zn1A 1_555 1_555
O4_2 Zn1A 1_555 1_555
O4A_2 Zn1 1_555 1_555
N1A_2 Zn1A 1_555 1_555
O4 Zn1A_3 1_555 1_555
C6 C7 1_555 1_555
C17 C18 1_555 1_555
C26 C27 1_555 1_555
C6A C7A 1_555 1_555
C8A C9A 1_555 1_555
C8A C10A 1_555 1_555
C17A C18A 1_555 1_555
C19A C20A 1_555 1_555
C19A C21A 1_555 1_555
N2A C29A 1_555 1_555
N2A C30A 1_555 1_555
C26A C27A 1_555 1_555

#END
