
#######################################################################
#
#                 Cambridge Crystallographic Data Centre
#                                CCDC 
#
#######################################################################
#
# If this CIF has been generated from an entry in the Cambridge 
# Structural Database, then it will include bibliographic, chemical, 
# crystal, experimental, refinement or atomic coordinate data resulting 
# from the CCDC's data processing and validation procedures.
#
#######################################################################

data_HIKSIF
_symmetry_cell_setting           cubic
_symmetry_space_group_name_H-M   'P m -3 m'
_symmetry_Int_Tables_number      221
_space_group_name_Hall           '-P 4 2 3'
loop_
_symmetry_equiv_pos_site_id
_symmetry_equiv_pos_as_xyz
1 x,y,z
2 -y,x,z
3 -x,-y,z
4 y,-x,z
5 x,-z,y
6 x,-y,-z
7 x,z,-y
8 z,y,-x
9 -x,y,-z
10 -z,y,x
11 z,x,y
12 y,z,x
13 -y,-z,x
14 z,-x,-y
15 -y,z,-x
16 -z,-x,y
17 -z,x,-y
18 y,-z,-x
19 y,x,-z
20 -y,-x,-z
21 -x,z,y
22 -x,-z,-y
23 z,-y,x
24 -z,-y,-x
25 -x,-y,-z
26 y,-x,-z
27 x,y,-z
28 -y,x,-z
29 -x,z,-y
30 -x,y,z
31 -x,-z,y
32 -z,-y,x
33 x,-y,z
34 z,-y,-x
35 -z,-x,-y
36 -y,-z,-x
37 y,z,-x
38 -z,x,y
39 y,-z,x
40 z,x,-y
41 z,-x,y
42 -y,z,x
43 -y,-x,z
44 y,x,z
45 x,-z,-y
46 x,z,y
47 -z,y,-x
48 z,y,x
_cell_length_a                   19.51(3)
_cell_length_b                   19.51(3)
_cell_length_c                   19.51(3)
_cell_angle_alpha                90
_cell_angle_beta                 90
_cell_angle_gamma                90
_cell_volume                     7426.29
loop_
_atom_site_label
_atom_site_type_symbol
_atom_site_fract_x
_atom_site_fract_y
_atom_site_fract_z
Cu1 Cu 0.5000 0.0000 0.5000
Zr1 Zr 0.93107(8) -0.06893(8) 0.06893(8)
C1 C 0.8379(6) 0.0000 0.1621(6)
C2 C 0.6284(4) 0.0000 0.3716(4)
C3 C 0.6831(4) 0.0000 0.3169(4)
C4 C 0.5573(2) 0.0000 0.3603(7)
C5 C 0.5347(3) 0.0000 0.2914(7)
H1 H 0.5636 0.0000 0.2515
C6 C 0.7578(5) -0.0605(3) 0.2422(5)
H2 H 0.7749 -0.1028 0.2251
N1 N 0.5000 0.0000 0.3996(7)
C7 C 0.7085(5) -0.0607(3) 0.2915(5)
H3 H 0.6915 -0.1030 0.3085
C8 C 0.7832(5) 0.0000 0.2168(5)
O1 O 0.8581(6) -0.0571(3) 0.1419(6)
O2 O 1.0000 -0.117(3) 0.0000
C1B C 0.1621(6) 0.0000 0.1621(6)
C2B C 0.3716(4) 0.0000 0.3716(4)
C3B C 0.3169(4) 0.0000 0.3169(4)
C4B C 0.4427(2) 0.0000 0.3603(7)
C5B C 0.4653(3) 0.0000 0.2914(7)
H1B H 0.4364 0.0000 0.2515
C6B C 0.2422(5) 0.0605(3) 0.2422(5)
H2B H 0.2251 0.1028 0.2251
C7B C 0.2915(5) 0.0607(3) 0.2915(5)
H3B H 0.3085 0.1030 0.3085
C8B C 0.2168(5) 0.0000 0.2168(5)
O1B O 0.1419(6) 0.0571(3) 0.1419(6)
C4W C 0.6397(7) 0.0000 0.4427(2)
C5W C 0.7086(7) 0.0000 0.4653(3)
H1W H 0.7485 0.0000 0.4364
C6W C 0.7578(5) 0.0605(3) 0.2422(5)
H2W H 0.7749 0.1028 0.2251
N1I N 0.6004(7) 0.0000 0.5000
C7W C 0.7085(5) 0.0607(3) 0.2915(5)
H3W H 0.6915 0.1030 0.3085
O1W O 0.8581(6) 0.0571(3) 0.1419(6)
C6G C 0.2422(5) -0.0605(3) 0.2422(5)
H2G H 0.2251 -0.1028 0.2251
C7G C 0.2915(5) -0.0607(3) 0.2915(5)
H3G H 0.3085 -0.1030 0.3085
O1G O 0.1419(6) -0.0571(3) 0.1419(6)
C4G C 0.3603(7) 0.0000 0.4427(2)
C5G C 0.2914(7) 0.0000 0.4653(3)
H1G H 0.2515 0.0000 0.4364
N1G N 0.3996(7) 0.0000 0.5000
C1E C 0.8379(6) 0.0000 0.8379(6)
C2E C 0.6284(4) 0.0000 0.6284(4)
C3E C 0.6831(4) 0.0000 0.6831(4)
C4I C 0.6397(7) 0.0000 0.5573(2)
C5I C 0.7086(7) 0.0000 0.5347(3)
H1I H 0.7485 0.0000 0.5636
C6I C 0.7578(5) -0.0605(3) 0.7578(5)
H2I H 0.7749 -0.1028 0.7749
C7I C 0.7085(5) -0.0607(3) 0.7085(5)
H3I H 0.6915 -0.1030 0.6915
C8E C 0.7832(5) 0.0000 0.7832(5)
O1I O 0.8581(6) -0.0571(3) 0.8581(6)
C1H C 0.1621(6) 0.0000 0.8379(6)
C2H C 0.3716(4) 0.0000 0.6284(4)
C3H C 0.3169(4) 0.0000 0.6831(4)
C4V C 0.3603(7) 0.0000 0.5573(2)
C5V C 0.2914(7) 0.0000 0.5347(3)
H1V H 0.2515 0.0000 0.5636
C6V C 0.2422(5) 0.0605(3) 0.7578(5)
H2V H 0.2251 0.1028 0.7749
C7V C 0.2915(5) 0.0607(3) 0.7085(5)
H3V H 0.3085 0.1030 0.6915
C8H C 0.2168(5) 0.0000 0.7832(5)
O1V O 0.1419(6) 0.0571(3) 0.8581(6)
C6E C 0.7578(5) 0.0605(3) 0.7578(5)
H2E H 0.7749 0.1028 0.7749
C7E C 0.7085(5) 0.0607(3) 0.7085(5)
H3E H 0.6915 0.1030 0.6915
O1E O 0.8581(6) 0.0571(3) 0.8581(6)
C6H C 0.2422(5) -0.0605(3) 0.7578(5)
H2H H 0.2251 -0.1028 0.7749
C7H C 0.2915(5) -0.0607(3) 0.7085(5)
H3H H 0.3085 -0.1030 0.6915
O1H O 0.1419(6) -0.0571(3) 0.8581(6)
C4E C 0.5573(2) 0.0000 0.6397(7)
C5E C 0.5347(3) 0.0000 0.7086(7)
H1E H 0.5636 0.0000 0.7485
N1E N 0.5000 0.0000 0.6004(7)
C4H C 0.4427(2) 0.0000 0.6397(7)
C5H C 0.4653(3) 0.0000 0.7086(7)
H1H H 0.4364 0.0000 0.7485
Cu1A Cu 0.0000 -0.5000 0.5000
Zr1A Zr 0.06893(8) -0.06893(8) 0.06893(8)
C1A C 0.0000 -0.1621(6) 0.1621(6)
C2A C 0.0000 -0.3716(4) 0.3716(4)
C3A C 0.0000 -0.3169(4) 0.3169(4)
C4A C 0.0000 -0.4427(2) 0.3603(7)
C5A C 0.0000 -0.4653(3) 0.2914(7)
H1A H 0.0000 -0.4364 0.2515
C6A C 0.0605(3) -0.2422(5) 0.2422(5)
H2A H 0.1028 -0.2251 0.2251
N1A N 0.0000 -0.5000 0.3996(7)
C7A C 0.0607(3) -0.2915(5) 0.2915(5)
H3A H 0.1030 -0.3085 0.3085
C8A C 0.0000 -0.2168(5) 0.2168(5)
O1A O 0.0571(3) -0.1419(6) 0.1419(6)
C1C C 0.0000 -0.8379(6) 0.1621(6)
C2C C 0.0000 -0.6284(4) 0.3716(4)
C3C C 0.0000 -0.6831(4) 0.3169(4)
C4C C 0.0000 -0.5573(2) 0.3603(7)
C5C C 0.0000 -0.5347(3) 0.2914(7)
H1C H 0.0000 -0.5636 0.2515
C6C C -0.0605(3) -0.7578(5) 0.2422(5)
H2C H -0.1028 -0.7749 0.2251
C7C C -0.0607(3) -0.7085(5) 0.2915(5)
H3C H -0.1030 -0.6915 0.3085
C8C C 0.0000 -0.7832(5) 0.2168(5)
O1C O -0.0571(3) -0.8581(6) 0.1419(6)
C4Q C 0.0000 -0.3603(7) 0.4427(2)
C5Q C 0.0000 -0.2914(7) 0.4653(3)
H1Q H 0.0000 -0.2515 0.4364
C6Q C -0.0605(3) -0.2422(5) 0.2422(5)
H2Q H -0.1028 -0.2251 0.2251
N1L N 0.0000 -0.3996(7) 0.5000
C7Q C -0.0607(3) -0.2915(5) 0.2915(5)
H3Q H -0.1030 -0.3085 0.3085
O1Q O -0.0571(3) -0.1419(6) 0.1419(6)
C6N C 0.0605(3) -0.7578(5) 0.2422(5)
H2N H 0.1028 -0.7749 0.2251
C7N C 0.0607(3) -0.7085(5) 0.2915(5)
H3N H 0.1030 -0.6915 0.3085
O1N O 0.0571(3) -0.8581(6) 0.1419(6)
C4N C 0.0000 -0.6397(7) 0.4427(2)
C5N C 0.0000 -0.7086(7) 0.4653(3)
H1N H 0.0000 -0.7485 0.4364
N1K N 0.0000 -0.6004(7) 0.5000
C1L C 0.0000 -0.1621(6) 0.8379(6)
C2L C 0.0000 -0.3716(4) 0.6284(4)
C3L C 0.0000 -0.3169(4) 0.6831(4)
C4L C 0.0000 -0.3603(7) 0.5573(2)
C5L C 0.0000 -0.2914(7) 0.5347(3)
H1L H 0.0000 -0.2515 0.5636
C6L C 0.0605(3) -0.2422(5) 0.7578(5)
H2L H 0.1028 -0.2251 0.7749
C7L C 0.0607(3) -0.2915(5) 0.7085(5)
H3L H 0.1030 -0.3085 0.6915
C8L C 0.0000 -0.2168(5) 0.7832(5)
O1L O 0.0571(3) -0.1419(6) 0.8581(6)
C1K C 0.0000 -0.8379(6) 0.8379(6)
C2K C 0.0000 -0.6284(4) 0.6284(4)
C3K C 0.0000 -0.6831(4) 0.6831(4)
C4K C 0.0000 -0.6397(7) 0.5573(2)
C5K C 0.0000 -0.7086(7) 0.5347(3)
H1K H 0.0000 -0.7485 0.5636
C6K C -0.0605(3) -0.7578(5) 0.7578(5)
H2K H -0.1028 -0.7749 0.7749
C7K C -0.0607(3) -0.7085(5) 0.7085(5)
H3K H -0.1030 -0.6915 0.6915
C8K C 0.0000 -0.7832(5) 0.7832(5)
O1K O -0.0571(3) -0.8581(6) 0.8581(6)
C6R C -0.0605(3) -0.2422(5) 0.7578(5)
H2R H -0.1028 -0.2251 0.7749
C7R C -0.0607(3) -0.2915(5) 0.7085(5)
H3R H -0.1030 -0.3085 0.6915
O1R O -0.0571(3) -0.1419(6) 0.8581(6)
C6S C 0.0605(3) -0.7578(5) 0.7578(5)
H2S H 0.1028 -0.7749 0.7749
C7S C 0.0607(3) -0.7085(5) 0.7085(5)
H3S H 0.1030 -0.6915 0.6915
O1S O 0.0571(3) -0.8581(6) 0.8581(6)
C4R C 0.0000 -0.4427(2) 0.6397(7)
C5R C 0.0000 -0.4653(3) 0.7086(7)
H1R H 0.0000 -0.4364 0.7485
N1R N 0.0000 -0.5000 0.6004(7)
C4S C 0.0000 -0.5573(2) 0.6397(7)
C5S C 0.0000 -0.5347(3) 0.7086(7)
H1S H 0.0000 -0.5636 0.7485
Cu1A_2 Cu 1.0000 -0.5000 0.5000
Zr1A_2 Zr 1.06893(8) -0.06893(8) 0.06893(8)
C1A_2 C 1.0000 -0.1621(6) 0.1621(6)
C2A_2 C 1.0000 -0.3716(4) 0.3716(4)
C3A_2 C 1.0000 -0.3169(4) 0.3169(4)
C4A_2 C 1.0000 -0.4427(2) 0.3603(7)
C5A_2 C 1.0000 -0.4653(3) 0.2914(7)
H1A_2 H 1.0000 -0.4364 0.2515
C6A_2 C 1.0605(3) -0.2422(5) 0.2422(5)
H2A_2 H 1.1028 -0.2251 0.2251
N1A_2 N 1.0000 -0.5000 0.3996(7)
C7A_2 C 1.0607(3) -0.2915(5) 0.2915(5)
H3A_2 H 1.1030 -0.3085 0.3085
C8A_2 C 1.0000 -0.2168(5) 0.2168(5)
O1A_2 O 1.0571(3) -0.1419(6) 0.1419(6)
O2A O 1.117(3) 0.0000 0.0000
C1C_2 C 1.0000 -0.8379(6) 0.1621(6)
C2C_2 C 1.0000 -0.6284(4) 0.3716(4)
C3C_2 C 1.0000 -0.6831(4) 0.3169(4)
C4C_2 C 1.0000 -0.5573(2) 0.3603(7)
C5C_2 C 1.0000 -0.5347(3) 0.2914(7)
H1C_2 H 1.0000 -0.5636 0.2515
C6C_2 C 0.9395(3) -0.7578(5) 0.2422(5)
H2C_2 H 0.8972 -0.7749 0.2251
C7C_2 C 0.9393(3) -0.7085(5) 0.2915(5)
H3C_2 H 0.8970 -0.6915 0.3085
C8C_2 C 1.0000 -0.7832(5) 0.2168(5)
O1C_2 O 0.9429(3) -0.8581(6) 0.1419(6)
C4Q_2 C 1.0000 -0.3603(7) 0.4427(2)
C5Q_2 C 1.0000 -0.2914(7) 0.4653(3)
H1Q_2 H 1.0000 -0.2515 0.4364
C6Q_2 C 0.9395(3) -0.2422(5) 0.2422(5)
H2Q_2 H 0.8972 -0.2251 0.2251
N1L_2 N 1.0000 -0.3996(7) 0.5000
C7Q_2 C 0.9393(3) -0.2915(5) 0.2915(5)
H3Q_2 H 0.8970 -0.3085 0.3085
O1Q_2 O 0.9429(3) -0.1419(6) 0.1419(6)
C6N_2 C 1.0605(3) -0.7578(5) 0.2422(5)
H2N_2 H 1.1028 -0.7749 0.2251
C7N_2 C 1.0607(3) -0.7085(5) 0.2915(5)
H3N_2 H 1.1030 -0.6915 0.3085
O1N_2 O 1.0571(3) -0.8581(6) 0.1419(6)
C4N_2 C 1.0000 -0.6397(7) 0.4427(2)
C5N_2 C 1.0000 -0.7086(7) 0.4653(3)
H1N_2 H 1.0000 -0.7485 0.4364
N1K_2 N 1.0000 -0.6004(7) 0.5000
C1L_2 C 1.0000 -0.1621(6) 0.8379(6)
C2L_2 C 1.0000 -0.3716(4) 0.6284(4)
C3L_2 C 1.0000 -0.3169(4) 0.6831(4)
C4L_2 C 1.0000 -0.3603(7) 0.5573(2)
C5L_2 C 1.0000 -0.2914(7) 0.5347(3)
H1L_2 H 1.0000 -0.2515 0.5636
C6L_2 C 1.0605(3) -0.2422(5) 0.7578(5)
H2L_2 H 1.1028 -0.2251 0.7749
C7L_2 C 1.0607(3) -0.2915(5) 0.7085(5)
H3L_2 H 1.1030 -0.3085 0.6915
C8L_2 C 1.0000 -0.2168(5) 0.7832(5)
O1L_2 O 1.0571(3) -0.1419(6) 0.8581(6)
C1K_2 C 1.0000 -0.8379(6) 0.8379(6)
C2K_2 C 1.0000 -0.6284(4) 0.6284(4)
C3K_2 C 1.0000 -0.6831(4) 0.6831(4)
C4K_2 C 1.0000 -0.6397(7) 0.5573(2)
C5K_2 C 1.0000 -0.7086(7) 0.5347(3)
H1K_2 H 1.0000 -0.7485 0.5636
C6K_2 C 0.9395(3) -0.7578(5) 0.7578(5)
H2K_2 H 0.8972 -0.7749 0.7749
C7K_2 C 0.9393(3) -0.7085(5) 0.7085(5)
H3K_2 H 0.8970 -0.6915 0.6915
C8K_2 C 1.0000 -0.7832(5) 0.7832(5)
O1K_2 O 0.9429(3) -0.8581(6) 0.8581(6)
C6R_2 C 0.9395(3) -0.2422(5) 0.7578(5)
H2R_2 H 0.8972 -0.2251 0.7749
C7R_2 C 0.9393(3) -0.2915(5) 0.7085(5)
H3R_2 H 0.8970 -0.3085 0.6915
O1R_2 O 0.9429(3) -0.1419(6) 0.8581(6)
C6S_2 C 1.0605(3) -0.7578(5) 0.7578(5)
H2S_2 H 1.1028 -0.7749 0.7749
C7S_2 C 1.0607(3) -0.7085(5) 0.7085(5)
H3S_2 H 1.1030 -0.6915 0.6915
O1S_2 O 1.0571(3) -0.8581(6) 0.8581(6)
C4R_2 C 1.0000 -0.4427(2) 0.6397(7)
C5R_2 C 1.0000 -0.4653(3) 0.7086(7)
H1R_2 H 1.0000 -0.4364 0.7485
N1R_2 N 1.0000 -0.5000 0.6004(7)
C4S_2 C 1.0000 -0.5573(2) 0.6397(7)
C5S_2 C 1.0000 -0.5347(3) 0.7086(7)
H1S_2 H 1.0000 -0.5636 0.7485
Zr1B Zr 1.06893(8) 0.06893(8) 0.06893(8)
O2B O 1.0000 0.117(3) 0.0000
Zr1C Zr 0.93107(8) -0.93107(8) 0.06893(8)
Zr1C_2 Zr 0.93107(8) 0.06893(8) 0.06893(8)
O2C O 0.883(3) 0.0000 0.0000
Zr1D Zr 0.93107(8) -0.06893(8) -0.06893(8)
O2F O 1.0000 0.0000 0.117(3)
Zr1E Zr 0.93107(8) -0.93107(8) 0.93107(8)
O2D O 1.0000 -1.0000 0.883(3)
Zr1_2 Zr -0.06893(8) -0.06893(8) 0.06893(8)
Zr1B_2 Zr 0.06893(8) -0.93107(8) 0.06893(8)
Zr1B_3 Zr 0.06893(8) 0.06893(8) 0.06893(8)
Zr1B_4 Zr 1.06893(8) -0.93107(8) 0.06893(8)
Zr1C_3 Zr -0.06893(8) -0.93107(8) 0.06893(8)
Zr1D_2 Zr -0.06893(8) -0.06893(8) 0.93107(8)
Zr1D_3 Zr 0.93107(8) -1.06893(8) 0.93107(8)
Zr1D_4 Zr 0.93107(8) -0.06893(8) 0.93107(8)
Zr1E_2 Zr -0.06893(8) -0.93107(8) 0.93107(8)
Zr1E_3 Zr 0.93107(8) 0.06893(8) -0.06893(8)
Zr1E_4 Zr 0.93107(8) 0.06893(8) 0.93107(8)
Zr1H Zr 0.06893(8) -0.06893(8) 0.93107(8)
Zr1H_2 Zr 1.06893(8) -1.06893(8) 0.93107(8)
Zr1H_3 Zr 1.06893(8) -0.06893(8) -0.06893(8)
Zr1H_4 Zr 1.06893(8) -0.06893(8) 0.93107(8)
Zr1S Zr 0.06893(8) -0.93107(8) 0.93107(8)
Zr1S_2 Zr 0.06893(8) 0.06893(8) 0.93107(8)
Zr1S_3 Zr 1.06893(8) -0.93107(8) 0.93107(8)
Zr1S_4 Zr 1.06893(8) 0.06893(8) -0.06893(8)
O1B_2 O 1.1419(6) 0.0571(3) 0.1419(6)
O1C_3 O 0.9429(3) 0.1419(6) 0.1419(6)
O1D O 0.8581(6) -0.1419(6) -0.0571(3)
O1E_2 O 0.8581(6) -0.9429(3) 0.8581(6)
O1F O 0.8581(6) -0.8581(6) 0.0571(3)
O1F_2 O 0.8581(6) 0.1419(6) 0.0571(3)
O1G_2 O 1.1419(6) -0.0571(3) 0.1419(6)
O1I_2 O 0.8581(6) -0.0571(3) -0.1419(6)
O1M O 1.1419(6) 0.1419(6) 0.0571(3)
O1N_3 O 1.0571(3) 0.1419(6) 0.1419(6)
O1O O 0.8581(6) -0.8581(6) 0.9429(3)
O1P O 0.8581(6) -0.1419(6) 0.0571(3)
O1R_3 O 0.9429(3) -0.1419(6) -0.1419(6)
O1U O 0.1419(6) -0.1419(6) 0.0571(3)
O1U_2 O 1.1419(6) -0.1419(6) 0.0571(3)
O1W_2 O 0.8581(6) -0.9429(3) 0.1419(6)
O2_2 O 0.0000 -0.117(3) 0.0000
O2A_2 O 0.117(3) 0.0000 0.0000
O2B_2 O 1.0000 -0.883(3) 0.0000
O2B_3 O 1.0000 -0.883(3) 1.0000
O2C_2 O 0.883(3) -1.0000 0.0000
O2C_3 O 0.883(3) -1.0000 1.0000
O2D_2 O 1.0000 0.0000 -0.117(3)
O2F_2 O 0.0000 0.0000 0.117(3)
O2F_3 O 1.0000 -1.0000 0.117(3)
loop_
_geom_bond_atom_site_label_1
_geom_bond_atom_site_label_2
_geom_bond_site_symmetry_1
_geom_bond_site_symmetry_2
Cu1 N1 1_555 1_555
Zr1 O1 1_555 1_555
C1 C8 1_555 1_555
C2 C3 1_555 1_555
C3 C7 1_555 1_555
C4 C2 1_555 1_555
C5 C4 1_555 1_555
H1 C5 1_555 1_555
C6 H2 1_555 1_555
N1 C4 1_555 1_555
C7 C6 1_555 1_555
H3 C7 1_555 1_555
C8 C6 1_555 1_555
O1 C1 1_555 1_555
O2 Zr1 1_555 1_555
C1B C8B 1_555 1_555
C2B C3B 1_555 1_555
C3B C7B 1_555 1_555
C4B N1 1_555 1_555
C5B C5 1_555 1_555
H1B C5B 1_555 1_555
C6B H2B 1_555 1_555
C7B C6B 1_555 1_555
H3B C7B 1_555 1_555
C8B C6B 1_555 1_555
O1B C1B 1_555 1_555
C4W C2 1_555 1_555
C5W C4W 1_555 1_555
H1W C5W 1_555 1_555
C6W C8 1_555 1_555
H2W C6W 1_555 1_555
N1I Cu1 1_555 1_555
C7W C3 1_555 1_555
H3W C7W 1_555 1_555
O1W C1 1_555 1_555
C6G C8B 1_555 1_555
H2G C6G 1_555 1_555
C7G C3B 1_555 1_555
H3G C7G 1_555 1_555
O1G C1B 1_555 1_555
C4G C2B 1_555 1_555
C5G C4G 1_555 1_555
H1G C5G 1_555 1_555
N1G Cu1 1_555 1_555
C1E C8E 1_555 1_555
C2E C3E 1_555 1_555
C3E C7I 1_555 1_555
C4I N1I 1_555 1_555
C5I C5W 1_555 1_555
H1I C5I 1_555 1_555
C6I H2I 1_555 1_555
C7I C6I 1_555 1_555
H3I C7I 1_555 1_555
C8E C6I 1_555 1_555
O1I C1E 1_555 1_555
C1H C8H 1_555 1_555
C2H C3H 1_555 1_555
C3H C7V 1_555 1_555
C4V N1G 1_555 1_555
C5V C5G 1_555 1_555
H1V C5V 1_555 1_555
C6V H2V 1_555 1_555
C7V C6V 1_555 1_555
H3V C7V 1_555 1_555
C8H C6V 1_555 1_555
O1V C1H 1_555 1_555
C6E C8E 1_555 1_555
H2E C6E 1_555 1_555
C7E C3E 1_555 1_555
H3E C7E 1_555 1_555
O1E C1E 1_555 1_555
C6H C8H 1_555 1_555
H2H C6H 1_555 1_555
C7H C3H 1_555 1_555
H3H C7H 1_555 1_555
O1H C1H 1_555 1_555
C4E C2E 1_555 1_555
C5E C4E 1_555 1_555
H1E C5E 1_555 1_555
N1E Cu1 1_555 1_555
C4H C2H 1_555 1_555
C5H C5E 1_555 1_555
H1H C5H 1_555 1_555
Cu1A N1A 1_555 1_555
Zr1A O1G 1_555 1_555
C1A C8A 1_555 1_555
C2A C3A 1_555 1_555
C3A C7A 1_555 1_555
C4A C2A 1_555 1_555
C5A C4A 1_555 1_555
H1A C5A 1_555 1_555
C6A H2A 1_555 1_555
N1A C4A 1_555 1_555
C7A C6A 1_555 1_555
H3A C7A 1_555 1_555
C8A C6A 1_555 1_555
O1A Zr1A 1_555 1_555
C1C C8C 1_555 1_555
C2C C3C 1_555 1_555
C3C C7C 1_555 1_555
C4C N1A 1_555 1_555
C5C C5A 1_555 1_555
H1C C5C 1_555 1_555
C6C H2C 1_555 1_555
C7C C6C 1_555 1_555
H3C C7C 1_555 1_555
C8C C6C 1_555 1_555
O1C C1C 1_555 1_555
C4Q C2A 1_555 1_555
C5Q C4Q 1_555 1_555
H1Q C5Q 1_555 1_555
C6Q C8A 1_555 1_555
H2Q C6Q 1_555 1_555
N1L Cu1A 1_555 1_555
C7Q C3A 1_555 1_555
H3Q C7Q 1_555 1_555
O1Q C1A 1_555 1_555
C6N C8C 1_555 1_555
H2N C6N 1_555 1_555
C7N C3C 1_555 1_555
H3N C7N 1_555 1_555
O1N C1C 1_555 1_555
C4N C2C 1_555 1_555
C5N C4N 1_555 1_555
H1N C5N 1_555 1_555
N1K Cu1A 1_555 1_555
C1L C8L 1_555 1_555
C2L C3L 1_555 1_555
C3L C7L 1_555 1_555
C4L N1L 1_555 1_555
C5L C5Q 1_555 1_555
H1L C5L 1_555 1_555
C6L H2L 1_555 1_555
C7L C6L 1_555 1_555
H3L C7L 1_555 1_555
C8L C6L 1_555 1_555
O1L C1L 1_555 1_555
C1K C8K 1_555 1_555
C2K C3K 1_555 1_555
C3K C7K 1_555 1_555
C4K N1K 1_555 1_555
C5K C5N 1_555 1_555
H1K C5K 1_555 1_555
C6K H2K 1_555 1_555
C7K C6K 1_555 1_555
H3K C7K 1_555 1_555
C8K C6K 1_555 1_555
O1K C1K 1_555 1_555
C6R C8L 1_555 1_555
H2R C6R 1_555 1_555
C7R C3L 1_555 1_555
H3R C7R 1_555 1_555
O1R C1L 1_555 1_555
C6S C8K 1_555 1_555
H2S C6S 1_555 1_555
C7S C3K 1_555 1_555
H3S C7S 1_555 1_555
O1S C1K 1_555 1_555
C4R C2L 1_555 1_555
C5R C4R 1_555 1_555
H1R C5R 1_555 1_555
N1R Cu1A 1_555 1_555
C4S C2K 1_555 1_555
C5S C5R 1_555 1_555
H1S C5S 1_555 1_555
Cu1A_2 N1A_2 1_555 1_555
Zr1A_2 O2 1_555 1_555
C1A_2 C8A_2 1_555 1_555
C2A_2 C3A_2 1_555 1_555
C3A_2 C7A_2 1_555 1_555
C4A_2 C2A_2 1_555 1_555
C5A_2 C4A_2 1_555 1_555
H1A_2 C5A_2 1_555 1_555
C6A_2 H2A_2 1_555 1_555
N1A_2 C4A_2 1_555 1_555
C7A_2 C6A_2 1_555 1_555
H3A_2 C7A_2 1_555 1_555
C8A_2 C6A_2 1_555 1_555
O1A_2 Zr1A_2 1_555 1_555
O2A Zr1A_2 1_555 1_555
C1C_2 C8C_2 1_555 1_555
C2C_2 C3C_2 1_555 1_555
C3C_2 C7C_2 1_555 1_555
C4C_2 N1A_2 1_555 1_555
C5C_2 C5A_2 1_555 1_555
H1C_2 C5C_2 1_555 1_555
C6C_2 H2C_2 1_555 1_555
C7C_2 C6C_2 1_555 1_555
H3C_2 C7C_2 1_555 1_555
C8C_2 C6C_2 1_555 1_555
O1C_2 C1C_2 1_555 1_555
C4Q_2 C2A_2 1_555 1_555
C5Q_2 C4Q_2 1_555 1_555
H1Q_2 C5Q_2 1_555 1_555
C6Q_2 C8A_2 1_555 1_555
H2Q_2 C6Q_2 1_555 1_555
N1L_2 Cu1A_2 1_555 1_555
C7Q_2 C3A_2 1_555 1_555
H3Q_2 C7Q_2 1_555 1_555
O1Q_2 Zr1 1_555 1_555
C6N_2 C8C_2 1_555 1_555
H2N_2 C6N_2 1_555 1_555
C7N_2 C3C_2 1_555 1_555
H3N_2 C7N_2 1_555 1_555
O1N_2 C1C_2 1_555 1_555
C4N_2 C2C_2 1_555 1_555
C5N_2 C4N_2 1_555 1_555
H1N_2 C5N_2 1_555 1_555
N1K_2 Cu1A_2 1_555 1_555
C1L_2 C8L_2 1_555 1_555
C2L_2 C3L_2 1_555 1_555
C3L_2 C7L_2 1_555 1_555
C4L_2 N1L_2 1_555 1_555
C5L_2 C5Q_2 1_555 1_555
H1L_2 C5L_2 1_555 1_555
C6L_2 H2L_2 1_555 1_555
C7L_2 C6L_2 1_555 1_555
H3L_2 C7L_2 1_555 1_555
C8L_2 C6L_2 1_555 1_555
O1L_2 C1L_2 1_555 1_555
C1K_2 C8K_2 1_555 1_555
C2K_2 C3K_2 1_555 1_555
C3K_2 C7K_2 1_555 1_555
C4K_2 N1K_2 1_555 1_555
C5K_2 C5N_2 1_555 1_555
H1K_2 C5K_2 1_555 1_555
C6K_2 H2K_2 1_555 1_555
C7K_2 C6K_2 1_555 1_555
H3K_2 C7K_2 1_555 1_555
C8K_2 C6K_2 1_555 1_555
O1K_2 C1K_2 1_555 1_555
C6R_2 C8L_2 1_555 1_555
H2R_2 C6R_2 1_555 1_555
C7R_2 C3L_2 1_555 1_555
H3R_2 C7R_2 1_555 1_555
O1R_2 C1L_2 1_555 1_555
C6S_2 C8K_2 1_555 1_555
H2S_2 C6S_2 1_555 1_555
C7S_2 C3K_2 1_555 1_555
H3S_2 C7S_2 1_555 1_555
O1S_2 C1K_2 1_555 1_555
C4R_2 C2L_2 1_555 1_555
C5R_2 C4R_2 1_555 1_555
H1R_2 C5R_2 1_555 1_555
N1R_2 Cu1A_2 1_555 1_555
C4S_2 C2K_2 1_555 1_555
C5S_2 C5R_2 1_555 1_555
H1S_2 C5S_2 1_555 1_555
Zr1B O2A 1_555 1_555
O2B Zr1B 1_555 1_555
Zr1C O1C_2 1_555 1_555
Zr1C_2 O1W 1_555 1_555
O2C Zr1 1_555 1_555
Zr1D O2 1_555 1_555
O2F Zr1 1_555 1_555
Zr1E O1K_2 1_555 1_555
O2D Zr1E 1_555 1_555
Zr1_2 O1Q 1_555 1_555
Zr1B_2 O1N 1_555 1_555
Zr1B_3 O1B 1_555 1_555
Zr1B_4 O1N_2 1_555 1_555
Zr1C_3 O1C 1_555 1_555
Zr1D_2 O1R 1_555 1_555
Zr1D_3 O2D 1_555 1_555
Zr1D_4 O1I 1_555 1_555
Zr1E_2 O1K 1_555 1_555
Zr1E_3 O2B 1_555 1_555
Zr1E_4 O1E 1_555 1_555
Zr1H O1H 1_555 1_555
Zr1H_2 O2D 1_555 1_555
Zr1H_3 O2 1_555 1_555
Zr1H_4 O1L_2 1_555 1_555
Zr1S O1S 1_555 1_555
Zr1S_2 O1V 1_555 1_555
Zr1S_3 O1S_2 1_555 1_555
Zr1S_4 O2A 1_555 1_555
O1B_2 Zr1B 1_555 1_555
O1C_3 Zr1C_2 1_555 1_555
O1D Zr1D 1_555 1_555
O1E_2 Zr1E 1_555 1_555
O1F Zr1C 1_555 1_555
O1F_2 Zr1C_2 1_555 1_555
O1G_2 Zr1A_2 1_555 1_555
O1I_2 Zr1D 1_555 1_555
O1M Zr1B 1_555 1_555
O1N_3 Zr1B 1_555 1_555
O1O Zr1E 1_555 1_555
O1P Zr1 1_555 1_555
O1R_3 Zr1D 1_555 1_555
O1U Zr1A 1_555 1_555
O1U_2 Zr1A_2 1_555 1_555
O1W_2 Zr1C 1_555 1_555
O2_2 Zr1A 1_555 1_555
O2A_2 Zr1A 1_555 1_555
O2B_2 Zr1C 1_555 1_555
O2B_3 Zr1E 1_555 1_555
O2C_2 Zr1C 1_555 1_555
O2C_3 Zr1E 1_555 1_555
O2D_2 Zr1D 1_555 1_555
O2F_2 Zr1A 1_555 1_555
O2F_3 Zr1C 1_555 1_555
C2B C4B 1_555 1_555
C4B C5B 1_555 1_555
C4W N1I 1_555 1_555
C6W C7W 1_555 1_555
C6G C7G 1_555 1_555
C4G N1G 1_555 1_555
C2E C4I 1_555 1_555
C4I C5I 1_555 1_555
C2H C4V 1_555 1_555
C4V C5V 1_555 1_555
C6E C7E 1_555 1_555
C6H C7H 1_555 1_555
C4E N1E 1_555 1_555
N1E C4H 1_555 1_555
C4H C5H 1_555 1_555
C1A O1A 1_555 1_555
C2C C4C 1_555 1_555
C4C C5C 1_555 1_555
C4Q N1L 1_555 1_555
C6Q C7Q 1_555 1_555
C6N C7N 1_555 1_555
C4N N1K 1_555 1_555
C2L C4L 1_555 1_555
C4L C5L 1_555 1_555
O1L Zr1H 1_555 1_555
C2K C4K 1_555 1_555
C4K C5K 1_555 1_555
C6R C7R 1_555 1_555
C6S C7S 1_555 1_555
C4R N1R 1_555 1_555
N1R C4S 1_555 1_555
C4S C5S 1_555 1_555
Zr1A_2 O2F 1_555 1_555
C1A_2 O1A_2 1_555 1_555
C1A_2 O1Q_2 1_555 1_555
O2A Zr1H_3 1_555 1_555
C2C_2 C4C_2 1_555 1_555
C4C_2 C5C_2 1_555 1_555
C4Q_2 N1L_2 1_555 1_555
C6Q_2 C7Q_2 1_555 1_555
C6N_2 C7N_2 1_555 1_555
C4N_2 N1K_2 1_555 1_555
C2L_2 C4L_2 1_555 1_555
C4L_2 C5L_2 1_555 1_555
C2K_2 C4K_2 1_555 1_555
C4K_2 C5K_2 1_555 1_555
C6R_2 C7R_2 1_555 1_555
O1R_2 Zr1D_4 1_555 1_555
C6S_2 C7S_2 1_555 1_555
C4R_2 N1R_2 1_555 1_555
N1R_2 C4S_2 1_555 1_555
C4S_2 C5S_2 1_555 1_555
Zr1B O2F 1_555 1_555
O2B Zr1C_2 1_555 1_555
O2B Zr1S_4 1_555 1_555
Zr1C_2 O2C 1_555 1_555
Zr1C_2 O2F 1_555 1_555
O2C Zr1D 1_555 1_555
O2C Zr1E_3 1_555 1_555
O2D Zr1S_3 1_555 1_555
Zr1_2 O2_2 1_555 1_555
Zr1_2 O2F_2 1_555 1_555
Zr1B_3 O2A_2 1_555 1_555
Zr1B_3 O2F_2 1_555 1_555
Zr1B_4 O2B_2 1_555 1_555
Zr1B_4 O2F_3 1_555 1_555
Zr1D_3 O2C_3 1_555 1_555
Zr1E_3 O2D_2 1_555 1_555
Zr1H_3 O2D_2 1_555 1_555
Zr1S_3 O2B_3 1_555 1_555
Zr1S_4 O2D_2 1_555 1_555

#END
