
#######################################################################
#
#                 Cambridge Crystallographic Data Centre
#                                CCDC 
#
#######################################################################
#
# If this CIF has been generated from an entry in the Cambridge 
# Structural Database, then it will include bibliographic, chemical, 
# crystal, experimental, refinement or atomic coordinate data resulting 
# from the CCDC's data processing and validation procedures.
#
#######################################################################

data_HIQNUS
_symmetry_cell_setting           monoclinic
_symmetry_space_group_name_H-M   'C 2/c'
_symmetry_Int_Tables_number      15
_space_group_name_Hall           '-C 2yn'
loop_
_symmetry_equiv_pos_site_id
_symmetry_equiv_pos_as_xyz
1 x,y,z
2 -x,y,1/2-z
3 1/2+x,1/2+y,z
4 1/2-x,1/2+y,1/2-z
5 -x,-y,-z
6 x,-y,1/2+z
7 1/2-x,1/2-y,-z
8 1/2+x,1/2-y,1/2+z
_cell_length_a                   16.317(7)
_cell_length_b                   13.020(6)
_cell_length_c                   13.591(6)
_cell_angle_alpha                90
_cell_angle_beta                 100.303(4)
_cell_angle_gamma                90
_cell_volume                     2840.81
loop_
_atom_site_label
_atom_site_type_symbol
_atom_site_fract_x
_atom_site_fract_y
_atom_site_fract_z
Zn1 Zn 0.0000 0.33665(5) 0.7500
O1 O 0.05536(18) 0.2428(2) 0.6666(2)
O2 O 0.1396(2) 0.2013(3) 0.8089(2)
O3 O 0.3686(2) -0.0436(3) 0.8134(2)
O4 O 0.41503(18) -0.0743(3) 0.6703(2)
N1 N 0.2128(2) 0.0941(3) 0.4007(3)
H1 H 0.2320 0.0438 0.3705
C1 C 0.1194(3) 0.1967(4) 0.7155(3)
C2 C 0.1728(2) 0.1367(3) 0.6589(3)
C3 C 0.1645(3) 0.1443(3) 0.5539(3)
H2 H 0.1226 0.1850 0.5182
C4 C 0.2185(3) 0.0913(3) 0.5035(3)
C5 C 0.2824(3) 0.0316(3) 0.5585(3)
H3 H 0.3195 -0.0029 0.5255
C6 C 0.2908(3) 0.0236(3) 0.6630(3)
C7 C 0.2365(3) 0.0756(4) 0.7118(3)
H4 H 0.2421 0.0700 0.7810
C8 C 0.3631(3) -0.0364(4) 0.7212(3)
C9 C 0.1756(3) 0.1820(4) 0.3431(4)
H5 H 0.2057 0.1936 0.2886
H6 H 0.1838 0.2421 0.3859
C10 C 0.0830(3) 0.1736(4) 0.2991(3)
C11 C 0.0421(3) 0.0825(4) 0.2739(3)
H7 H 0.0700 0.0205 0.2884
C12 C 0.0410(3) 0.2635(4) 0.2741(4)
H8 H 0.0682 0.3258 0.2898
O1A O -0.05536(18) 0.2428(2) -0.1666(2)
O2A O -0.1396(2) 0.2013(3) -0.3089(2)
O3A O -0.3686(2) -0.0436(3) -0.3134(2)
O4A O -0.41503(18) -0.0743(3) -0.1703(2)
N1A N -0.2128(2) 0.0941(3) 0.0993(3)
H1A H -0.2320 0.0438 0.1295
C1A C -0.1194(3) 0.1967(4) -0.2155(3)
C2A C -0.1728(2) 0.1367(3) -0.1589(3)
C3A C -0.1645(3) 0.1443(3) -0.0539(3)
H2A H -0.1226 0.1850 -0.0182
C4A C -0.2185(3) 0.0913(3) -0.0035(3)
C5A C -0.2824(3) 0.0316(3) -0.0585(3)
H3A H -0.3195 -0.0029 -0.0255
C6A C -0.2908(3) 0.0236(3) -0.1630(3)
C7A C -0.2365(3) 0.0756(4) -0.2118(3)
H4A H -0.2421 0.0700 -0.2810
C8A C -0.3631(3) -0.0364(4) -0.2212(3)
C9A C -0.1756(3) 0.1820(4) 0.1569(4)
H5A H -0.2057 0.1936 0.2114
H6A H -0.1838 0.2421 0.1141
C10A C -0.0830(3) 0.1736(4) 0.2009(3)
C11A C -0.0421(3) 0.0825(4) 0.2261(3)
H7A H -0.0700 0.0205 0.2116
C12A C -0.0410(3) 0.2635(4) 0.2259(4)
H8A H -0.0682 0.3258 0.2102
Zn1_2 Zn 0.0000 0.33665(5) -0.2500
Zn1B Zn -0.5000 -0.16335(5) -0.2500
Zn1B_2 Zn 0.5000 -0.16335(5) 0.7500
O1A_2 O -0.05536(18) 0.2428(2) 0.8334(2)
O4B O -0.08497(18) 0.4257(3) 0.6703(2)
O4C O 0.08497(18) 0.4257(3) 0.8297(2)
N2 N 0.0904(3) 0.2331(4) -0.0103(3)
H9 H 0.1052 0.2349 -0.0710
H10 H 0.0451 0.2731 -0.0127
C13 C 0.1587(4) 0.2763(6) 0.0644(5)
H11 H 0.2097 0.2410 0.0604
H12 H 0.1459 0.2679 0.1302
H13 H 0.1649 0.3480 0.0511
C14 C 0.0680(4) 0.1263(5) 0.0124(5)
H14 H 0.0568 0.1232 0.0793
H15 H 0.1134 0.0812 0.0065
H16 H 0.0193 0.1056 -0.0339
O5 O 0.0325(3) 0.3875(4) 0.4965(3)
H17 H 0.0571 0.4289 0.5278
H18 H 0.0009 0.4176 0.4410
loop_
_geom_bond_atom_site_label_1
_geom_bond_atom_site_label_2
_geom_bond_site_symmetry_1
_geom_bond_site_symmetry_2
Zn1 O1 1_555 1_555
O1 C1 1_555 1_555
O2 C1 1_555 1_555
O3 C8 1_555 1_555
O4 C8 1_555 1_555
N1 H1 1_555 1_555
C1 C2 1_555 1_555
C2 C3 1_555 1_555
C3 H2 1_555 1_555
C4 N1 1_555 1_555
C5 C4 1_555 1_555
H3 C5 1_555 1_555
C6 C5 1_555 1_555
C7 C2 1_555 1_555
H4 C7 1_555 1_555
C8 C6 1_555 1_555
C9 N1 1_555 1_555
H5 C9 1_555 1_555
H6 C9 1_555 1_555
C10 C9 1_555 1_555
C11 C10 1_555 1_555
H7 C11 1_555 1_555
C12 C10 1_555 1_555
H8 C12 1_555 1_555
N2 H9 1_555 1_555
H10 N2 1_555 1_555
C13 N2 1_555 1_555
H11 C13 1_555 1_555
H12 C13 1_555 1_555
H13 C13 1_555 1_555
C14 N2 1_555 1_555
H14 C14 1_555 1_555
H15 C14 1_555 1_555
H16 C14 1_555 1_555
O5 H17 1_555 1_555
H18 O5 1_555 1_555
O1A C1A 1_555 1_555
O2A C1A 1_555 1_555
O3A C8A 1_555 1_555
O4A C8A 1_555 1_555
N1A H1A 1_555 1_555
C1A C2A 1_555 1_555
C2A C3A 1_555 1_555
C3A H2A 1_555 1_555
C4A N1A 1_555 1_555
C5A C4A 1_555 1_555
H3A C5A 1_555 1_555
C6A C5A 1_555 1_555
C7A C2A 1_555 1_555
H4A C7A 1_555 1_555
C8A C6A 1_555 1_555
C9A N1A 1_555 1_555
H5A C9A 1_555 1_555
H6A C9A 1_555 1_555
C10A C9A 1_555 1_555
C11A C11 1_555 1_555
H7A C11A 1_555 1_555
C12A C12 1_555 1_555
H8A C12A 1_555 1_555
Zn1_2 O1A 1_555 1_555
Zn1B O4A 1_555 1_555
Zn1B_2 O4 1_555 1_555
O1A_2 Zn1 1_555 1_555
O4B Zn1 1_555 1_555
O4C Zn1 1_555 1_555
C3 C4 1_555 1_555
C6 C7 1_555 1_555
C3A C4A 1_555 1_555
C6A C7A 1_555 1_555
C10A C11A 1_555 1_555
C10A C12A 1_555 1_555

#END
