
#######################################################################
#
#                 Cambridge Crystallographic Data Centre
#                                CCDC 
#
#######################################################################
#
# If this CIF has been generated from an entry in the Cambridge 
# Structural Database, then it will include bibliographic, chemical, 
# crystal, experimental, refinement or atomic coordinate data resulting 
# from the CCDC's data processing and validation procedures.
#
#######################################################################

data_HISFUM
_symmetry_cell_setting           triclinic
_symmetry_space_group_name_H-M   'P -1'
_symmetry_Int_Tables_number      2
_space_group_name_Hall           '-P 1'
loop_
_symmetry_equiv_pos_site_id
_symmetry_equiv_pos_as_xyz
1 x,y,z
2 -x,-y,-z
_cell_length_a                   6.0616(4)
_cell_length_b                   10.9133(7)
_cell_length_c                   12.8782(7)
_cell_angle_alpha                72.017(3)
_cell_angle_beta                 79.418(3)
_cell_angle_gamma                78.143(3)
_cell_volume                     786.373
loop_
_atom_site_label
_atom_site_type_symbol
_atom_site_fract_x
_atom_site_fract_y
_atom_site_fract_z
Na1 Na 0.4081(2) 0.42159(14) 0.42480(11)
S1 S 0.23315(14) 0.25076(8) 0.27657(7)
O1 O 0.7589(4) 0.4221(3) -0.2421(2)
O2 O 0.4071(4) 0.4308(3) -0.2740(2)
O3 O -0.0911(4) -0.3407(2) 0.4639(2)
O4 O 0.2722(4) -0.3901(2) 0.4933(2)
O5 O 0.4143(4) 0.2573(2) 0.3328(2)
O6 O 0.0134(4) 0.3290(2) 0.2922(2)
C1 C 0.5548(6) 0.4073(3) -0.2115(3)
C2 C 0.4789(6) 0.3597(4) -0.0883(3)
C3 C 0.2559(9) 0.3497(8) -0.0508(4)
H1 H 0.1529 0.3662 -0.1007
C4 C 0.1815(9) 0.3150(9) 0.0617(4)
H2 H 0.0288 0.3097 0.0868
C5 C 0.3320(6) 0.2889(3) 0.1348(3)
C6 C 0.5555(7) 0.2976(6) 0.0986(4)
H3 H 0.6587 0.2796 0.1486
C7 C 0.6277(7) 0.3338(6) -0.0141(3)
H4 H 0.7800 0.3405 -0.0391
C8 C 0.1908(6) 0.0862(3) 0.3163(3)
C9 C 0.3790(6) -0.0108(3) 0.3158(3)
H5 H 0.5226 0.0110 0.2867
C10 C 0.3511(6) -0.1402(3) 0.3589(3)
H6 H 0.4762 -0.2059 0.3596
C11 C 0.1337(6) -0.1722(3) 0.4016(3)
C12 C -0.0546(6) -0.0734(3) 0.3970(3)
H7 H -0.1993 -0.0951 0.4225
C13 C -0.0281(6) 0.0570(3) 0.3550(3)
H8 H -0.1531 0.1230 0.3526
C14 C 0.1032(6) -0.3123(3) 0.4561(3)
Na2 Na 1.0864(2) 0.47174(14) -0.34525(11)
Na1_2 Na 0.4081(2) -0.57841(14) 0.42480(11)
Na1A Na -0.4081(2) -0.42159(14) 0.57520(11)
Na1A_2 Na 0.5919(2) -0.42159(14) 0.57520(11)
Na1A_3 Na 0.5919(2) 0.57841(14) -0.42480(11)
O1A O 0.2411(4) 0.5779(3) 0.2421(2)
O2_2 O 1.4071(4) 0.4308(3) -0.2740(2)
O2A O 0.5929(4) 0.5692(3) 0.2740(2)
O3_2 O 0.9089(4) 0.6593(2) -0.5361(2)
O3A O 0.0911(4) 0.3407(2) 0.5361(2)
O3A_2 O 1.0911(4) 0.3407(2) -0.4639(2)
O4_2 O 0.2722(4) 0.6099(2) 0.4933(2)
O4_3 O 1.2722(4) 0.6099(2) -0.5067(2)
O4A O 0.7278(4) 0.3901(2) 0.5067(2)
O6A O 0.9866(4) 0.6710(2) -0.2922(2)
Na2_2 Na 0.0864(2) -0.52826(14) 0.65475(11)
Na2_3 Na 0.0864(2) 0.47174(14) -0.34525(11)
Na2A Na -0.0864(2) -0.47174(14) 0.34525(11)
Na2A_2 Na -0.0864(2) 0.52826(14) 0.34525(11)
loop_
_geom_bond_atom_site_label_1
_geom_bond_atom_site_label_2
_geom_bond_site_symmetry_1
_geom_bond_site_symmetry_2
Na1 O5 1_555 1_555
S1 O5 1_555 1_555
O1 C1 1_555 1_555
O2 C1 1_555 1_555
O3 C14 1_555 1_555
O4 C14 1_555 1_555
O6 S1 1_555 1_555
C1 C2 1_555 1_555
C2 C3 1_555 1_555
C3 H1 1_555 1_555
C4 C3 1_555 1_555
H2 C4 1_555 1_555
C5 S1 1_555 1_555
C6 C5 1_555 1_555
H3 C6 1_555 1_555
C7 C2 1_555 1_555
H4 C7 1_555 1_555
C8 S1 1_555 1_555
C9 C8 1_555 1_555
H5 C9 1_555 1_555
C10 C9 1_555 1_555
H6 C10 1_555 1_555
C11 C10 1_555 1_555
C12 C11 1_555 1_555
H7 C12 1_555 1_555
C13 C8 1_555 1_555
H8 C13 1_555 1_555
C14 C11 1_555 1_555
Na2 O1 1_555 1_555
Na1_2 O4 1_555 1_555
Na1A O3 1_555 1_555
Na1A_2 O4 1_555 1_555
Na1A_3 O1 1_555 1_555
O1A Na1 1_555 1_555
O2_2 Na2 1_555 1_555
O2A Na1 1_555 1_555
O3_2 Na2 1_555 1_555
O3A Na1 1_555 1_555
O3A_2 Na2 1_555 1_555
O4_2 Na1 1_555 1_555
O4_3 Na2 1_555 1_555
O4A Na1 1_555 1_555
O6A Na2 1_555 1_555
Na2_2 O3 1_555 1_555
Na2_3 O2 1_555 1_555
Na2A O3 1_555 1_555
Na2A_2 O6 1_555 1_555
O2 Na1A_3 1_555 1_555
O4 Na2_2 1_555 1_555
C4 C5 1_555 1_555
C6 C7 1_555 1_555
C12 C13 1_555 1_555
Na1A_3 O3_2 1_555 1_555
O1A Na2A_2 1_555 1_555
O3A Na2A_2 1_555 1_555

#END
