
#######################################################################
#
#                 Cambridge Crystallographic Data Centre
#                                CCDC 
#
#######################################################################
#
# If this CIF has been generated from an entry in the Cambridge 
# Structural Database, then it will include bibliographic, chemical, 
# crystal, experimental, refinement or atomic coordinate data resulting 
# from the CCDC's data processing and validation procedures.
#
#######################################################################

data_HIVQAG
_symmetry_cell_setting           monoclinic
_symmetry_space_group_name_H-M   'P 21'
_symmetry_Int_Tables_number      4
_space_group_name_Hall           'P 2yb'
loop_
_symmetry_equiv_pos_site_id
_symmetry_equiv_pos_as_xyz
1 x,y,z
2 -x,1/2+y,-z
_cell_length_a                   9.9165(6)
_cell_length_b                   13.0528(7)
_cell_length_c                   10.9693(7)
_cell_angle_alpha                90
_cell_angle_beta                 101.633(6)
_cell_angle_gamma                90
_cell_volume                     1390.68
loop_
_atom_site_label
_atom_site_type_symbol
_atom_site_fract_x
_atom_site_fract_y
_atom_site_fract_z
Mn1 Mn 0.12446(9) 0.11153(8) 0.25318(9)
Mn2 Mn 0.62643(9) 0.11244(8) 0.24822(9)
C1 C 0.4097(5) 0.0143(5) 0.4009(5)
C2 C 0.3992(6) -0.0770(5) 0.4810(5)
C3 C 0.4012(5) -0.1755(5) 0.4359(4)
H1 H 0.4075 -0.1869 0.3536
C4 C 0.3937(6) -0.2559(5) 0.5136(5)
H2 H 0.3922 -0.3219 0.4813
C5 C 0.3878(5) -0.1513(5) 0.6769(4)
H3 H 0.3847 -0.1424 0.7604
C6 C 0.3918(5) -0.0667(5) 0.6042(4)
H4 H 0.3894 -0.0016 0.6384
C7 C -0.0912(5) 0.0141(5) 0.4038(5)
C8 C -0.0985(5) -0.0764(5) 0.4868(5)
C9 C 0.0188(4) -0.1343(5) 0.5329(4)
H5 H 0.1029 -0.1172 0.5132
C10 C 0.0082(4) -0.2160(5) 0.6071(4)
H6 H 0.0865 -0.2547 0.6372
C11 C -0.2181(4) -0.1867(5) 0.5997(5)
H7 H -0.2991 -0.2046 0.6247
C12 C -0.2196(4) -0.1034(5) 0.5248(5)
H8 H -0.2996 -0.0654 0.4996
C13 C 0.3441(5) 0.2091(6) 0.1015(5)
C14 C 0.3496(6) 0.3009(6) 0.0190(6)
C15 C 0.3366(6) 0.3992(5) 0.0643(4)
H9 H 0.3225 0.4089 0.1447
C16 C 0.3450(5) 0.4821(5) -0.0120(4)
H10 H 0.3405 0.5475 0.0206
C17 C 0.3691(5) 0.3775(5) -0.1720(4)
H11 H 0.3764 0.3689 -0.2546
C18 C 0.3691(5) 0.2913(5) -0.0998(4)
H12 H 0.3823 0.2270 -0.1319
C19 C 0.8417(5) 0.2102(5) 0.0972(5)
C20 C 0.8461(6) 0.2976(5) 0.0074(6)
C21 C 0.7352(4) 0.3587(5) -0.0295(4)
H13 H 0.6531 0.3449 -0.0040
C22 C 0.7452(4) 0.4422(5) -0.1058(4)
H14 H 0.6674 0.4825 -0.1316
C23 C 0.9684(5) 0.4044(5) -0.1100(5)
H15 H 1.0486 0.4175 -0.1390
C24 C 0.9646(4) 0.3204(5) -0.0330(5)
H16 H 1.0424 0.2797 -0.0089
N1 N 0.3884(5) -0.2450(5) 0.6325(5)
N2 N -0.1086(5) -0.2427(4) 0.6382(5)
N3 N 0.3593(5) 0.4733(5) -0.1302(5)
N4 N 0.8599(5) 0.4677(5) -0.1441(5)
O1 O 0.5140(4) 0.0194(4) 0.3541(4)
O2 O 0.3148(4) 0.0789(4) 0.3866(4)
O3 O 0.0170(4) 0.0261(4) 0.3669(5)
O4 O -0.1942(4) 0.0722(4) 0.3806(4)
O5 O 0.2380(5) 0.2051(5) 0.1448(5)
O6 O 0.4419(4) 0.1499(5) 0.1148(4)
O7 O 0.7324(4) 0.2067(4) 0.1385(5)
O8 O 0.9405(4) 0.1522(4) 0.1184(4)
Mn1_2 Mn 1.12446(9) 0.11153(8) 0.25318(9)
Mn1A Mn -0.12446(9) -0.38847(8) 0.74682(9)
Mn1A_2 Mn 0.87554(9) 0.61153(8) -0.25318(9)
Mn2_2 Mn -0.37357(9) 0.11244(8) 0.24822(9)
Mn2A Mn 0.37357(9) -0.38756(8) 0.75178(9)
Mn2A_2 Mn 0.37357(9) 0.61244(8) -0.24822(9)
N1A N 0.6116(5) 0.2550(5) 0.3675(5)
N2A N 0.1086(5) 0.2573(4) 0.3618(5)
N3A N 0.6407(5) -0.0267(5) 0.1302(5)
N4A N 0.1401(5) -0.0323(5) 0.1441(5)
O4_2 O 0.8058(4) 0.0722(4) 0.3806(4)
O8_2 O -0.0595(4) 0.1522(4) 0.1184(4)
O9 O 0.9546(15) 0.1024(8) -0.2435(9)
O10 O 0.2529(8) -0.3908(8) 0.2518(6)
loop_
_geom_bond_atom_site_label_1
_geom_bond_atom_site_label_2
_geom_bond_site_symmetry_1
_geom_bond_site_symmetry_2
Mn1 O2 1_555 1_555
Mn2 O1 1_555 1_555
C1 C2 1_555 1_555
C2 C3 1_555 1_555
C3 H1 1_555 1_555
C4 C3 1_555 1_555
H2 C4 1_555 1_555
C5 H3 1_555 1_555
C6 C2 1_555 1_555
H4 C6 1_555 1_555
C7 C8 1_555 1_555
C8 C9 1_555 1_555
C9 H5 1_555 1_555
C10 C9 1_555 1_555
H6 C10 1_555 1_555
C11 H7 1_555 1_555
C12 C8 1_555 1_555
H8 C12 1_555 1_555
C13 C14 1_555 1_555
C14 C15 1_555 1_555
C15 H9 1_555 1_555
C16 C15 1_555 1_555
H10 C16 1_555 1_555
C17 H11 1_555 1_555
C18 C14 1_555 1_555
H12 C18 1_555 1_555
C19 C20 1_555 1_555
C20 C21 1_555 1_555
C21 H13 1_555 1_555
C22 C21 1_555 1_555
H14 C22 1_555 1_555
C23 H15 1_555 1_555
C24 C20 1_555 1_555
H16 C24 1_555 1_555
N1 C4 1_555 1_555
N2 C10 1_555 1_555
N3 C16 1_555 1_555
N4 C22 1_555 1_555
O1 C1 1_555 1_555
O2 C1 1_555 1_555
O3 Mn1 1_555 1_555
O4 C7 1_555 1_555
O5 Mn1 1_555 1_555
O6 Mn2 1_555 1_555
O7 Mn2 1_555 1_555
O8 C19 1_555 1_555
Mn1_2 O8 1_555 1_555
Mn1A N2 1_555 1_555
Mn1A_2 N4 1_555 1_555
Mn2_2 O4 1_555 1_555
Mn2A N1 1_555 1_555
Mn2A_2 N3 1_555 1_555
N1A Mn2 1_555 1_555
N2A Mn1 1_555 1_555
N3A Mn2 1_555 1_555
N4A Mn1 1_555 1_555
O4_2 Mn2 1_555 1_555
O8_2 Mn1 1_555 1_555
C5 C6 1_555 1_555
C5 N1 1_555 1_555
C7 O3 1_555 1_555
C11 C12 1_555 1_555
C11 N2 1_555 1_555
C13 O5 1_555 1_555
C13 O6 1_555 1_555
C17 C18 1_555 1_555
C17 N3 1_555 1_555
C19 O7 1_555 1_555
C23 C24 1_555 1_555
C23 N4 1_555 1_555

#END
