
#######################################################################
#
#                 Cambridge Crystallographic Data Centre
#                                CCDC 
#
#######################################################################
#
# If this CIF has been generated from an entry in the Cambridge 
# Structural Database, then it will include bibliographic, chemical, 
# crystal, experimental, refinement or atomic coordinate data resulting 
# from the CCDC's data processing and validation procedures.
#
#######################################################################

data_HOCDIO
_symmetry_cell_setting           monoclinic
_symmetry_space_group_name_H-M   'P 21/n'
_symmetry_Int_Tables_number      14
_space_group_name_Hall           '-P 2yn'
loop_
_symmetry_equiv_pos_site_id
_symmetry_equiv_pos_as_xyz
1 x,y,z
2 1/2-x,1/2+y,1/2-z
3 -x,-y,-z
4 1/2+x,1/2-y,1/2+z
_cell_length_a                   8.8749(3)
_cell_length_b                   7.4104(2)
_cell_length_c                   15.2333(5)
_cell_angle_alpha                90
_cell_angle_beta                 102.172(3)
_cell_angle_gamma                90
_cell_volume                     979.319
loop_
_atom_site_label
_atom_site_type_symbol
_atom_site_fract_x
_atom_site_fract_y
_atom_site_fract_z
Co1 Co 0.78969(4) 0.52945(5) 0.10589(2)
P1 P 0.87064(8) 0.88556(10) 0.23356(5)
H1 H 0.996(3) 0.9454(13) 0.2845(11)
O1 O 0.8181(3) 1.0285(3) 0.15844(15)
H2 H 0.7999 1.1242 0.1812
O2 O 0.7534(2) 0.8644(3) 0.29171(11)
O3 O 0.91137(19) 0.7165(3) 0.19059(11)
O4 O 0.65498(19) 0.3515(3) 0.01205(12)
O5 O 0.42537(19) 0.3388(2) -0.08106(11)
O6 O 0.99412(19) 0.3878(3) 0.10056(11)
O7 O 1.1516(2) 0.3483(3) 0.00600(12)
C1 C 0.5230(3) 0.4103(4) -0.01968(17)
C2 C 1.0417(3) 0.4245(4) 0.03060(16)
O4B O 0.34502(19) 0.6485(3) -0.01205(12)
O5B O 0.57463(19) 0.6612(2) 0.08106(11)
C1B C 0.4770(3) 0.5897(4) 0.01968(17)
O6B O 1.00588(19) 0.6122(3) -0.10056(11)
O7B O 0.8484(2) 0.6517(3) -0.00600(12)
C2B C 0.9583(3) 0.5755(4) -0.03060(16)
Co1B Co 0.21031(4) 0.47055(5) -0.10589(2)
P1B P 0.12936(8) 0.11444(10) -0.23356(5)
H1B H 0.004(3) 0.0546(13) -0.2845(11)
O1B O 0.1819(3) -0.0285(3) -0.15844(15)
H2B H 0.2001 -0.1242 -0.1812
O2B O 0.2466(2) 0.1356(3) -0.29171(11)
O3B O 0.08863(19) 0.2835(3) -0.19059(11)
Co1A Co 0.71031(4) 1.02945(5) 0.39411(2)
Co1B_2 Co 1.21031(4) 0.47055(5) -0.10589(2)
Co1C Co 0.28969(4) -0.02945(5) -0.39411(2)
O2A O 0.7466(2) 0.3644(3) 0.20829(11)
O2C O 0.2534(2) 0.6356(3) -0.20829(11)
O6B_2 O 0.00588(19) 0.6122(3) -0.10056(11)
O7_2 O 0.1516(2) 0.3483(3) 0.00600(12)
N1 N 0.2349(3) 0.9795(4) 0.05964(17)
H3 H 0.2637 0.8926 0.0295
H4 H 0.1597 1.0481 0.0350
N2 N 0.4206(3) 0.9032(4) 0.18116(17)
H5 H 0.4493 0.8163 0.1510
H6 H 0.4670 0.9215 0.2359
N3 N 0.2584(3) 1.1362(4) 0.19118(16)
H7 H 0.3025 1.1512 0.2466
H8 H 0.1832 1.2050 0.1667
C3 C 0.3062(3) 1.0075(4) 0.14367(19)
loop_
_geom_bond_atom_site_label_1
_geom_bond_atom_site_label_2
_geom_bond_site_symmetry_1
_geom_bond_site_symmetry_2
Co1 O3 1_555 1_555
P1 H1 1_555 1_555
O1 P1 1_555 1_555
H2 O1 1_555 1_555
O2 P1 1_555 1_555
O3 P1 1_555 1_555
O4 Co1 1_555 1_555
O5 C1 1_555 1_555
O6 Co1 1_555 1_555
O7 C2 1_555 1_555
C1 O4 1_555 1_555
C2 O6 1_555 1_555
N1 H3 1_555 1_555
H4 N1 1_555 1_555
N2 H5 1_555 1_555
H6 N2 1_555 1_555
N3 H7 1_555 1_555
H8 N3 1_555 1_555
C3 N1 1_555 1_555
O4B C1B 1_555 1_555
O5B Co1 1_555 1_555
C1B C1 1_555 1_555
O6B C2B 1_555 1_555
O7B Co1 1_555 1_555
C2B C2 1_555 1_555
Co1B O5 1_555 1_555
P1B H1B 1_555 1_555
O1B P1B 1_555 1_555
H2B O1B 1_555 1_555
O2B P1B 1_555 1_555
O3B Co1B 1_555 1_555
Co1A O2 1_555 1_555
Co1B_2 O7 1_555 1_555
Co1C O2B 1_555 1_555
O2A Co1 1_555 1_555
O2C Co1B 1_555 1_555
O6B_2 Co1B 1_555 1_555
O7_2 Co1B 1_555 1_555
N2 C3 1_555 1_555
N3 C3 1_555 1_555
O4B Co1B 1_555 1_555
O5B C1B 1_555 1_555
O6B Co1B_2 1_555 1_555
O7B C2B 1_555 1_555
P1B O3B 1_555 1_555

#END
