
#######################################################################
#
#                 Cambridge Crystallographic Data Centre
#                                CCDC 
#
#######################################################################
#
# If this CIF has been generated from an entry in the Cambridge 
# Structural Database, then it will include bibliographic, chemical, 
# crystal, experimental, refinement or atomic coordinate data resulting 
# from the CCDC's data processing and validation procedures.
#
#######################################################################

data_HODWUS
_symmetry_cell_setting           monoclinic
_symmetry_space_group_name_H-M   'P 21/m'
_symmetry_Int_Tables_number      11
_space_group_name_Hall           '-P 2yb'
loop_
_symmetry_equiv_pos_site_id
_symmetry_equiv_pos_as_xyz
1 x,y,z
2 -x,1/2+y,-z
3 -x,-y,-z
4 x,1/2-y,z
_cell_length_a                   9.0494(12)
_cell_length_b                   17.475(2)
_cell_length_c                   10.5357(10)
_cell_angle_alpha                90
_cell_angle_beta                 106.359(8)
_cell_angle_gamma                90
_cell_volume                     1598.65
loop_
_atom_site_label
_atom_site_type_symbol
_atom_site_fract_x
_atom_site_fract_y
_atom_site_fract_z
Cd1 Cd 0.00000 0.0000 0.00000
Cd2 Cd 0.16794(7) 0.2500 0.34898(5)
Cd3 Cd 0.77230(7) 0.2500 0.66831(5)
C1 C 0.1204(7) 0.1446(4) 0.2312(5)
N1 N 0.0886(7) 0.0929(3) 0.1643(5)
C2 C 0.4089(8) 0.2500 0.4689(7)
N2 N 0.5331(9) 0.2500 0.5320(7)
C3 C 1.0212(9) 0.2500 0.4829(7)
N3 N 0.9372(9) 0.2500 0.5416(8)
C4 C 0.8204(7) 0.1462(3) 0.7905(5)
N4 N -0.1441(7) 0.0951(3) -0.1432(5)
N5 N 0.2180(8) 0.0304(5) -0.0657(6)
H1 H 0.2226(8) 0.0818(5) -0.0675(6)
H2 H 0.2996(8) 0.0149(5) 0.0001(6)
C5 C 0.2441(12) 0.0041(7) -0.1859(9)
H3 H 0.1854(12) -0.0438(7) -0.1982(9)
C6 C 0.1576(17) 0.0457(7) -0.3030(9)
H4 H 0.1887(17) 0.0990(7) -0.2939(9)
H5 H 0.0489(17) 0.0435(7) -0.3083(9)
C7 C 0.181(2) 0.0142(11) -0.4324(12)
H6 H 0.1306(23) -0.0352(11) -0.4522(12)
H7 H 0.1345(23) 0.0487(11) -0.5048(12)
C8 C 0.350(2) 0.0060(12) -0.4183(18)
H8 H 0.4034(22) 0.0536(12) -0.3882(18)
H9 H 0.3668(22) -0.0082(12) -0.5020(18)
C9 C 0.404(2) -0.0569(9) -0.3161(15)
H10 H 0.5089(22) -0.0717(9) -0.3116(15)
H11 H 0.3386(22) -0.1016(9) -0.3400(15)
C10 C 0.3968(16) -0.0256(11) -0.1831(13)
H12 H 0.4245(16) -0.0660(11) -0.1175(13)
H13 H 0.4720(16) 0.0150(11) -0.1560(13)
C1C C 0.1204(7) 0.3554(4) 0.2312(5)
N1C N 0.0886(7) 0.4071(3) 0.1643(5)
Cd1C Cd 0.00000 0.5000 0.00000
Cd2_2 Cd 1.16794(7) 0.2500 0.34898(5)
Cd3_2 Cd -0.22770(7) 0.2500 -0.33169(5)
C4_2 C -0.1796(7) 0.1462(3) -0.2095(5)
N1B N -0.0886(7) -0.0929(3) -0.1643(5)
N4B N 0.1441(7) -0.0951(3) 0.1432(5)
N5B N -0.2180(8) -0.0304(5) 0.0657(6)
H1B H -0.2226(8) -0.0818(5) 0.0675(6)
H2B H -0.2996(8) -0.0149(5) -0.0001(6)
C5B C -0.2441(12) -0.0041(7) 0.1859(9)
H3B H -0.1854(12) 0.0438(7) 0.1982(9)
C6B C -0.1576(17) -0.0457(7) 0.3030(9)
H4B H -0.1887(17) -0.0990(7) 0.2939(9)
H5B H -0.0489(17) -0.0435(7) 0.3083(9)
C7B C -0.181(2) -0.0142(11) 0.4324(12)
H6B H -0.1306(23) 0.0352(11) 0.4522(12)
H7B H -0.1345(23) -0.0487(11) 0.5048(12)
C8B C -0.350(2) -0.0060(12) 0.4183(18)
H8B H -0.4034(22) -0.0536(12) 0.3882(18)
H9B H -0.3668(22) 0.0082(12) 0.5020(18)
C9B C -0.404(2) 0.0569(9) 0.3161(15)
H10B H -0.5089(22) 0.0717(9) 0.3116(15)
H11B H -0.3386(22) 0.1016(9) 0.3400(15)
C10B C -0.3968(16) 0.0256(11) 0.1831(13)
H12B H -0.4245(16) 0.0660(11) 0.1175(13)
H13B H -0.4720(16) -0.0150(11) 0.1560(13)
C3_2 C 0.0212(9) 0.2500 0.4829(7)
C4C C 0.8204(7) 0.3538(3) 0.7905(5)
N4_2 N 0.8559(7) 0.0951(3) 0.8568(5)
Cd1_2 Cd 1.00000 0.0000 1.00000
C11 C 0.5491(17) 0.2500 1.048(2)
C12 C 0.529(3) 0.2500 0.920(3)
H14 H 0.6131(27) 0.2500 0.8853(26)
C13 C 0.371(3) 0.2500 0.8317(17)
H15 H 0.3567(28) 0.2500 0.7408(17)
C14 C 0.2592(19) 0.2500 0.8733(13)
H16 H 0.1618(19) 0.2500 0.8130(13)
C15 C 0.2701(16) 0.2500 0.9960(12)
H17 H 0.1822(16) 0.2500 1.0252(12)
C16 C 0.4090(19) 0.2500 1.0820(13)
H18 H 0.4145(19) 0.2500 1.1714(13)
C17 C 0.7085(19) 0.2500 1.1480(21)
H19? H 0.734(11) 0.3009(24) 1.181(17)
H20? H 0.7836(40) 0.233(12) 1.1056(58)
H21? H 0.7084(72) 0.2162(97) 1.220(11)
loop_
_geom_bond_atom_site_label_1
_geom_bond_atom_site_label_2
_geom_bond_site_symmetry_1
_geom_bond_site_symmetry_2
Cd1 N1 1_555 1_555
Cd2 C1 1_555 1_555
Cd3 N2 1_555 1_555
C1 N1 1_555 1_555
C2 Cd2 1_555 1_555
N2 C2 1_555 1_555
C3 N3 1_555 1_555
N3 Cd3 1_555 1_555
C4 Cd3 1_555 1_555
N4 Cd1 1_555 1_555
N5 Cd1 1_555 1_555
H1 N5 1_555 1_555
H2 N5 1_555 1_555
C5 N5 1_555 1_555
H3 C5 1_555 1_555
C6 C5 1_555 1_555
H4 C6 1_555 1_555
H5 C6 1_555 1_555
C7 C6 1_555 1_555
H6 C7 1_555 1_555
H7 C7 1_555 1_555
C8 C7 1_555 1_555
H8 C8 1_555 1_555
H9 C8 1_555 1_555
C9 C8 1_555 1_555
H10 C9 1_555 1_555
H11 C9 1_555 1_555
C10 C5 1_555 1_555
H12 C10 1_555 1_555
H13 C10 1_555 1_555
C11 C12 1_555 1_555
C12 H14 1_555 1_555
C13 C12 1_555 1_555
H15 C13 1_555 1_555
C14 C13 1_555 1_555
H16 C14 1_555 1_555
C15 C14 1_555 1_555
H17 C15 1_555 1_555
C16 C11 1_555 1_555
H18 C16 1_555 1_555
C17 C11 1_555 1_555
C1C Cd2 1_555 1_555
N1C C1C 1_555 1_555
Cd1C N1C 1_555 1_555
Cd2_2 C3 1_555 1_555
Cd3_2 C4_2 1_555 1_555
C4_2 N4 1_555 1_555
N1B Cd1 1_555 1_555
N4B Cd1 1_555 1_555
N5B Cd1 1_555 1_555
H1B N5B 1_555 1_555
H2B N5B 1_555 1_555
C5B N5B 1_555 1_555
H3B C5B 1_555 1_555
C6B C5B 1_555 1_555
H4B C6B 1_555 1_555
H5B C6B 1_555 1_555
C7B C6B 1_555 1_555
H6B C7B 1_555 1_555
H7B C7B 1_555 1_555
C8B C7B 1_555 1_555
H8B C8B 1_555 1_555
H9B C8B 1_555 1_555
C9B C8B 1_555 1_555
H10B C9B 1_555 1_555
H11B C9B 1_555 1_555
C10B C5B 1_555 1_555
H12B C10B 1_555 1_555
H13B C10B 1_555 1_555
C3_2 Cd2 1_555 1_555
C4C Cd3 1_555 1_555
N4_2 C4 1_555 1_555
Cd1_2 N4_2 1_555 1_555
C9 C10 1_555 1_555
C15 C16 1_555 1_555
C9B C10B 1_555 1_555

#END
