
#######################################################################
#
#                 Cambridge Crystallographic Data Centre
#                                CCDC 
#
#######################################################################
#
# If this CIF has been generated from an entry in the Cambridge 
# Structural Database, then it will include bibliographic, chemical, 
# crystal, experimental, refinement or atomic coordinate data resulting 
# from the CCDC's data processing and validation procedures.
#
#######################################################################

data_HOGJUK
_symmetry_cell_setting           monoclinic
_symmetry_space_group_name_H-M   'C 2/c'
_symmetry_Int_Tables_number      15
_space_group_name_Hall           '-C 2yn'
loop_
_symmetry_equiv_pos_site_id
_symmetry_equiv_pos_as_xyz
1 x,y,z
2 -x,y,1/2-z
3 1/2+x,1/2+y,z
4 1/2-x,1/2+y,1/2-z
5 -x,-y,-z
6 x,-y,1/2+z
7 1/2-x,1/2-y,-z
8 1/2+x,1/2-y,1/2+z
_cell_length_a                   8.8345(11)
_cell_length_b                   35.591(4)
_cell_length_c                   16.246(2)
_cell_angle_alpha                90
_cell_angle_beta                 93.437(6)
_cell_angle_gamma                90
_cell_volume                     5099.02
loop_
_atom_site_label
_atom_site_type_symbol
_atom_site_fract_x
_atom_site_fract_y
_atom_site_fract_z
C1 C 0.7858(8) 0.2391(2) 0.2930(4)
C2 C 0.3295(9) 0.1242(2) 0.3099(4)
C3 C 0.4104(8) 0.14231(19) 0.3867(4)
C4 C 0.5008(8) 0.02214(17) 0.3602(4)
C5 C 0.3458(8) 0.00271(17) 0.3652(4)
C6 C 0.2707(7) 0.06728(17) 0.5998(4)
C7 C 0.1171(8) 0.0800(2) 0.5582(5)
C8 C 0.9580(7) 0.36598(17) 0.2905(4)
C9 C 0.7202(9) 0.25833(19) 0.2126(4)
Cr1 Cr 0.31644(11) 0.07284(3) 0.43526(6)
Cr2 Cr 1.0000 0.29117(4) 0.2500
Mn1 Mn 1.0000 0.44948(4) 0.2500
Mn2 Mn 0.5000 0.19466(4) 0.2500
O1 O 0.9141(6) 0.25227(14) 0.3212(3)
O2 O 0.7128(6) 0.21379(13) 0.3231(3)
O3 O 0.7991(6) 0.28591(13) 0.1877(3)
O4 O 0.9351(6) 0.33273(12) 0.3203(3)
O5 O 0.4710(7) 0.17323(13) 0.3783(3)
O6 O 0.3285(7) 0.14141(15) 0.2436(3)
O7 O 0.4038(6) 0.12339(12) 0.4534(3)
O8 O 0.2630(5) 0.09273(13) 0.3239(3)
O9 O 0.5118(5) 0.05419(12) 0.3979(3)
O10 O 0.2461(5) 0.02196(12) 0.4028(3)
O11 O 0.1205(5) 0.08567(13) 0.4804(3)
O12 O 0.3728(5) 0.05957(12) 0.5501(3)
O13 O 0.3232(6) -0.02820(12) 0.3335(3)
O14 O 0.5991(5) 0.00686(14) 0.3226(3)
O15 O 0.9274(5) 0.39604(12) 0.3220(3)
O16 O 0.2833(5) 0.06594(13) 0.6761(3)
O17 O 0.0053(6) 0.0849(2) 0.5982(3)
O18 O 0.6022(6) 0.24659(14) 0.1811(3)
C8A C 1.0420(7) 0.36598(17) 0.2095(4)
O4A O 1.0649(6) 0.33273(12) 0.1797(3)
O15A O 1.0726(5) 0.39604(12) 0.1780(3)
C1A C 0.2142(8) 0.2391(2) 0.2070(4)
C2A C 0.6705(9) 0.1242(2) 0.1901(4)
C3A C 0.5896(8) 0.14231(19) 0.1133(4)
C4A C 0.4992(8) 0.02214(17) 0.1398(4)
C5A C 0.6542(8) 0.00271(17) 0.1348(4)
C6A C 0.7293(7) 0.06728(17) -0.0998(4)
C7A C 0.8829(8) 0.0800(2) -0.0582(5)
C9A C 0.2798(9) 0.25833(19) 0.2874(4)
Cr1A Cr 0.68356(11) 0.07284(3) 0.06474(6)
O1A O 0.0859(6) 0.25227(14) 0.1788(3)
O2A O 0.2872(6) 0.21379(13) 0.1769(3)
O3A O 0.2009(6) 0.28591(13) 0.3123(3)
O5A O 0.5290(7) 0.17323(13) 0.1217(3)
O6A O 0.6715(7) 0.14141(15) 0.2564(3)
O7A O 0.5962(6) 0.12339(12) 0.0466(3)
O8A O 0.7370(5) 0.09273(13) 0.1761(3)
O9A O 0.4882(5) 0.05419(12) 0.1021(3)
O10A O 0.7539(5) 0.02196(12) 0.0972(3)
O11A O 0.8795(5) 0.08567(13) 0.0196(3)
O12A O 0.6272(5) 0.05957(12) -0.0501(3)
O13A O 0.6768(6) -0.02820(12) 0.1665(3)
O14A O 0.4009(5) 0.00686(14) 0.1774(3)
O16A O 0.7167(5) 0.06594(13) -0.1761(3)
O17A O 0.9947(6) 0.0849(2) -0.0982(3)
O18A O 0.3978(6) 0.24659(14) 0.3189(3)
Cr2_2 Cr 0.0000 0.29117(4) 0.2500
Mn1B Mn 0.5000 -0.05052(4) 0.2500
Mn1F Mn 0.5000 0.05052(4) -0.2500
Mn1F_2 Mn 0.5000 0.05052(4) 0.7500
O1A_2 O 1.0859(6) 0.25227(14) 0.1788(3)
O3A_2 O 1.2009(6) 0.28591(13) 0.3123(3)
O13B O 0.8232(6) 0.47180(12) 0.3335(3)
O13C O 1.1768(6) 0.47180(12) 0.1665(3)
O16F O 1.2167(5) 0.43406(13) 0.3239(3)
O16G O 0.7833(5) 0.43406(13) 0.1761(3)
N1 N 0.0000 0.0401(5) 0.7500
loop_
_geom_bond_atom_site_label_1
_geom_bond_atom_site_label_2
_geom_bond_site_symmetry_1
_geom_bond_site_symmetry_2
C1 C9 1_555 1_555
C2 C3 1_555 1_555
C3 O5 1_555 1_555
C4 C5 1_555 1_555
C5 O10 1_555 1_555
C6 C7 1_555 1_555
C7 O11 1_555 1_555
C8 O4 1_555 1_555
C9 O3 1_555 1_555
Cr1 O7 1_555 1_555
Cr2 O1 1_555 1_555
Mn1 O15 1_555 1_555
Mn2 O2 1_555 1_555
O1 C1 1_555 1_555
O2 C1 1_555 1_555
O3 Cr2 1_555 1_555
O4 Cr2 1_555 1_555
O5 Mn2 1_555 1_555
O6 C2 1_555 1_555
O7 C3 1_555 1_555
O8 C2 1_555 1_555
O9 C4 1_555 1_555
O10 Cr1 1_555 1_555
O11 Cr1 1_555 1_555
O12 C6 1_555 1_555
O13 C5 1_555 1_555
O14 C4 1_555 1_555
O15 C8 1_555 1_555
O16 C6 1_555 1_555
O17 C7 1_555 1_555
O18 C9 1_555 1_555
C8A C8 1_555 1_555
O4A Cr2 1_555 1_555
O15A Mn1 1_555 1_555
C1A C9A 1_555 1_555
C2A C3A 1_555 1_555
C3A O5A 1_555 1_555
C4A C5A 1_555 1_555
C5A O10A 1_555 1_555
C6A C7A 1_555 1_555
C7A O11A 1_555 1_555
C9A O3A 1_555 1_555
Cr1A O7A 1_555 1_555
O1A C1A 1_555 1_555
O2A Mn2 1_555 1_555
O3A Cr2_2 1_555 1_555
O5A Mn2 1_555 1_555
O6A Mn2 1_555 1_555
O7A C3A 1_555 1_555
O8A C2A 1_555 1_555
O9A C4A 1_555 1_555
O10A Cr1A 1_555 1_555
O11A Cr1A 1_555 1_555
O12A C6A 1_555 1_555
O13A C5A 1_555 1_555
O14A C4A 1_555 1_555
O16A C6A 1_555 1_555
O17A C7A 1_555 1_555
O18A Mn2 1_555 1_555
Cr2_2 O1A 1_555 1_555
Mn1B O13 1_555 1_555
Mn1F O16A 1_555 1_555
Mn1F_2 O16 1_555 1_555
O1A_2 Cr2 1_555 1_555
O3A_2 Cr2 1_555 1_555
O13B Mn1 1_555 1_555
O13C Mn1 1_555 1_555
O16F Mn1 1_555 1_555
O16G Mn1 1_555 1_555
Cr1 O8 1_555 1_555
Cr1 O9 1_555 1_555
Cr1 O12 1_555 1_555
Mn2 O6 1_555 1_555
Mn2 O18 1_555 1_555
C8A O4A 1_555 1_555
C8A O15A 1_555 1_555
C1A O2A 1_555 1_555
C2A O6A 1_555 1_555
C9A O18A 1_555 1_555
Cr1A O8A 1_555 1_555
Cr1A O9A 1_555 1_555
Cr1A O12A 1_555 1_555
O13A Mn1B 1_555 1_555

#END
