
#######################################################################
#
#                 Cambridge Crystallographic Data Centre
#                                CCDC 
#
#######################################################################
#
# If this CIF has been generated from an entry in the Cambridge 
# Structural Database, then it will include bibliographic, chemical, 
# crystal, experimental, refinement or atomic coordinate data resulting 
# from the CCDC's data processing and validation procedures.
#
#######################################################################

data_HOJLEY
_symmetry_cell_setting           monoclinic
_symmetry_space_group_name_H-M   'P 21/c'
_symmetry_Int_Tables_number      14
_space_group_name_Hall           '-P 2ybc'
loop_
_symmetry_equiv_pos_site_id
_symmetry_equiv_pos_as_xyz
1 x,y,z
2 -x,1/2+y,1/2-z
3 -x,-y,-z
4 x,1/2-y,1/2+z
_cell_length_a                   13.054(3)
_cell_length_b                   13.568(3)
_cell_length_c                   8.7130(18)
_cell_angle_alpha                90
_cell_angle_beta                 90.184(3)
_cell_angle_gamma                90
_cell_volume                     1543.21
loop_
_atom_site_label
_atom_site_type_symbol
_atom_site_fract_x
_atom_site_fract_y
_atom_site_fract_z
Cu1 Cu 0.58762(2) 0.04017(2) 0.04517(4)
O1 O 0.63549(14) 0.01053(14) -0.1643(2)
O3 O 0.48498(13) -0.04939(13) -0.2421(2)
O5 O 0.63522(14) -0.40791(13) -0.4000(2)
O6 O 0.48633(14) -0.34126(13) -0.4716(2)
N1 N 0.71506(16) 0.13226(15) 0.1203(2)
N2 N 0.98154(16) 0.40763(16) 0.0801(3)
C1 C 0.6900(2) 0.2177(2) 0.1870(3)
H5 H 0.6219 0.2279 0.2143
C2 C 0.7595(2) 0.2914(2) 0.2173(3)
H6 H 0.7380 0.3498 0.2629
C3 C 0.8618(2) 0.27833(19) 0.1798(3)
C4 C 0.8886(2) 0.18941(19) 0.1125(3)
H7 H 0.9563 0.1771 0.0860
C5 C 0.8142(2) 0.11939(19) 0.0852(3)
H8 H 0.8337 0.0602 0.0402
C6 C 0.9400(2) 0.3571(2) 0.2168(3)
H9 H 0.9087 0.4058 0.2833
H10 H 0.9963 0.3272 0.2730
C7 C 1.0573(2) 0.4808(2) 0.1342(3)
H11 H 1.1127 0.4471 0.1870
H12 H 1.0249 0.5251 0.2066
C8 C 0.89972(19) 0.4605(2) -0.0026(3)
H13 H 0.8648 0.5045 0.0677
H14 H 0.8501 0.4135 -0.0414
C9 C 0.5774(2) -0.02817(17) -0.2628(3)
C10 C 0.6224(2) -0.05281(18) -0.4181(3)
H15 H 0.6966 -0.0537 -0.4097
H16 H 0.6038 -0.0015 -0.4905
C11 C 0.5862(2) -0.15162(18) -0.4800(3)
H17 H 0.6175 -0.1636 -0.5790
H18 H 0.5125 -0.1499 -0.4944
C12 C 0.6140(2) -0.23520(18) -0.3702(3)
H19 H 0.6880 -0.2380 -0.3603
H20 H 0.5863 -0.2200 -0.2698
C13 C 0.5757(2) -0.33539(18) -0.4186(3)
Cu1B Cu 0.41238(2) -0.04017(2) -0.04517(4)
Cu1C Cu 0.58762(2) -0.54017(2) -0.45483(4)
Cu1A Cu 0.41238(2) -0.45983(2) -0.54517(4)
Cu1B_2 Cu 1.41238(2) 0.95983(2) -0.04517(4)
Cu1A_2 Cu 0.41238(2) 0.54017(2) 0.45483(4)
Cu1C_2 Cu 0.58762(2) 0.45983(2) 0.54517(4)
O1B O 0.36451(14) -0.01053(14) 0.1643(2)
O3B O 0.51502(13) 0.04939(13) 0.2421(2)
O5B O 0.36478(14) 0.40791(13) 0.4000(2)
O5C O 0.63522(14) -0.09209(13) 0.1000(2)
O5A O 0.36478(14) 0.09209(13) -0.1000(2)
O6B O 0.51367(14) 0.34126(13) 0.4716(2)
O6A O 0.51367(14) 0.15874(13) -0.0284(2)
O6C O 0.48633(14) -0.15874(13) 0.0284(2)
N1B N 1.28494(16) 0.86774(15) -0.1203(2)
N1B_2 N 0.28494(16) -0.13226(15) -0.1203(2)
N2B N 1.01846(16) 0.59237(16) -0.0801(3)
C1B C 1.3100(2) 0.7823(2) -0.1870(3)
H5B H 1.3781 0.7721 -0.2143
C2B C 1.2405(2) 0.7086(2) -0.2173(3)
H6B H 1.2620 0.6502 -0.2629
C3B C 1.1382(2) 0.72167(19) -0.1798(3)
C4B C 1.1114(2) 0.81059(19) -0.1125(3)
H7B H 1.0437 0.8229 -0.0860
C5B C 1.1858(2) 0.88061(19) -0.0852(3)
H8B H 1.1663 0.9398 -0.0402
C6B C 1.0600(2) 0.6429(2) -0.2168(3)
H9B H 1.0913 0.5942 -0.2833
H10B H 1.0037 0.6728 -0.2730
C7B C 0.9427(2) 0.5192(2) -0.1342(3)
H11B H 0.8873 0.5529 -0.1870
H12B H 0.9751 0.4749 -0.2066
C8B C 1.10028(19) 0.5395(2) 0.0026(3)
H13B H 1.1352 0.4955 -0.0677
H14B H 1.1499 0.5865 0.0414
C9B C 0.4226(2) 0.02817(17) 0.2628(3)
C10B C 0.3776(2) 0.05281(18) 0.4181(3)
H15B H 0.3034 0.0537 0.4097
H16B H 0.3962 0.0015 0.4905
C11B C 0.4138(2) 0.15162(18) 0.4800(3)
H17B H 0.3825 0.1636 0.5790
H18B H 0.4875 0.1499 0.4944
C12B C 0.3860(2) 0.23520(18) 0.3702(3)
H19B H 0.3120 0.2380 0.3603
H20B H 0.4137 0.2200 0.2698
C13B C 0.4243(2) 0.33539(18) 0.4186(3)
O2 O 0.88449(19) 0.71938(17) 0.0883(3)
H1 H 0.867(3) 0.694(2) 0.172(3)
H2 H 0.927(2) 0.681(2) 0.045(4)
O4 O 0.8298(2) 0.8672(2) -0.1209(3)
H3 H 0.840(3) 0.829(2) -0.046(3)
H4 H 0.7753(19) 0.897(2) -0.108(4)
loop_
_geom_bond_atom_site_label_1
_geom_bond_atom_site_label_2
_geom_bond_site_symmetry_1
_geom_bond_site_symmetry_2
Cu1 O1 1_555 1_555
O1 C9 1_555 1_555
O2 H1 1_555 1_555
H2 O2 1_555 1_555
O3 C9 1_555 1_555
O4 H3 1_555 1_555
H4 O4 1_555 1_555
O5 C13 1_555 1_555
O6 C13 1_555 1_555
N1 Cu1 1_555 1_555
N2 C6 1_555 1_555
C1 N1 1_555 1_555
H5 C1 1_555 1_555
C2 C1 1_555 1_555
H6 C2 1_555 1_555
C3 C2 1_555 1_555
C4 C3 1_555 1_555
H7 C4 1_555 1_555
C5 N1 1_555 1_555
H8 C5 1_555 1_555
C6 C3 1_555 1_555
H9 C6 1_555 1_555
H10 C6 1_555 1_555
C7 N2 1_555 1_555
H11 C7 1_555 1_555
H12 C7 1_555 1_555
C8 N2 1_555 1_555
H13 C8 1_555 1_555
H14 C8 1_555 1_555
C9 C10 1_555 1_555
C10 H15 1_555 1_555
H16 C10 1_555 1_555
C11 C10 1_555 1_555
H17 C11 1_555 1_555
H18 C11 1_555 1_555
C12 C11 1_555 1_555
H19 C12 1_555 1_555
H20 C12 1_555 1_555
C13 C12 1_555 1_555
Cu1B O3 1_555 1_555
Cu1C O5 1_555 1_555
Cu1A O6 1_555 1_555
Cu1B_2 N1B 1_555 1_555
Cu1A_2 O5B 1_555 1_555
Cu1C_2 O6B 1_555 1_555
O1B Cu1B 1_555 1_555
O3B Cu1 1_555 1_555
O5B C13B 1_555 1_555
O5C Cu1 1_555 1_555
O5A Cu1B 1_555 1_555
O6B C13B 1_555 1_555
O6A Cu1 1_555 1_555
O6C Cu1B 1_555 1_555
N1B C1B 1_555 1_555
N1B_2 Cu1B 1_555 1_555
N2B C6B 1_555 1_555
C1B H5B 1_555 1_555
C2B C1B 1_555 1_555
H6B C2B 1_555 1_555
C3B C2B 1_555 1_555
C4B C3B 1_555 1_555
H7B C4B 1_555 1_555
C5B N1B 1_555 1_555
H8B C5B 1_555 1_555
C6B C3B 1_555 1_555
H9B C6B 1_555 1_555
H10B C6B 1_555 1_555
C7B C8 1_555 1_555
H11B C7B 1_555 1_555
H12B C7B 1_555 1_555
C8B C7 1_555 1_555
H13B C8B 1_555 1_555
H14B C8B 1_555 1_555
C9B O1B 1_555 1_555
C10B C9B 1_555 1_555
H15B C10B 1_555 1_555
H16B C10B 1_555 1_555
C11B C10B 1_555 1_555
H17B C11B 1_555 1_555
H18B C11B 1_555 1_555
C12B C11B 1_555 1_555
H19B C12B 1_555 1_555
H20B C12B 1_555 1_555
C13B C12B 1_555 1_555
C4 C5 1_555 1_555
O3B C9B 1_555 1_555
N2B C7B 1_555 1_555
N2B C8B 1_555 1_555
C4B C5B 1_555 1_555

#END
