
#######################################################################
#
#                 Cambridge Crystallographic Data Centre
#                                CCDC 
#
#######################################################################
#
# If this CIF has been generated from an entry in the Cambridge 
# Structural Database, then it will include bibliographic, chemical, 
# crystal, experimental, refinement or atomic coordinate data resulting 
# from the CCDC's data processing and validation procedures.
#
#######################################################################

data_HOJLUP
_symmetry_cell_setting           monoclinic
_symmetry_space_group_name_H-M   'C c'
_symmetry_Int_Tables_number      9
_space_group_name_Hall           'C -2yc'
loop_
_symmetry_equiv_pos_site_id
_symmetry_equiv_pos_as_xyz
1 x,y,z
2 x,-y,1/2+z
3 1/2+x,1/2+y,z
4 1/2+x,1/2-y,1/2+z
_cell_length_a                   21.336(3)
_cell_length_b                   23.766(4)
_cell_length_c                   15.808(3)
_cell_angle_alpha                90
_cell_angle_beta                 101.568(2)
_cell_angle_gamma                90
_cell_volume                     7852.96
loop_
_atom_site_label
_atom_site_type_symbol
_atom_site_fract_x
_atom_site_fract_y
_atom_site_fract_z
O9 O 0.5476(15) -0.2202(13) 0.5620(16)
O10 O 0.5937(14) -0.1240(9) 0.636(2)
O11 O 0.6129(13) 0.0226(9) 0.6435(19)
O12 O 0.5336(16) 0.0820(11) 0.5226(17)
O13 O 0.4559(14) 0.0924(14) 0.3586(16)
O14 O 0.3946(14) -0.0085(11) 0.245(2)
C56 C 0.5746(18) -0.2219(11) 0.6515(19)
H44 H 0.5973 -0.2581 0.6657
H45 H 0.5401 -0.2196 0.6849
C57 C 0.6205(16) -0.1742(10) 0.677(3)
H46 H 0.6294 -0.1694 0.7402
H47 H 0.6613 -0.1825 0.6587
C58 C 0.6338(14) -0.0758(9) 0.657(3)
H48 H 0.6530 -0.0656 0.6070
H49 H 0.6690 -0.0844 0.7065
C59 C 0.595(2) -0.0276(9) 0.679(3)
H50 H 0.5487 -0.0350 0.6568
H51 H 0.6012 -0.0238 0.7430
C60 C 0.5841(18) 0.0723(10) 0.6704(17)
H52 H 0.6146 0.1041 0.6748
H53 H 0.5741 0.0660 0.7282
C61 C 0.5247(14) 0.0866(15) 0.608(2)
H54 H 0.4899 0.0610 0.6165
H55 H 0.5117 0.1256 0.6186
C62 C 0.5347(18) 0.1313(13) 0.4745(17)
H56 H 0.5783 0.1475 0.4874
H57 H 0.5051 0.1592 0.4916
C63 C 0.5157(14) 0.1203(17) 0.3799(16)
H58 H 0.5131 0.1564 0.3482
H59 H 0.5488 0.0968 0.3613
C64 C 0.4289(18) 0.0877(13) 0.2693(18)
H60 H 0.4624 0.0749 0.2385
H61 H 0.4141 0.1252 0.2465
C65 C 0.3747(14) 0.0479(12) 0.252(2)
H62 H 0.3503 0.0506 0.2986
H63 H 0.3457 0.0588 0.1971
C66 C 0.356(2) -0.0423(10) 0.182(2)
H64 H 0.3780 -0.0471 0.1327
H65 H 0.3151 -0.0229 0.1607
C67 C 0.3435(14) -0.0988(10) 0.216(3)
H66 H 0.3292 -0.0944 0.2717
H67 H 0.3090 -0.1178 0.1749
C68 C 0.4026(15) -0.1336(13) 0.230(3)
H68 H 0.4207 -0.1325 0.1766
H69 H 0.4347 -0.1173 0.2773
C69 C 0.3903(17) -0.1926(11) 0.250(2)
H70 H 0.3751 -0.2138 0.1960
H71 H 0.3562 -0.1939 0.2845
C70 C 0.4496(18) -0.2199(15) 0.3002(19)
H72 H 0.4534 -0.2587 0.2792
H73 H 0.4878 -0.1984 0.2927
C71 C 0.445(2) -0.2208(16) 0.3932(16)
H74 H 0.4600 -0.1843 0.4199
H75 H 0.3998 -0.2257 0.3978
C72 C 0.483(2) -0.2661(11) 0.4406(16)
H76 H 0.5251 -0.2684 0.4223
H77 H 0.4610 -0.3025 0.4266
C73 C 0.4944(16) -0.2563(14) 0.5357(15)
H78 H 0.4558 -0.2391 0.5507
H79 H 0.5024 -0.2926 0.5665
Zn1 Zn 0.95006(8) -0.01033(9) 0.26580(11)
Zn2 Zn 1.02913(9) 0.00973(10) 0.13147(12)
O1 O 1.0085(6) 0.0399(6) 0.3474(8)
O2 O 1.0635(8) 0.0547(8) 0.2428(11)
O3 O 1.4088(9) 0.4413(7) 0.7041(11)
O4 O 1.4639(8) 0.4272(6) 0.5969(10)
O5 O 1.0072(8) -0.0774(7) 0.2925(11)
O6 O 1.0660(7) -0.0640(6) 0.1920(10)
O7 O 1.4154(7) -0.4500(6) 0.6483(10)
O8 O 1.4699(8) -0.4627(8) 0.5423(11)
N1 N 1.2293(9) 0.2106(9) 0.5265(13)
N2 N 1.2674(11) 0.2294(10) 0.5024(16)
N3 N 1.2070(10) -0.2753(9) 0.3990(13)
N4 N 1.2644(8) -0.2813(8) 0.3662(12)
C1 C 1.0520(10) 0.0603(8) 0.3178(14)
C2 C 1.0950(6) 0.1029(6) 0.3767(8)
C3 C 1.0924(6) 0.1096(5) 0.4633(8)
H1 H 1.0624 0.0888 0.4875
C4 C 1.1338(7) 0.1470(6) 0.5144(7)
H2 H 1.1320 0.1516 0.5735
C5 C 1.1777(7) 0.1775(6) 0.4789(9)
C6 C 1.1803(7) 0.1707(6) 0.3923(10)
H3 H 1.2103 0.1916 0.3681
C7 C 1.1389(8) 0.1334(7) 0.3412(7)
H4 H 1.1407 0.1288 0.2821
C8 C 1.3053(8) 0.2723(6) 0.5441(11)
C9 C 1.2848(6) 0.3113(6) 0.5982(10)
H5 H 1.2443 0.3069 0.6136
C10 C 1.3236(6) 0.3567(6) 0.6299(9)
H6 H 1.3096 0.3833 0.6669
C11 C 1.3829(6) 0.3631(5) 0.6074(9)
C12 C 1.4034(6) 0.3241(7) 0.5532(10)
H7 H 1.4439 0.3285 0.5378
C13 C 1.3646(8) 0.2788(6) 0.5216(11)
H8 H 1.3786 0.2521 0.4845
C14 C 1.4206(11) 0.4131(11) 0.6462(17)
C15 C 1.0500(11) -0.0878(8) 0.2614(13)
C16 C 1.0935(7) -0.1389(6) 0.2847(10)
C17 C 1.0758(6) -0.1734(6) 0.3470(10)
H9 H 1.0374 -0.1661 0.3668
C18 C 1.1144(7) -0.2185(5) 0.3804(9)
H10 H 1.1023 -0.2421 0.4229
C19 C 1.1706(6) -0.2292(5) 0.3514(10)
C20 C 1.1882(6) -0.1948(7) 0.2891(10)
H11 H 1.2266 -0.2021 0.2693
C21 C 1.1497(8) -0.1496(6) 0.2557(9)
H12 H 1.1618 -0.1260 0.2132
C22 C 1.2933(8) -0.3270(7) 0.4249(10)
C23 C 1.2874(8) -0.3405(7) 0.5085(10)
H13 H 1.2547 -0.3235 0.5328
C24 C 1.3293(9) -0.3787(7) 0.5567(8)
H14 H 1.3252 -0.3879 0.6138
C25 C 1.3771(8) -0.4036(7) 0.5212(10)
C26 C 1.3830(7) -0.3902(7) 0.4376(10)
H15 H 1.4156 -0.4071 0.4133
C27 C 1.3411(8) -0.3519(7) 0.3894(8)
H16 H 1.3451 -0.3427 0.3323
C28 C 1.4250(13) -0.4396(12) 0.5737(16)
N5 N 0.8724(5) -0.0302(5) 0.3174(7)
C29 C 0.8155(6) -0.0317(6) 0.2567(6)
H17 H 0.8160 -0.0275 0.1971
C30 C 0.7577(5) -0.0392(8) 0.2832(9)
H18 H 0.7188 -0.0402 0.2417
C31 C 0.7570(6) -0.0453(8) 0.3704(11)
C32 C 0.8139(8) -0.0438(8) 0.4312(7)
H19 H 0.8134 -0.0480 0.4908
C33 C 0.8717(6) -0.0363(7) 0.4046(7)
H20 H 0.9106 -0.0354 0.4462
C34 C 0.6910(6) -0.0446(7) 0.3956(14)
C35 C 0.6551(7) -0.0938(6) 0.3870(12)
C36 C 0.5934(7) -0.0934(6) 0.4031(13)
H21 H 0.5688 -0.1270 0.3973
C37 C 0.5676(7) -0.0438(7) 0.4278(16)
C38 C 0.6036(11) 0.0054(6) 0.436(2)
H22 H 0.5859 0.0394 0.4533
C39 C 0.6652(10) 0.0050(6) 0.4203(19)
C40 C 0.6839(14) -0.1484(10) 0.365(2)
H23 H 0.6525 -0.1787 0.3635
H24 H 0.7219 -0.1568 0.4097
H25 H 0.6961 -0.1451 0.3090
C41 C 0.6969(14) 0.0617(9) 0.420(3)
H26 H 0.6691 0.0908 0.4363
H27 H 0.7042 0.0696 0.3617
H28 H 0.7379 0.0615 0.4610
N6 N 0.491(2) -0.0421(11) 0.453(3)
H29 H 0.4708 -0.0117 0.4648
C42 C 0.4708(10) -0.0893(10) 0.4528(19)
H30 H 0.4962 -0.1122 0.4998
H31 H 0.4704 -0.1081 0.3967
C43 C 0.4034(6) -0.0791(8) 0.4672(13)
C44 C 0.3739(9) -0.0269(7) 0.4513(15)
H32 H 0.3953 0.0030 0.4292
C45 C 0.3130(9) -0.0186(7) 0.4679(15)
C46 C 0.2816(7) -0.0624(8) 0.5004(14)
C47 C 0.3112(8) -0.1145(7) 0.5163(14)
C48 C 0.3720(8) -0.1229(6) 0.4997(14)
H33 H 0.3922 -0.1585 0.5105
C49 C 0.276(2) 0.0343(15) 0.436(3)
H34 H 0.3046 0.0602 0.4127
H35 H 0.2612 0.0524 0.4834
H36 H 0.2398 0.0246 0.3899
C50 C 0.2779(14) -0.1595(11) 0.554(3)
H37 H 0.2358 -0.1460 0.5605
H38 H 0.3032 -0.1700 0.6105
H39 H 0.2727 -0.1923 0.5157
C51 C 0.2214(6) -0.0484(8) 0.5294(11)
C52 C 0.1632(7) -0.0531(7) 0.4717(8)
H40 H 0.1621 -0.0648 0.4140
C53 C 0.1066(5) -0.0404(6) 0.4985(8)
H41 H 0.0668 -0.0436 0.4591
N7 N 0.1082(5) -0.0232(6) 0.5829(9)
C54 C 0.1665(7) -0.0186(8) 0.6406(7)
H42 H 0.1676 -0.0068 0.6983
C55 C 0.2231(5) -0.0312(8) 0.6138(10)
H43 H 0.2628 -0.0280 0.6532
Zn1C Zn 1.45006(8) -0.48967(9) 0.76580(11)
Zn1C_2 Zn 1.45006(8) 0.51033(9) 0.76580(11)
Zn2A Zn 0.02913(9) -0.00973(10) 0.63147(12)
Zn2C Zn 1.52913(9) -0.50973(10) 0.63147(12)
Zn2C_2 Zn 1.52913(9) 0.49027(10) 0.63147(12)
O3C O 0.9088(9) 0.0587(7) 0.2041(11)
O4C O 0.9639(8) 0.0728(6) 0.0969(10)
O7C O 0.9154(7) -0.0500(6) 0.1483(10)
O8C O 0.9699(8) -0.0373(8) 0.0423(11)
N7A N 1.1082(5) 0.0232(6) 0.0829(9)
loop_
_geom_bond_atom_site_label_1
_geom_bond_atom_site_label_2
_geom_bond_site_symmetry_1
_geom_bond_site_symmetry_2
Zn1 O1 1_555 1_555
Zn2 O2 1_555 1_555
O1 C1 1_555 1_555
O2 C1 1_555 1_555
O3 C14 1_555 1_555
O4 C14 1_555 1_555
O5 Zn1 1_555 1_555
O6 Zn2 1_555 1_555
O7 C28 1_555 1_555
O8 C28 1_555 1_555
N1 N2 1_555 1_555
N2 C8 1_555 1_555
N3 N4 1_555 1_555
N4 C22 1_555 1_555
C1 C2 1_555 1_555
C2 C3 1_555 1_555
C3 H1 1_555 1_555
C4 C3 1_555 1_555
H2 C4 1_555 1_555
C5 N1 1_555 1_555
C6 C5 1_555 1_555
H3 C6 1_555 1_555
C7 C2 1_555 1_555
H4 C7 1_555 1_555
C8 C9 1_555 1_555
C9 H5 1_555 1_555
C10 C9 1_555 1_555
H6 C10 1_555 1_555
C11 C10 1_555 1_555
C12 C11 1_555 1_555
H7 C12 1_555 1_555
C13 C8 1_555 1_555
H8 C13 1_555 1_555
C14 C11 1_555 1_555
C15 O5 1_555 1_555
C16 C15 1_555 1_555
C17 C16 1_555 1_555
H9 C17 1_555 1_555
C18 C17 1_555 1_555
H10 C18 1_555 1_555
C19 N3 1_555 1_555
C20 C19 1_555 1_555
H11 C20 1_555 1_555
C21 C16 1_555 1_555
H12 C21 1_555 1_555
C22 C23 1_555 1_555
C23 H13 1_555 1_555
C24 C23 1_555 1_555
H14 C24 1_555 1_555
C25 C24 1_555 1_555
C26 C25 1_555 1_555
H15 C26 1_555 1_555
C27 C22 1_555 1_555
H16 C27 1_555 1_555
C28 C25 1_555 1_555
N5 Zn1 1_555 1_555
C29 N5 1_555 1_555
H17 C29 1_555 1_555
C30 C29 1_555 1_555
H18 C30 1_555 1_555
C31 C30 1_555 1_555
C32 C31 1_555 1_555
H19 C32 1_555 1_555
C33 N5 1_555 1_555
H20 C33 1_555 1_555
C34 C31 1_555 1_555
C35 C34 1_555 1_555
C36 C35 1_555 1_555
H21 C36 1_555 1_555
C37 C36 1_555 1_555
C38 C37 1_555 1_555
H22 C38 1_555 1_555
C39 C34 1_555 1_555
C40 C35 1_555 1_555
H23 C40 1_555 1_555
H24 C40 1_555 1_555
H25 C40 1_555 1_555
C41 C39 1_555 1_555
H26 C41 1_555 1_555
H27 C41 1_555 1_555
H28 C41 1_555 1_555
N6 C37 1_555 1_555
H29 N6 1_555 1_555
C42 N6 1_555 1_555
H30 C42 1_555 1_555
H31 C42 1_555 1_555
C43 C42 1_555 1_555
C44 C43 1_555 1_555
H32 C44 1_555 1_555
C45 C44 1_555 1_555
C46 C45 1_555 1_555
C47 C46 1_555 1_555
C48 C43 1_555 1_555
H33 C48 1_555 1_555
C49 C45 1_555 1_555
H34 C49 1_555 1_555
H35 C49 1_555 1_555
H36 C49 1_555 1_555
C50 C47 1_555 1_555
H37 C50 1_555 1_555
H38 C50 1_555 1_555
H39 C50 1_555 1_555
C51 C46 1_555 1_555
C52 C51 1_555 1_555
H40 C52 1_555 1_555
C53 C52 1_555 1_555
H41 C53 1_555 1_555
N7 C53 1_555 1_555
C54 N7 1_555 1_555
H42 C54 1_555 1_555
C55 C51 1_555 1_555
H43 C55 1_555 1_555
O9 C56 1_555 1_555
O10 C57 1_555 1_555
O11 C59 1_555 1_555
O12 C61 1_555 1_555
O13 C63 1_555 1_555
O14 C65 1_555 1_555
C56 H44 1_555 1_555
H45 C56 1_555 1_555
C57 C56 1_555 1_555
H46 C57 1_555 1_555
H47 C57 1_555 1_555
C58 O10 1_555 1_555
H48 C58 1_555 1_555
H49 C58 1_555 1_555
C59 C58 1_555 1_555
H50 C59 1_555 1_555
H51 C59 1_555 1_555
C60 O11 1_555 1_555
H52 C60 1_555 1_555
H53 C60 1_555 1_555
C61 C60 1_555 1_555
H54 C61 1_555 1_555
H55 C61 1_555 1_555
C62 O12 1_555 1_555
H56 C62 1_555 1_555
H57 C62 1_555 1_555
C63 C62 1_555 1_555
H58 C63 1_555 1_555
H59 C63 1_555 1_555
C64 O13 1_555 1_555
H60 C64 1_555 1_555
H61 C64 1_555 1_555
C65 C64 1_555 1_555
H62 C65 1_555 1_555
H63 C65 1_555 1_555
C66 O14 1_555 1_555
H64 C66 1_555 1_555
H65 C66 1_555 1_555
C67 C66 1_555 1_555
H66 C67 1_555 1_555
H67 C67 1_555 1_555
C68 C67 1_555 1_555
H68 C68 1_555 1_555
H69 C68 1_555 1_555
C69 C68 1_555 1_555
H70 C69 1_555 1_555
H71 C69 1_555 1_555
C70 C69 1_555 1_555
H72 C70 1_555 1_555
H73 C70 1_555 1_555
C71 C70 1_555 1_555
H74 C71 1_555 1_555
H75 C71 1_555 1_555
C72 C71 1_555 1_555
H76 C72 1_555 1_555
H77 C72 1_555 1_555
C73 O9 1_555 1_555
H78 C73 1_555 1_555
H79 C73 1_555 1_555
Zn1C O7 1_555 1_555
Zn1C_2 O3 1_555 1_555
Zn2A N7 1_555 1_555
Zn2C O8 1_555 1_555
Zn2C_2 O4 1_555 1_555
O3C Zn1 1_555 1_555
O4C Zn2 1_555 1_555
O7C Zn1 1_555 1_555
O8C Zn2 1_555 1_555
N7A Zn2 1_555 1_555
O6 C15 1_555 1_555
C4 C5 1_555 1_555
C6 C7 1_555 1_555
C12 C13 1_555 1_555
C18 C19 1_555 1_555
C20 C21 1_555 1_555
C26 C27 1_555 1_555
C32 C33 1_555 1_555
C38 C39 1_555 1_555
C47 C48 1_555 1_555
C54 C55 1_555 1_555
C72 C73 1_555 1_555

#END
