
#######################################################################
#
#                 Cambridge Crystallographic Data Centre
#                                CCDC 
#
#######################################################################
#
# If this CIF has been generated from an entry in the Cambridge 
# Structural Database, then it will include bibliographic, chemical, 
# crystal, experimental, refinement or atomic coordinate data resulting 
# from the CCDC's data processing and validation procedures.
#
#######################################################################

data_HOJNIF
_symmetry_cell_setting           orthorhombic
_symmetry_space_group_name_H-M   'F d d d'
_symmetry_Int_Tables_number      70
_space_group_name_Hall           '-F 2uv 2vw'
loop_
_symmetry_equiv_pos_site_id
_symmetry_equiv_pos_as_xyz
1 x,y,z
2 x,1/2+y,1/2+z
3 1/2+x,y,1/2+z
4 1/2+x,1/2+y,z
5 x,1/4-y,1/4-z
6 x,3/4-y,3/4-z
7 1/2+x,1/4-y,3/4-z
8 1/2+x,3/4-y,1/4-z
9 1/4-x,y,1/4-z
10 1/4-x,1/2+y,3/4-z
11 3/4-x,y,3/4-z
12 3/4-x,1/2+y,1/4-z
13 1/4-x,3/4-y,1/2+z
14 1/4-x,1/4-y,z
15 3/4-x,3/4-y,z
16 3/4-x,1/4-y,1/2+z
17 -x,-y,-z
18 -x,1/2-y,1/2-z
19 1/2-x,-y,1/2-z
20 1/2-x,1/2-y,-z
21 -x,3/4+y,3/4+z
22 -x,1/4+y,1/4+z
23 1/2-x,3/4+y,1/4+z
24 1/2-x,1/4+y,3/4+z
25 3/4+x,-y,3/4+z
26 3/4+x,1/2-y,1/4+z
27 1/4+x,-y,1/4+z
28 1/4+x,1/2-y,3/4+z
29 3/4+x,1/4+y,1/2-z
30 3/4+x,3/4+y,-z
31 1/4+x,1/4+y,-z
32 1/4+x,3/4+y,1/2-z
_cell_length_a                   8.7977(3)
_cell_length_b                   20.7323(10)
_cell_length_c                   34.3652(10)
_cell_angle_alpha                90
_cell_angle_beta                 90
_cell_angle_gamma                90
_cell_volume                     6268.09
loop_
_atom_site_label
_atom_site_type_symbol
_atom_site_fract_x
_atom_site_fract_y
_atom_site_fract_z
Sc1 Sc 0.3750 0.3750 0.63547(2)
O1 O 0.2417(3) 0.33272(17) 0.67941(7)
C1 C 0.1022(4) 0.3198(2) 0.68245(10)
O2 O 0.0062(3) 0.33468(18) 0.65749(8)
C2 C 0.0503(4) 0.2843(2) 0.71740(11)
C3 C 0.1524(5) 0.2626(3) 0.74495(13)
C4 C 0.1033(5) 0.2287(3) 0.77735(13)
O3 O 0.2447(3) 0.45810(16) 0.63527(10)
C5 C 0.1250 0.4865(3) 0.6250
C6 C 0.1250 0.5582(3) 0.6250
C7 C 0.2592(5) 0.5922(3) 0.6254(3)
H1 H 0.2577 0.2711 0.7416
H2 H 0.1748 0.2140 0.7960
H3 H 0.3530 0.5691 0.6264
O1Q O -0.2417(3) 0.16728(17) 0.82059(7)
C1Q C -0.1022(4) 0.1802(2) 0.81755(10)
O2Q O -0.0062(3) 0.16532(18) 0.84251(8)
C2Q C -0.0503(4) 0.2157(2) 0.78260(11)
C3Q C -0.1524(5) 0.2374(3) 0.75505(13)
C4Q C -0.1033(5) 0.2713(3) 0.72265(13)
H1Q H -0.2577 0.2289 0.7584
H2Q H -0.1748 0.2860 0.7040
O3D O 0.2447(3) 0.79190(16) 0.61473(10)
C5D C 0.1250 0.7635(3) 0.6250
C6D C 0.1250 0.6918(3) 0.6250
C7D C 0.2592(5) 0.6578(3) 0.6246(3)
H3D H 0.3530 0.6809 0.6236
O3H O 0.0053(3) 0.45810(16) 0.61473(10)
C7H C -0.0092(5) 0.5922(3) 0.6246(3)
H3H H -0.1030 0.5691 0.6236
O3M O 0.0053(3) 0.79190(16) 0.63527(10)
C7M C -0.0092(5) 0.6578(3) 0.6254(3)
H3M H -0.1030 0.6809 0.6264
Sc1Q Sc -0.3750 0.1250 0.86453(2)
O1N O 0.5083(3) 0.41728(17) 0.67941(7)
C1N C 0.6478(4) 0.4302(2) 0.68245(10)
O2N O 0.7438(3) 0.41532(18) 0.65749(8)
C2N C 0.6997(4) 0.4657(2) 0.71740(11)
C3N C 0.5976(5) 0.4874(3) 0.74495(13)
C4N C 0.6467(5) 0.5213(3) 0.77735(13)
H1N H 0.4923 0.4789 0.7416
H2N H 0.5752 0.5360 0.7960
O1BA O 0.9917(3) 0.58272(17) 0.82059(7)
C1BA C 0.8522(4) 0.5698(2) 0.81755(10)
O2BA O 0.7562(3) 0.58468(18) 0.84251(8)
C2BA C 0.8003(4) 0.5343(2) 0.78260(11)
C3BA C 0.9024(5) 0.5126(3) 0.75505(13)
C4BA C 0.8533(5) 0.4787(3) 0.72265(13)
H1BA H 1.0077 0.5211 0.7584
H2BA H 0.9248 0.4640 0.7040
Sc1R Sc 1.1250 0.6250 0.86453(2)
Sc1C Sc -0.1250 0.8750 0.63547(2)
Sc1U Sc 0.6250 0.6250 0.88547(2)
Sc1D Sc 0.3750 0.8750 0.61453(2)
Sc1V Sc 0.1250 0.1250 0.88547(2)
Sc1G Sc -0.1250 0.3750 0.61453(2)
Sc1G_2 Sc 0.8750 0.3750 0.61453(2)
O1EA O -0.5083(3) 0.08272(17) 0.82059(7)
O2V O -0.5062(3) 0.08468(18) 0.90749(8)
O2G O 0.5062(3) 0.41532(18) 0.59251(8)
O2H O 0.2438(3) 0.33468(18) 0.59251(8)
O2Y O -0.2438(3) 0.16532(18) 0.90749(8)
O3Q O -0.2447(3) 0.04190(16) 0.86473(10)
O3EA O -0.5053(3) 0.20810(16) 0.86473(10)
O3N O 0.5053(3) 0.29190(16) 0.63527(10)
O4 O 0.246(4) 0.506(2) 0.7228(10)
C8 C 0.266(7) 0.574(2) 0.7261(17)
O5? O 0.640(5) 0.075(2) 0.0954(12)
C9? C 0.6250 0.1250 0.0673(15)
loop_
_geom_bond_atom_site_label_1
_geom_bond_atom_site_label_2
_geom_bond_site_symmetry_1
_geom_bond_site_symmetry_2
Sc1 O1 1_555 1_555
O1 C1 1_555 1_555
C1 O2 1_555 1_555
O2 Sc1G 1_555 1_555
C2 C1 1_555 1_555
C3 C2 1_555 1_555
C4 C3 1_555 1_555
O3 Sc1 1_555 1_555
C5 O3 1_555 1_555
C6 C5 1_555 1_555
C7 C6 1_555 1_555
H1 C3 1_555 1_555
H2 C4 1_555 1_555
H3 C7 1_555 1_555
O4 C8 1_555 1_555
O1Q C1Q 1_555 1_555
C1Q O2Q 1_555 1_555
O2Q Sc1V 1_555 1_555
C2Q C4 1_555 1_555
C3Q C2Q 1_555 1_555
C4Q C2 1_555 1_555
H1Q C3Q 1_555 1_555
H2Q C4Q 1_555 1_555
O3D C5D 1_555 1_555
C5D C6D 1_555 1_555
C6D C7D 1_555 1_555
C7D C7 1_555 1_555
H3D C7D 1_555 1_555
O3H C5 1_555 1_555
C7H C6 1_555 1_555
H3H C7H 1_555 1_555
O3M C5D 1_555 1_555
C7M C6D 1_555 1_555
H3M C7M 1_555 1_555
Sc1Q O1Q 1_555 1_555
O1N Sc1 1_555 1_555
C1N O1N 1_555 1_555
O2N C1N 1_555 1_555
C2N C1N 1_555 1_555
C3N C2N 1_555 1_555
C4N C3N 1_555 1_555
H1N C3N 1_555 1_555
H2N C4N 1_555 1_555
O1BA C1BA 1_555 1_555
C1BA O2BA 1_555 1_555
O2BA Sc1U 1_555 1_555
C2BA C4N 1_555 1_555
C3BA C2BA 1_555 1_555
C4BA C2N 1_555 1_555
H1BA C3BA 1_555 1_555
H2BA C4BA 1_555 1_555
Sc1R O1BA 1_555 1_555
Sc1C O3M 1_555 1_555
Sc1D O3D 1_555 1_555
Sc1G O3H 1_555 1_555
Sc1G_2 O2N 1_555 1_555
O1EA Sc1Q 1_555 1_555
O2V Sc1Q 1_555 1_555
O2G Sc1 1_555 1_555
O2H Sc1 1_555 1_555
O2Y Sc1Q 1_555 1_555
O3Q Sc1Q 1_555 1_555
O3EA Sc1Q 1_555 1_555
O3N Sc1 1_555 1_555
C1Q C2Q 1_555 1_555
C3Q C4Q 1_555 1_555
C7H C7M 1_555 1_555
C1BA C2BA 1_555 1_555
C3BA C4BA 1_555 1_555

#END
