
#######################################################################
#
#                 Cambridge Crystallographic Data Centre
#                                CCDC 
#
#######################################################################
#
# If this CIF has been generated from an entry in the Cambridge 
# Structural Database, then it will include bibliographic, chemical, 
# crystal, experimental, refinement or atomic coordinate data resulting 
# from the CCDC's data processing and validation procedures.
#
#######################################################################

data_HOJPED
_symmetry_cell_setting           orthorhombic
_symmetry_space_group_name_H-M   'F d d d'
_symmetry_Int_Tables_number      70
_space_group_name_Hall           '-F 2uv 2vw'
loop_
_symmetry_equiv_pos_site_id
_symmetry_equiv_pos_as_xyz
1 x,y,z
2 x,1/2+y,1/2+z
3 1/2+x,y,1/2+z
4 1/2+x,1/2+y,z
5 x,1/4-y,1/4-z
6 x,3/4-y,3/4-z
7 1/2+x,1/4-y,3/4-z
8 1/2+x,3/4-y,1/4-z
9 1/4-x,y,1/4-z
10 1/4-x,1/2+y,3/4-z
11 3/4-x,y,3/4-z
12 3/4-x,1/2+y,1/4-z
13 1/4-x,3/4-y,1/2+z
14 1/4-x,1/4-y,z
15 3/4-x,3/4-y,z
16 3/4-x,1/4-y,1/2+z
17 -x,-y,-z
18 -x,1/2-y,1/2-z
19 1/2-x,-y,1/2-z
20 1/2-x,1/2-y,-z
21 -x,3/4+y,3/4+z
22 -x,1/4+y,1/4+z
23 1/2-x,3/4+y,1/4+z
24 1/2-x,1/4+y,3/4+z
25 3/4+x,-y,3/4+z
26 3/4+x,1/2-y,1/4+z
27 1/4+x,-y,1/4+z
28 1/4+x,1/2-y,3/4+z
29 3/4+x,1/4+y,1/2-z
30 3/4+x,3/4+y,-z
31 1/4+x,1/4+y,-z
32 1/4+x,3/4+y,1/2-z
_cell_length_a                   8.8244(10)
_cell_length_b                   20.6223(14)
_cell_length_c                   34.123(3)
_cell_angle_alpha                90
_cell_angle_beta                 90
_cell_angle_gamma                90
_cell_volume                     6209.68
loop_
_atom_site_label
_atom_site_type_symbol
_atom_site_fract_x
_atom_site_fract_y
_atom_site_fract_z
Sc1 Sc 0.3750 0.3750 0.63518(8)
O1 O 0.2420(9) 0.3326(4) 0.6792(2)
C1 C 0.1034(8) 0.3200(5) 0.6821(2)
O2 O 0.0081(9) 0.3355(4) 0.6570(2)
C2 C 0.0495(8) 0.2844(5) 0.7178(2)
C3 C 0.1498(9) 0.2648(6) 0.7458(3)
C4 C 0.1011(10) 0.2301(6) 0.7779(3)
O3 O 0.2449(8) 0.4575(3) 0.6343(3)
C5 C 0.1250 0.4860(4) 0.6250
C6 C 0.1250 0.5582(3) 0.6250
C7 C 0.2593(7) 0.59149(19) 0.6249(4)
H1 H 0.2535 0.2756 0.7432
H2 H 0.1722 0.2158 0.7968
H3 H 0.3522 0.5687 0.6262
O1Q O -0.2420(9) 0.1674(4) 0.8208(2)
C1Q C -0.1034(8) 0.1800(5) 0.8179(2)
O2Q O -0.0081(9) 0.1645(4) 0.8430(2)
C2Q C -0.0495(8) 0.2156(5) 0.7822(2)
C3Q C -0.1498(9) 0.2352(6) 0.7542(3)
C4Q C -0.1011(10) 0.2699(6) 0.7221(3)
H1Q H -0.2535 0.2244 0.7568
H2Q H -0.1722 0.2842 0.7032
O3D O 0.2449(8) 0.7925(3) 0.6157(3)
C5D C 0.1250 0.7640(4) 0.6250
C6D C 0.1250 0.6918(3) 0.6250
C7D C 0.2593(7) 0.65851(19) 0.6251(4)
H3D H 0.3522 0.6813 0.6238
O3H O 0.0051(8) 0.4575(3) 0.6157(3)
C7H C -0.0093(7) 0.59149(19) 0.6251(4)
H3H H -0.1022 0.5687 0.6238
O3M O 0.0051(8) 0.7925(3) 0.6343(3)
C7M C -0.0093(7) 0.65851(19) 0.6249(4)
H3M H -0.1022 0.6813 0.6262
Sc1Q Sc -0.3750 0.1250 0.86482(8)
O1N O 0.5080(9) 0.4174(4) 0.6792(2)
C1N C 0.6466(8) 0.4300(5) 0.6821(2)
O2N O 0.7419(9) 0.4145(4) 0.6570(2)
C2N C 0.7005(8) 0.4656(5) 0.7178(2)
C3N C 0.6002(9) 0.4852(6) 0.7458(3)
C4N C 0.6489(10) 0.5199(6) 0.7779(3)
H1N H 0.4965 0.4744 0.7432
H2N H 0.5778 0.5342 0.7968
O1BA O 0.9920(9) 0.5826(4) 0.8208(2)
C1BA C 0.8534(8) 0.5700(5) 0.8179(2)
O2BA O 0.7581(9) 0.5855(4) 0.8430(2)
C2BA C 0.7995(8) 0.5344(5) 0.7822(2)
C3BA C 0.8998(9) 0.5148(6) 0.7542(3)
C4BA C 0.8511(10) 0.4801(6) 0.7221(3)
H1BA H 1.0035 0.5256 0.7568
H2BA H 0.9222 0.4658 0.7032
Sc1R Sc 1.1250 0.6250 0.86482(8)
Sc1C Sc -0.1250 0.8750 0.63518(8)
Sc1U Sc 0.6250 0.6250 0.88518(8)
Sc1D Sc 0.3750 0.8750 0.61482(8)
Sc1V Sc 0.1250 0.1250 0.88518(8)
Sc1G Sc -0.1250 0.3750 0.61482(8)
Sc1G_2 Sc 0.8750 0.3750 0.61482(8)
O1EA O -0.5080(9) 0.0826(4) 0.8208(2)
O2V O -0.5081(9) 0.0855(4) 0.9070(2)
O2G O 0.5081(9) 0.4145(4) 0.5930(2)
O2H O 0.2419(9) 0.3355(4) 0.5930(2)
O2Y O -0.2419(9) 0.1645(4) 0.9070(2)
O3Q O -0.2449(8) 0.0425(3) 0.8657(3)
O3EA O -0.5051(8) 0.2075(3) 0.8657(3)
O3N O 0.5051(8) 0.2925(3) 0.6343(3)
O4 O 0.278(3) 0.1725(10) 0.0021(6)
C8 C 0.282(4) 0.1991(16) 0.0407(7)
C9? C 0.6250 0.1250 0.0670(8)
O5? O 0.675(3) 0.0692(10) 0.0878(7)
loop_
_geom_bond_atom_site_label_1
_geom_bond_atom_site_label_2
_geom_bond_site_symmetry_1
_geom_bond_site_symmetry_2
Sc1 O1 1_555 1_555
O1 C1 1_555 1_555
C1 O2 1_555 1_555
O2 Sc1G 1_555 1_555
C2 C1 1_555 1_555
C3 C2 1_555 1_555
C4 C3 1_555 1_555
O3 Sc1 1_555 1_555
C5 O3 1_555 1_555
C6 C5 1_555 1_555
C7 C6 1_555 1_555
H1 C3 1_555 1_555
H2 C4 1_555 1_555
H3 C7 1_555 1_555
O4 C8 1_555 1_555
O1Q C1Q 1_555 1_555
C1Q O2Q 1_555 1_555
O2Q Sc1V 1_555 1_555
C2Q C4 1_555 1_555
C3Q C2Q 1_555 1_555
C4Q C2 1_555 1_555
H1Q C3Q 1_555 1_555
H2Q C4Q 1_555 1_555
O3D C5D 1_555 1_555
C5D C6D 1_555 1_555
C6D C7D 1_555 1_555
C7D C7 1_555 1_555
H3D C7D 1_555 1_555
O3H C5 1_555 1_555
C7H C6 1_555 1_555
H3H C7H 1_555 1_555
O3M C5D 1_555 1_555
C7M C6D 1_555 1_555
H3M C7M 1_555 1_555
Sc1Q O1Q 1_555 1_555
O1N Sc1 1_555 1_555
C1N O1N 1_555 1_555
O2N C1N 1_555 1_555
C2N C1N 1_555 1_555
C3N C2N 1_555 1_555
C4N C3N 1_555 1_555
H1N C3N 1_555 1_555
H2N C4N 1_555 1_555
O1BA C1BA 1_555 1_555
C1BA O2BA 1_555 1_555
O2BA Sc1U 1_555 1_555
C2BA C4N 1_555 1_555
C3BA C2BA 1_555 1_555
C4BA C2N 1_555 1_555
H1BA C3BA 1_555 1_555
H2BA C4BA 1_555 1_555
Sc1R O1BA 1_555 1_555
Sc1C O3M 1_555 1_555
Sc1D O3D 1_555 1_555
Sc1G O3H 1_555 1_555
Sc1G_2 O2N 1_555 1_555
O1EA Sc1Q 1_555 1_555
O2V Sc1Q 1_555 1_555
O2G Sc1 1_555 1_555
O2H Sc1 1_555 1_555
O2Y Sc1Q 1_555 1_555
O3Q Sc1Q 1_555 1_555
O3EA Sc1Q 1_555 1_555
O3N Sc1 1_555 1_555
C1Q C2Q 1_555 1_555
C3Q C4Q 1_555 1_555
C7H C7M 1_555 1_555
C1BA C2BA 1_555 1_555
C3BA C4BA 1_555 1_555

#END
