
#######################################################################
#
#                 Cambridge Crystallographic Data Centre
#                                CCDC 
#
#######################################################################
#
# If this CIF has been generated from an entry in the Cambridge 
# Structural Database, then it will include bibliographic, chemical, 
# crystal, experimental, refinement or atomic coordinate data resulting 
# from the CCDC's data processing and validation procedures.
#
#######################################################################

data_HOJPAZ
_symmetry_cell_setting           orthorhombic
_symmetry_space_group_name_H-M   'F d d d'
_symmetry_Int_Tables_number      70
_space_group_name_Hall           '-F 2uv 2vw'
loop_
_symmetry_equiv_pos_site_id
_symmetry_equiv_pos_as_xyz
1 x,y,z
2 x,1/2+y,1/2+z
3 1/2+x,y,1/2+z
4 1/2+x,1/2+y,z
5 x,1/4-y,1/4-z
6 x,3/4-y,3/4-z
7 1/2+x,1/4-y,3/4-z
8 1/2+x,3/4-y,1/4-z
9 1/4-x,y,1/4-z
10 1/4-x,1/2+y,3/4-z
11 3/4-x,y,3/4-z
12 3/4-x,1/2+y,1/4-z
13 1/4-x,3/4-y,1/2+z
14 1/4-x,1/4-y,z
15 3/4-x,3/4-y,z
16 3/4-x,1/4-y,1/2+z
17 -x,-y,-z
18 -x,1/2-y,1/2-z
19 1/2-x,-y,1/2-z
20 1/2-x,1/2-y,-z
21 -x,3/4+y,3/4+z
22 -x,1/4+y,1/4+z
23 1/2-x,3/4+y,1/4+z
24 1/2-x,1/4+y,3/4+z
25 3/4+x,-y,3/4+z
26 3/4+x,1/2-y,1/4+z
27 1/4+x,-y,1/4+z
28 1/4+x,1/2-y,3/4+z
29 3/4+x,1/4+y,1/2-z
30 3/4+x,3/4+y,-z
31 1/4+x,1/4+y,-z
32 1/4+x,3/4+y,1/2-z
_cell_length_a                   8.851(2)
_cell_length_b                   20.676(3)
_cell_length_c                   34.203(7)
_cell_angle_alpha                90
_cell_angle_beta                 90
_cell_angle_gamma                90
_cell_volume                     6259.26
loop_
_atom_site_label
_atom_site_type_symbol
_atom_site_fract_x
_atom_site_fract_y
_atom_site_fract_z
Sc1 Sc 0.3750 0.3750 0.63530(9)
O1 O 0.2413(9) 0.3331(4) 0.6792(2)
C1 C 0.1024(9) 0.3204(6) 0.6819(3)
O2 O 0.0060(10) 0.3359(4) 0.6570(2)
C2 C 0.0496(9) 0.2839(6) 0.7172(3)
C3 C 0.1494(9) 0.2646(7) 0.7457(3)
C4 C 0.1002(10) 0.2306(6) 0.7785(3)
O3 O 0.2458(8) 0.4575(3) 0.6347(3)
C5 C 0.1250 0.4857(4) 0.6250
C6 C 0.1250 0.5578(3) 0.6250
C7 C 0.2590(7) 0.5915(2) 0.6250(5)
H1 H 0.2531 0.2753 0.7431
H2 H 0.1713 0.2163 0.7973
H3 H 0.3519 0.5687 0.6263
O1Q O -0.2413(9) 0.1669(4) 0.8208(2)
C1Q C -0.1024(9) 0.1796(6) 0.8181(3)
O2Q O -0.0060(10) 0.1641(4) 0.8430(2)
C2Q C -0.0496(9) 0.2161(6) 0.7828(3)
C3Q C -0.1494(9) 0.2354(7) 0.7543(3)
C4Q C -0.1002(10) 0.2694(6) 0.7215(3)
H1Q H -0.2531 0.2247 0.7569
H2Q H -0.1713 0.2837 0.7027
O3D O 0.2458(8) 0.7925(3) 0.6153(3)
C5D C 0.1250 0.7643(4) 0.6250
C6D C 0.1250 0.6922(3) 0.6250
C7D C 0.2590(7) 0.6585(2) 0.6250(5)
H3D H 0.3519 0.6813 0.6237
O3H O 0.0042(8) 0.4575(3) 0.6153(3)
C7H C -0.0090(7) 0.5915(2) 0.6250(5)
H3H H -0.1019 0.5687 0.6237
O3M O 0.0042(8) 0.7925(3) 0.6347(3)
C7M C -0.0090(7) 0.6585(2) 0.6250(5)
H3M H -0.1019 0.6813 0.6263
Sc1Q Sc -0.3750 0.1250 0.86470(9)
O1N O 0.5087(9) 0.4169(4) 0.6792(2)
C1N C 0.6476(9) 0.4296(6) 0.6819(3)
O2N O 0.7440(10) 0.4141(4) 0.6570(2)
C2N C 0.7004(9) 0.4661(6) 0.7172(3)
C3N C 0.6006(9) 0.4854(7) 0.7457(3)
C4N C 0.6498(10) 0.5194(6) 0.7785(3)
H1N H 0.4969 0.4747 0.7431
H2N H 0.5787 0.5337 0.7973
O1BA O 0.9913(9) 0.5831(4) 0.8208(2)
C1BA C 0.8524(9) 0.5704(6) 0.8181(3)
O2BA O 0.7560(10) 0.5859(4) 0.8430(2)
C2BA C 0.7996(9) 0.5339(6) 0.7828(3)
C3BA C 0.8994(9) 0.5146(7) 0.7543(3)
C4BA C 0.8502(10) 0.4806(6) 0.7215(3)
H1BA H 1.0031 0.5253 0.7569
H2BA H 0.9213 0.4663 0.7027
Sc1R Sc 1.1250 0.6250 0.86470(9)
Sc1C Sc -0.1250 0.8750 0.63530(9)
Sc1U Sc 0.6250 0.6250 0.88530(9)
Sc1D Sc 0.3750 0.8750 0.61470(9)
Sc1V Sc 0.1250 0.1250 0.88530(9)
Sc1G Sc -0.1250 0.3750 0.61470(9)
Sc1G_2 Sc 0.8750 0.3750 0.61470(9)
O1EA O -0.5087(9) 0.0831(4) 0.8208(2)
O2V O -0.5060(10) 0.0859(4) 0.9070(2)
O2G O 0.5060(10) 0.4141(4) 0.5930(2)
O2H O 0.2440(10) 0.3359(4) 0.5930(2)
O2Y O -0.2440(10) 0.1641(4) 0.9070(2)
O3Q O -0.2458(8) 0.0425(3) 0.8653(3)
O3EA O -0.5042(8) 0.2075(3) 0.8653(3)
O3N O 0.5042(8) 0.2925(3) 0.6347(3)
O4 O 0.280(3) 0.1760(11) 0.0023(8)
C8 C 0.290(5) 0.1994(17) 0.0414(9)
C9? C 0.6250 0.1250 0.0660(8)
O5? O 0.673(3) 0.0718(10) 0.0891(7)
loop_
_geom_bond_atom_site_label_1
_geom_bond_atom_site_label_2
_geom_bond_site_symmetry_1
_geom_bond_site_symmetry_2
Sc1 O1 1_555 1_555
O1 C1 1_555 1_555
C1 O2 1_555 1_555
O2 Sc1G 1_555 1_555
C2 C1 1_555 1_555
C3 C2 1_555 1_555
C4 C3 1_555 1_555
O3 Sc1 1_555 1_555
C5 O3 1_555 1_555
C6 C5 1_555 1_555
C7 C6 1_555 1_555
H1 C3 1_555 1_555
H2 C4 1_555 1_555
H3 C7 1_555 1_555
O4 C8 1_555 1_555
O1Q C1Q 1_555 1_555
C1Q O2Q 1_555 1_555
O2Q Sc1V 1_555 1_555
C2Q C4 1_555 1_555
C3Q C2Q 1_555 1_555
C4Q C2 1_555 1_555
H1Q C3Q 1_555 1_555
H2Q C4Q 1_555 1_555
O3D C5D 1_555 1_555
C5D C6D 1_555 1_555
C6D C7D 1_555 1_555
C7D C7 1_555 1_555
H3D C7D 1_555 1_555
O3H C5 1_555 1_555
C7H C6 1_555 1_555
H3H C7H 1_555 1_555
O3M C5D 1_555 1_555
C7M C6D 1_555 1_555
H3M C7M 1_555 1_555
Sc1Q O1Q 1_555 1_555
O1N Sc1 1_555 1_555
C1N O1N 1_555 1_555
O2N C1N 1_555 1_555
C2N C1N 1_555 1_555
C3N C2N 1_555 1_555
C4N C3N 1_555 1_555
H1N C3N 1_555 1_555
H2N C4N 1_555 1_555
O1BA C1BA 1_555 1_555
C1BA O2BA 1_555 1_555
O2BA Sc1U 1_555 1_555
C2BA C4N 1_555 1_555
C3BA C2BA 1_555 1_555
C4BA C2N 1_555 1_555
H1BA C3BA 1_555 1_555
H2BA C4BA 1_555 1_555
Sc1R O1BA 1_555 1_555
Sc1C O3M 1_555 1_555
Sc1D O3D 1_555 1_555
Sc1G O3H 1_555 1_555
Sc1G_2 O2N 1_555 1_555
O1EA Sc1Q 1_555 1_555
O2V Sc1Q 1_555 1_555
O2G Sc1 1_555 1_555
O2H Sc1 1_555 1_555
O2Y Sc1Q 1_555 1_555
O3Q Sc1Q 1_555 1_555
O3EA Sc1Q 1_555 1_555
O3N Sc1 1_555 1_555
C1Q C2Q 1_555 1_555
C3Q C4Q 1_555 1_555
C7H C7M 1_555 1_555
C1BA C2BA 1_555 1_555
C3BA C4BA 1_555 1_555

#END
