
#######################################################################
#
#                 Cambridge Crystallographic Data Centre
#                                CCDC 
#
#######################################################################
#
# If this CIF has been generated from an entry in the Cambridge 
# Structural Database, then it will include bibliographic, chemical, 
# crystal, experimental, refinement or atomic coordinate data resulting 
# from the CCDC's data processing and validation procedures.
#
#######################################################################

data_HOJPIH
_symmetry_cell_setting           orthorhombic
_symmetry_space_group_name_H-M   'F d d d'
_symmetry_Int_Tables_number      70
_space_group_name_Hall           '-F 2uv 2vw'
loop_
_symmetry_equiv_pos_site_id
_symmetry_equiv_pos_as_xyz
1 x,y,z
2 x,1/2+y,1/2+z
3 1/2+x,y,1/2+z
4 1/2+x,1/2+y,z
5 x,1/4-y,1/4-z
6 x,3/4-y,3/4-z
7 1/2+x,1/4-y,3/4-z
8 1/2+x,3/4-y,1/4-z
9 1/4-x,y,1/4-z
10 1/4-x,1/2+y,3/4-z
11 3/4-x,y,3/4-z
12 3/4-x,1/2+y,1/4-z
13 1/4-x,3/4-y,1/2+z
14 1/4-x,1/4-y,z
15 3/4-x,3/4-y,z
16 3/4-x,1/4-y,1/2+z
17 -x,-y,-z
18 -x,1/2-y,1/2-z
19 1/2-x,-y,1/2-z
20 1/2-x,1/2-y,-z
21 -x,3/4+y,3/4+z
22 -x,1/4+y,1/4+z
23 1/2-x,3/4+y,1/4+z
24 1/2-x,1/4+y,3/4+z
25 3/4+x,-y,3/4+z
26 3/4+x,1/2-y,1/4+z
27 1/4+x,-y,1/4+z
28 1/4+x,1/2-y,3/4+z
29 3/4+x,1/4+y,1/2-z
30 3/4+x,3/4+y,-z
31 1/4+x,1/4+y,-z
32 1/4+x,3/4+y,1/2-z
_cell_length_a                   8.8041(15)
_cell_length_b                   20.625(2)
_cell_length_c                   34.062(5)
_cell_angle_alpha                90
_cell_angle_beta                 90
_cell_angle_gamma                90
_cell_volume                     6185.13
loop_
_atom_site_label
_atom_site_type_symbol
_atom_site_fract_x
_atom_site_fract_y
_atom_site_fract_z
Sc1 Sc 0.3750 0.3750 0.63509(10)
O1 O 0.2445(10) 0.3319(5) 0.6788(2)
C1 C 0.1046(9) 0.3199(7) 0.6819(3)
O2 O 0.0077(10) 0.3364(6) 0.6571(3)
C2 C 0.0502(9) 0.2839(7) 0.7176(3)
C3 C 0.1504(10) 0.2661(8) 0.7462(3)
C4 C 0.1016(10) 0.2297(8) 0.7778(3)
O3 O 0.2455(9) 0.4581(4) 0.6345(3)
C5 C 0.1250 0.4864(4) 0.6250
C6 C 0.1250 0.5583(3) 0.6250
C7 C 0.2598(7) 0.5916(2) 0.6244(5)
H1 H 0.2541 0.2769 0.7436
H2 H 0.1727 0.2153 0.7967
H3 H 0.3527 0.5688 0.6257
O1Q O -0.2445(10) 0.1681(5) 0.8212(2)
C1Q C -0.1046(9) 0.1801(7) 0.8181(3)
O2Q O -0.0077(10) 0.1636(6) 0.8429(3)
C2Q C -0.0502(9) 0.2161(7) 0.7824(3)
C3Q C -0.1504(10) 0.2339(8) 0.7538(3)
C4Q C -0.1016(10) 0.2703(8) 0.7222(3)
H1Q H -0.2541 0.2231 0.7564
H2Q H -0.1727 0.2847 0.7033
O3D O 0.2455(9) 0.7919(4) 0.6155(3)
C5D C 0.1250 0.7636(4) 0.6250
C6D C 0.1250 0.6917(3) 0.6250
C7D C 0.2598(7) 0.6584(2) 0.6256(5)
H3D H 0.3527 0.6812 0.6243
O3H O 0.0045(9) 0.4581(4) 0.6155(3)
C7H C -0.0098(7) 0.5916(2) 0.6256(5)
H3H H -0.1027 0.5688 0.6243
O3M O 0.0045(9) 0.7919(4) 0.6345(3)
C7M C -0.0098(7) 0.6584(2) 0.6244(5)
H3M H -0.1027 0.6812 0.6257
Sc1Q Sc -0.3750 0.1250 0.86491(10)
O1N O 0.5055(10) 0.4181(5) 0.6788(2)
C1N C 0.6454(9) 0.4301(7) 0.6819(3)
O2N O 0.7423(10) 0.4136(6) 0.6571(3)
C2N C 0.6998(9) 0.4661(7) 0.7176(3)
C3N C 0.5996(10) 0.4839(8) 0.7462(3)
C4N C 0.6484(10) 0.5203(8) 0.7778(3)
H1N H 0.4959 0.4731 0.7436
H2N H 0.5773 0.5347 0.7967
O1BA O 0.9945(10) 0.5819(5) 0.8212(2)
C1BA C 0.8546(9) 0.5699(7) 0.8181(3)
O2BA O 0.7577(10) 0.5864(6) 0.8429(3)
C2BA C 0.8002(9) 0.5339(7) 0.7824(3)
C3BA C 0.9004(10) 0.5161(8) 0.7538(3)
C4BA C 0.8516(10) 0.4797(8) 0.7222(3)
H1BA H 1.0041 0.5269 0.7564
H2BA H 0.9227 0.4653 0.7033
Sc1R Sc 1.1250 0.6250 0.86491(10)
Sc1C Sc -0.1250 0.8750 0.63509(10)
Sc1U Sc 0.6250 0.6250 0.88509(10)
Sc1D Sc 0.3750 0.8750 0.61491(10)
Sc1V Sc 0.1250 0.1250 0.88509(10)
Sc1G Sc -0.1250 0.3750 0.61491(10)
Sc1G_2 Sc 0.8750 0.3750 0.61491(10)
O1EA O -0.5055(10) 0.0819(5) 0.8212(2)
O2V O -0.5077(10) 0.0864(6) 0.9071(3)
O2G O 0.5077(10) 0.4136(6) 0.5929(3)
O2H O 0.2423(10) 0.3364(6) 0.5929(3)
O2Y O -0.2423(10) 0.1636(6) 0.9071(3)
O3Q O -0.2455(9) 0.0419(4) 0.8655(3)
O3EA O -0.5045(9) 0.2081(4) 0.8655(3)
O3N O 0.5045(9) 0.2919(4) 0.6345(3)
O4 O 0.282(3) 0.1731(10) -0.0001(6)
C8 C 0.284(4) 0.1966(16) 0.0395(7)
C9? C 0.6250 0.1250 0.0675(11)
O5? O 0.672(4) 0.0665(13) 0.0862(9)
loop_
_geom_bond_atom_site_label_1
_geom_bond_atom_site_label_2
_geom_bond_site_symmetry_1
_geom_bond_site_symmetry_2
Sc1 O1 1_555 1_555
O1 C1 1_555 1_555
C1 O2 1_555 1_555
O2 Sc1G 1_555 1_555
C2 C1 1_555 1_555
C3 C2 1_555 1_555
C4 C3 1_555 1_555
O3 Sc1 1_555 1_555
C5 O3 1_555 1_555
C6 C5 1_555 1_555
C7 C6 1_555 1_555
H1 C3 1_555 1_555
H2 C4 1_555 1_555
H3 C7 1_555 1_555
O4 C8 1_555 1_555
O1Q C1Q 1_555 1_555
C1Q O2Q 1_555 1_555
O2Q Sc1V 1_555 1_555
C2Q C4 1_555 1_555
C3Q C2Q 1_555 1_555
C4Q C2 1_555 1_555
H1Q C3Q 1_555 1_555
H2Q C4Q 1_555 1_555
O3D C5D 1_555 1_555
C5D C6D 1_555 1_555
C6D C7D 1_555 1_555
C7D C7 1_555 1_555
H3D C7D 1_555 1_555
O3H C5 1_555 1_555
C7H C6 1_555 1_555
H3H C7H 1_555 1_555
O3M C5D 1_555 1_555
C7M C6D 1_555 1_555
H3M C7M 1_555 1_555
Sc1Q O1Q 1_555 1_555
O1N Sc1 1_555 1_555
C1N O1N 1_555 1_555
O2N C1N 1_555 1_555
C2N C1N 1_555 1_555
C3N C2N 1_555 1_555
C4N C3N 1_555 1_555
H1N C3N 1_555 1_555
H2N C4N 1_555 1_555
O1BA C1BA 1_555 1_555
C1BA O2BA 1_555 1_555
O2BA Sc1U 1_555 1_555
C2BA C4N 1_555 1_555
C3BA C2BA 1_555 1_555
C4BA C2N 1_555 1_555
H1BA C3BA 1_555 1_555
H2BA C4BA 1_555 1_555
Sc1R O1BA 1_555 1_555
Sc1C O3M 1_555 1_555
Sc1D O3D 1_555 1_555
Sc1G O3H 1_555 1_555
Sc1G_2 O2N 1_555 1_555
O1EA Sc1Q 1_555 1_555
O2V Sc1Q 1_555 1_555
O2G Sc1 1_555 1_555
O2H Sc1 1_555 1_555
O2Y Sc1Q 1_555 1_555
O3Q Sc1Q 1_555 1_555
O3EA Sc1Q 1_555 1_555
O3N Sc1 1_555 1_555
C1Q C2Q 1_555 1_555
C3Q C4Q 1_555 1_555
C7H C7M 1_555 1_555
C1BA C2BA 1_555 1_555
C3BA C4BA 1_555 1_555

#END
