
#######################################################################
#
#                 Cambridge Crystallographic Data Centre
#                                CCDC 
#
#######################################################################
#
# If this CIF has been generated from an entry in the Cambridge 
# Structural Database, then it will include bibliographic, chemical, 
# crystal, experimental, refinement or atomic coordinate data resulting 
# from the CCDC's data processing and validation procedures.
#
#######################################################################

data_HOQMOR
_symmetry_cell_setting           monoclinic
_symmetry_space_group_name_H-M   'C 2/c'
_symmetry_Int_Tables_number      15
_space_group_name_Hall           '-C 2yn'
loop_
_symmetry_equiv_pos_site_id
_symmetry_equiv_pos_as_xyz
1 x,y,z
2 -x,y,1/2-z
3 1/2+x,1/2+y,z
4 1/2-x,1/2+y,1/2-z
5 -x,-y,-z
6 x,-y,1/2+z
7 1/2-x,1/2-y,-z
8 1/2+x,1/2-y,1/2+z
_cell_length_a                   17.608(8)
_cell_length_b                   17.506(7)
_cell_length_c                   12.967(5)
_cell_angle_alpha                90
_cell_angle_beta                 127.619(6)
_cell_angle_gamma                90
_cell_volume                     3165.99
loop_
_atom_site_label
_atom_site_type_symbol
_atom_site_fract_x
_atom_site_fract_y
_atom_site_fract_z
Mg1 Mg 0.0000 0.19546(9) 0.2500
Mg2 Mg 0.2500 0.2500 0.5000
O1 O 0.07801(19) 0.20078(15) 0.1842(3)
O2 O 0.23280(19) 0.18790(15) 0.3520(3)
O3 O 0.22751(19) -0.15054(14) 0.0619(3)
O4 O 0.08758(19) -0.11428(15) -0.1199(3)
O5 O 0.09906(18) 0.27895(14) 0.3888(2)
N1 N 0.0727(2) 0.33946(17) 0.4214(3)
C1 C 0.1639(3) 0.1024(2) 0.1756(4)
C2 C 0.0904(4) 0.0875(3) 0.0459(5)
H1 H 0.0399 0.1219 -0.0024
C3 C 0.0914(4) 0.0213(3) -0.0128(5)
H2 H 0.0419 0.0122 -0.1004
C4 C 0.1647(3) -0.0307(2) 0.0573(4)
C5 C 0.2381(3) -0.0143(3) 0.1837(4)
H3 H 0.2890 -0.0483 0.2316
C6 C 0.2385(3) 0.0515(3) 0.2422(4)
H4 H 0.2902 0.0616 0.3282
C7 C 0.1582(3) 0.1686(2) 0.2417(4)
C8 C 0.1598(3) -0.1044(2) -0.0055(4)
C9 C 0.0897(3) 0.4093(2) 0.3978(4)
H5 H 0.1217 0.4146 0.3617
C10 C 0.0605(3) 0.4733(2) 0.4263(4)
H6 H 0.0714 0.5215 0.4076
C11 C 0.0150(3) 0.4663(2) 0.4827(4)
C12 C 0.0022(4) 0.3931(3) 0.5090(6)
H7 H -0.0275 0.3858 0.5479
C13 C 0.0323(4) 0.3309(3) 0.4787(5)
H8 H 0.0241 0.2822 0.4990
O5D O -0.09906(18) 0.72105(14) 0.6112(2)
N1D N -0.0727(2) 0.66054(17) 0.5786(3)
C9D C -0.0897(3) 0.5907(2) 0.6022(4)
H5D H -0.1217 0.5854 0.6383
C10D C -0.0605(3) 0.5267(2) 0.5737(4)
H6D H -0.0714 0.4785 0.5924
C11D C -0.0150(3) 0.5337(2) 0.5173(4)
C12D C -0.0022(4) 0.6069(3) 0.4910(6)
H7D H 0.0275 0.6142 0.4521
C13D C -0.0323(4) 0.6691(3) 0.5213(5)
H8D H -0.0241 0.7178 0.5010
O1A O -0.07801(19) 0.20078(15) 0.3158(3)
O2A O -0.23280(19) 0.18790(15) 0.1480(3)
O3A O -0.22751(19) -0.15054(14) 0.4381(3)
O4A O -0.08758(19) -0.11428(15) 0.6199(3)
C1A C -0.1639(3) 0.1024(2) 0.3244(4)
C2A C -0.0904(4) 0.0875(3) 0.4541(5)
H1A H -0.0399 0.1219 0.5024
C3A C -0.0914(4) 0.0213(3) 0.5128(5)
H2A H -0.0419 0.0122 0.6004
C4A C -0.1647(3) -0.0307(2) 0.4427(4)
C5A C -0.2381(3) -0.0143(3) 0.3163(4)
H3A H -0.2890 -0.0483 0.2684
C6A C -0.2385(3) 0.0515(3) 0.2578(4)
H4A H -0.2902 0.0616 0.1718
C7A C -0.1582(3) 0.1686(2) 0.2583(4)
C8A C -0.1598(3) -0.1044(2) 0.5055(4)
Mg1D Mg 0.0000 -0.19546(9) -0.2500
Mg1D_2 Mg 0.0000 -0.19546(9) 0.7500
Mg1D_3 Mg 0.0000 0.80454(9) 0.7500
Mg2A Mg -0.2500 0.2500 0.0000
Mg2B Mg -0.2500 -0.2500 0.5000
Mg2B_2 Mg -0.2500 0.7500 0.5000
Mg2C Mg 0.2500 -0.2500 0.0000
O2F O 0.26720(19) 0.31210(15) 0.6480(3)
O3C O 0.27249(19) 0.34946(14) 0.4381(3)
O3E O 0.22751(19) 0.15054(14) 0.5619(3)
O4D O -0.08758(19) 0.11428(15) 0.1199(3)
O4E O 0.08758(19) 0.11428(15) 0.3801(3)
O5A O -0.09906(18) 0.27895(14) 0.1112(2)
O5F O 0.40094(18) 0.22105(14) 0.6112(2)
loop_
_geom_bond_atom_site_label_1
_geom_bond_atom_site_label_2
_geom_bond_site_symmetry_1
_geom_bond_site_symmetry_2
Mg1 O1 1_555 1_555
Mg2 O2 1_555 1_555
O1 C7 1_555 1_555
O2 C7 1_555 1_555
O3 C8 1_555 1_555
O4 C8 1_555 1_555
O5 Mg1 1_555 1_555
N1 O5 1_555 1_555
C1 C2 1_555 1_555
C2 H1 1_555 1_555
C3 C2 1_555 1_555
H2 C3 1_555 1_555
C4 C3 1_555 1_555
C5 C4 1_555 1_555
H3 C5 1_555 1_555
C6 C1 1_555 1_555
H4 C6 1_555 1_555
C7 C1 1_555 1_555
C8 C4 1_555 1_555
C9 N1 1_555 1_555
H5 C9 1_555 1_555
C10 C9 1_555 1_555
H6 C10 1_555 1_555
C11 C10 1_555 1_555
C12 C11 1_555 1_555
H7 C12 1_555 1_555
C13 N1 1_555 1_555
H8 C13 1_555 1_555
O5D N1D 1_555 1_555
N1D C9D 1_555 1_555
C9D H5D 1_555 1_555
C10D C9D 1_555 1_555
H6D C10D 1_555 1_555
C11D C11 1_555 1_555
C12D C11D 1_555 1_555
H7D C12D 1_555 1_555
C13D N1D 1_555 1_555
H8D C13D 1_555 1_555
O1A Mg1 1_555 1_555
O2A C7A 1_555 1_555
O3A C8A 1_555 1_555
O4A C8A 1_555 1_555
C1A C2A 1_555 1_555
C2A H1A 1_555 1_555
C3A C2A 1_555 1_555
H2A C3A 1_555 1_555
C4A C3A 1_555 1_555
C5A C4A 1_555 1_555
H3A C5A 1_555 1_555
C6A C1A 1_555 1_555
H4A C6A 1_555 1_555
C7A O1A 1_555 1_555
C8A C4A 1_555 1_555
Mg1D O4 1_555 1_555
Mg1D_2 O4A 1_555 1_555
Mg1D_3 O5D 1_555 1_555
Mg2A O2A 1_555 1_555
Mg2B O3A 1_555 1_555
Mg2B_2 O5D 1_555 1_555
Mg2C O3 1_555 1_555
O2F Mg2 1_555 1_555
O3C Mg2 1_555 1_555
O3E Mg2 1_555 1_555
O4D Mg1 1_555 1_555
O4E Mg1 1_555 1_555
O5A Mg1 1_555 1_555
O5F Mg2 1_555 1_555
Mg2 O5 1_555 1_555
C5 C6 1_555 1_555
C12 C13 1_555 1_555
C10D C11D 1_555 1_555
C12D C13D 1_555 1_555
C1A C7A 1_555 1_555
C5A C6A 1_555 1_555
Mg2A O5A 1_555 1_555

#END
