
#######################################################################
#
#                 Cambridge Crystallographic Data Centre
#                                CCDC 
#
#######################################################################
#
# If this CIF has been generated from an entry in the Cambridge 
# Structural Database, then it will include bibliographic, chemical, 
# crystal, experimental, refinement or atomic coordinate data resulting 
# from the CCDC's data processing and validation procedures.
#
#######################################################################

data_HOQMIL
_symmetry_cell_setting           monoclinic
_symmetry_space_group_name_H-M   'C 2/c'
_symmetry_Int_Tables_number      15
_space_group_name_Hall           '-C 2yn'
loop_
_symmetry_equiv_pos_site_id
_symmetry_equiv_pos_as_xyz
1 x,y,z
2 -x,y,1/2-z
3 1/2+x,1/2+y,z
4 1/2-x,1/2+y,1/2-z
5 -x,-y,-z
6 x,-y,1/2+z
7 1/2-x,1/2-y,-z
8 1/2+x,1/2-y,1/2+z
_cell_length_a                   18.510(5)
_cell_length_b                   16.894(4)
_cell_length_c                   13.924(6)
_cell_angle_alpha                90
_cell_angle_beta                 130.542(3)
_cell_angle_gamma                90
_cell_volume                     3308.84
loop_
_atom_site_label
_atom_site_type_symbol
_atom_site_fract_x
_atom_site_fract_y
_atom_site_fract_z
Mg1 Mg 0.5000 0.30790(6) 0.2500
Mg2 Mg 0.7500 0.2500 0.5000
O1 O 0.58840(12) 0.39131(10) 0.38060(17)
O2 O 0.73061(13) 0.35318(10) 0.55848(17)
O3 O 0.57600(13) 0.69797(10) 0.69239(17)
O4 O 0.73030(12) 0.68590(10) 0.85797(16)
O5 O 0.40079(12) 0.21990(10) 0.11233(17)
N1 N 0.42669(14) 0.15949(12) 0.0791(2)
C1 C 0.66494(17) 0.47305(14) 0.5586(2)
C2 C 0.5883(2) 0.52371(18) 0.4945(3)
H1 H 0.5370 0.5149 0.4094
C3 C 0.5867(2) 0.58751(17) 0.5553(3)
H2 H 0.5340 0.6207 0.5109
C4 C 0.66245(17) 0.60262(15) 0.6809(2)
C5 C 0.7398(2) 0.5533(2) 0.7436(3)
H3 H 0.7923 0.5635 0.8277
C6 C 0.7410(2) 0.48842(19) 0.6837(3)
H4 H 0.7936 0.4551 0.7283
C7 C 0.66110(17) 0.40000(14) 0.4938(2)
C8 C 0.65645(17) 0.66775(14) 0.7493(2)
C9 C 0.4630(2) 0.17348(17) 0.0232(3)
H5 H 0.4684 0.2252 0.0056
C10 C 0.4922(2) 0.11144(18) -0.0081(3)
H6 H 0.5174 0.1217 -0.0467
C11 C 0.48461(18) 0.03385(15) 0.0170(3)
C12 C 0.4440(2) 0.02244(17) 0.0717(3)
H7 H 0.4364 -0.0287 0.0886
C13 C 0.4149(2) 0.08566(16) 0.1012(3)
H8 H 0.3869 0.0771 0.1366
O5D O 0.59921(12) -0.21990(10) -0.11233(17)
N1D N 0.57331(14) -0.15949(12) -0.0791(2)
C9D C 0.5370(2) -0.17348(17) -0.0232(3)
H5D H 0.5316 -0.2252 -0.0056
C10D C 0.5078(2) -0.11144(18) 0.0081(3)
H6D H 0.4826 -0.1217 0.0467
C11D C 0.51539(18) -0.03385(15) -0.0170(3)
C12D C 0.5560(2) -0.02244(17) -0.0717(3)
H7D H 0.5636 0.0287 -0.0886
C13D C 0.5851(2) -0.08566(16) -0.1012(3)
H8D H 0.6131 -0.0771 -0.1366
O1A O 0.41160(12) 0.39131(10) 0.11940(17)
O2A O 0.26939(13) 0.35318(10) -0.05848(17)
O3A O 0.42400(13) 0.69797(10) -0.19239(17)
O4A O 0.26970(12) 0.68590(10) -0.35797(16)
C1A C 0.33506(17) 0.47305(14) -0.0586(2)
C2A C 0.4117(2) 0.52371(18) 0.0055(3)
H1A H 0.4630 0.5149 0.0906
C3A C 0.4133(2) 0.58751(17) -0.0553(3)
H2A H 0.4660 0.6207 -0.0109
C4A C 0.33755(17) 0.60262(15) -0.1809(2)
C5A C 0.2602(2) 0.5533(2) -0.2436(3)
H3A H 0.2077 0.5635 -0.3277
C6A C 0.2590(2) 0.48842(19) -0.1837(3)
H4A H 0.2064 0.4551 -0.2283
C7A C 0.33890(17) 0.40000(14) 0.0062(2)
C8A C 0.34355(17) 0.66775(14) -0.2493(2)
Mg1D Mg 0.5000 -0.30790(6) -0.2500
Mg1D_2 Mg 0.5000 0.69210(6) -0.2500
Mg1D_3 Mg 0.5000 0.69210(6) 0.7500
Mg2A Mg 0.2500 0.2500 0.0000
Mg2B Mg 0.2500 0.7500 -0.5000
Mg2C Mg 0.7500 -0.2500 0.0000
Mg2C_2 Mg 0.7500 0.7500 1.0000
O2F O 0.76939(13) 0.14682(10) 0.44152(17)
O3D O 0.42400(13) 0.30203(10) 0.30761(17)
O3E O 0.57600(13) 0.30203(10) 0.19239(17)
O4C O 0.76970(12) 0.18590(10) 0.64203(16)
O4E O 0.73030(12) 0.31410(10) 0.35797(16)
O5A O 0.59921(12) 0.21990(10) 0.38767(17)
O5G O 0.90079(12) 0.28010(10) 0.61233(17)
N2 N 0.2175(5) 0.1672(4) 0.3697(7)
O6 O 0.3669(6) 0.1556(5) 0.5714(9)
C14 C 0.180(3) 0.124(2) 0.420(5)
C15 C 0.1666(17) 0.2143(11) 0.2479(17)
C16 C 0.3144(15) 0.2021(16) 0.451(2)
C17? C 0.2500(11) 0.2180(8) 0.3292(15)
C18? C 0.1222(11) 0.1305(13) 0.2852(18)
C19? C 0.2739(10) 0.1316(8) 0.4922(11)
loop_
_geom_bond_atom_site_label_1
_geom_bond_atom_site_label_2
_geom_bond_site_symmetry_1
_geom_bond_site_symmetry_2
Mg1 O1 1_555 1_555
Mg2 O2 1_555 1_555
O1 C7 1_555 1_555
O2 C7 1_555 1_555
O3 C8 1_555 1_555
O4 C8 1_555 1_555
O5 Mg1 1_555 1_555
N1 O5 1_555 1_555
C1 C2 1_555 1_555
C2 H1 1_555 1_555
C3 C2 1_555 1_555
H2 C3 1_555 1_555
C4 C3 1_555 1_555
C5 C4 1_555 1_555
H3 C5 1_555 1_555
C6 C1 1_555 1_555
H4 C6 1_555 1_555
C7 C1 1_555 1_555
C8 C4 1_555 1_555
C9 N1 1_555 1_555
H5 C9 1_555 1_555
C10 C9 1_555 1_555
H6 C10 1_555 1_555
C11 C10 1_555 1_555
C12 C11 1_555 1_555
H7 C12 1_555 1_555
C13 N1 1_555 1_555
H8 C13 1_555 1_555
N2 C14 1_555 1_555
O6 C16 1_555 1_555
C15 N2 1_555 1_555
C16 N2 1_555 1_555
O5D N1D 1_555 1_555
N1D C9D 1_555 1_555
C9D H5D 1_555 1_555
C10D C9D 1_555 1_555
H6D C10D 1_555 1_555
C11D C11 1_555 1_555
C12D C11D 1_555 1_555
H7D C12D 1_555 1_555
C13D N1D 1_555 1_555
H8D C13D 1_555 1_555
O1A Mg1 1_555 1_555
O2A C7A 1_555 1_555
O3A C8A 1_555 1_555
O4A C8A 1_555 1_555
C1A C2A 1_555 1_555
C2A H1A 1_555 1_555
C3A C2A 1_555 1_555
H2A C3A 1_555 1_555
C4A C3A 1_555 1_555
C5A C4A 1_555 1_555
H3A C5A 1_555 1_555
C6A C1A 1_555 1_555
H4A C6A 1_555 1_555
C7A O1A 1_555 1_555
C8A C4A 1_555 1_555
Mg1D O5D 1_555 1_555
Mg1D_2 O3A 1_555 1_555
Mg1D_3 O3 1_555 1_555
Mg2A O5 1_555 1_555
Mg2B O4A 1_555 1_555
Mg2C O5D 1_555 1_555
Mg2C_2 O4 1_555 1_555
O2F Mg2 1_555 1_555
O3D Mg1 1_555 1_555
O3E Mg1 1_555 1_555
O4C Mg2 1_555 1_555
O4E Mg2 1_555 1_555
O5A Mg1 1_555 1_555
O5G Mg2 1_555 1_555
Mg2 O5A 1_555 1_555
C5 C6 1_555 1_555
C12 C13 1_555 1_555
C10D C11D 1_555 1_555
C12D C13D 1_555 1_555
O2A Mg2A 1_555 1_555
C1A C7A 1_555 1_555
C5A C6A 1_555 1_555

#END
