
#######################################################################
#
#                 Cambridge Crystallographic Data Centre
#                                CCDC 
#
#######################################################################
#
# If this CIF has been generated from an entry in the Cambridge 
# Structural Database, then it will include bibliographic, chemical, 
# crystal, experimental, refinement or atomic coordinate data resulting 
# from the CCDC's data processing and validation procedures.
#
#######################################################################

data_HOQMIL03
_symmetry_cell_setting           monoclinic
_symmetry_space_group_name_H-M   'C 2/c'
_symmetry_Int_Tables_number      15
_space_group_name_Hall           '-C 2yn'
loop_
_symmetry_equiv_pos_site_id
_symmetry_equiv_pos_as_xyz
1 x,y,z
2 -x,y,1/2-z
3 1/2+x,1/2+y,z
4 1/2-x,1/2+y,1/2-z
5 -x,-y,-z
6 x,-y,1/2+z
7 1/2-x,1/2-y,-z
8 1/2+x,1/2-y,1/2+z
_cell_length_a                   18.1190(16)
_cell_length_b                   17.2294(15)
_cell_length_c                   13.4780(12)
_cell_angle_alpha                90
_cell_angle_beta                 129.3800(10)
_cell_angle_gamma                90
_cell_volume                     3252.25
loop_
_atom_site_label
_atom_site_type_symbol
_atom_site_fract_x
_atom_site_fract_y
_atom_site_fract_z
Mg1 Mg 0.2500 0.2500 0.5000
Mg2 Mg 0.0000 0.19470(8) 0.2500
O1 O 0.23013(15) 0.18662(13) 0.3550(2)
O2 O 0.07555(15) 0.20013(13) 0.1862(2)
O3 O 0.23052(15) -0.14896(13) 0.0619(2)
O4 O 0.08837(16) -0.11192(13) -0.1200(2)
O5 O 0.09988(15) 0.27906(13) 0.3897(2)
N1 N 0.07407(18) 0.33972(15) 0.4228(3)
C1 C 0.1617(2) 0.10198(19) 0.1772(3)
C2 C 0.2396(3) 0.0523(2) 0.2440(4)
H1 H 0.294(4) 0.065(3) 0.335(6)
C3 C 0.2407(3) -0.0129(2) 0.1856(4)
H2 H 0.291(4) -0.047(3) 0.227(5)
C4 C 0.1646(2) -0.02945(19) 0.0586(3)
C5 C 0.0878(3) 0.0213(2) -0.0085(4)
H3 H 0.038(3) 0.008(2) -0.085(5)
C6 C 0.0861(3) 0.0858(2) 0.0505(4)
H4 H 0.041(3) 0.123(2) 0.013(4)
C7 C 0.1564(2) 0.16822(18) 0.2451(3)
C8 C 0.1610(2) -0.10270(18) -0.0053(3)
C9 C 0.0862(2) 0.4113(2) 0.3977(3)
H5 H 0.111(3) 0.417(2) 0.365(4)
C10 C 0.0569(3) 0.4749(2) 0.4254(4)
H6 H 0.066(3) 0.521(3) 0.404(4)
C11 C 0.0154(2) 0.4658(2) 0.4833(3)
C12 C 0.0073(3) 0.3909(2) 0.5121(4)
H7 H -0.025(3) 0.378(3) 0.545(5)
C13 C 0.0368(3) 0.3286(2) 0.4815(4)
H8 H 0.029(3) 0.280(3) 0.489(4)
O5D O -0.09988(15) 0.72094(13) 0.6103(2)
N1D N -0.07407(18) 0.66028(15) 0.5772(3)
C9D C -0.0862(2) 0.5887(2) 0.6023(3)
H5D H -0.111(3) 0.583(2) 0.635(4)
C10D C -0.0569(3) 0.5251(2) 0.5746(4)
H6D H -0.066(3) 0.479(3) 0.596(4)
C11D C -0.0154(2) 0.5342(2) 0.5167(3)
C12D C -0.0073(3) 0.6091(2) 0.4879(4)
H7D H 0.025(3) 0.622(3) 0.455(5)
C13D C -0.0368(3) 0.6714(2) 0.5185(4)
H8D H -0.029(3) 0.720(3) 0.511(4)
O1A O -0.23013(15) 0.18662(13) 0.1450(2)
O2A O -0.07555(15) 0.20013(13) 0.3138(2)
O3A O -0.23052(15) -0.14896(13) 0.4381(2)
O4A O -0.08837(16) -0.11192(13) 0.6200(2)
C1A C -0.1617(2) 0.10198(19) 0.3228(3)
C2A C -0.2396(3) 0.0523(2) 0.2560(4)
H1A H -0.294(4) 0.065(3) 0.165(6)
C3A C -0.2407(3) -0.0129(2) 0.3144(4)
H2A H -0.291(4) -0.047(3) 0.273(5)
C4A C -0.1646(2) -0.02945(19) 0.4414(3)
C5A C -0.0878(3) 0.0213(2) 0.5085(4)
H3A H -0.038(3) 0.008(2) 0.585(5)
C6A C -0.0861(3) 0.0858(2) 0.4495(4)
H4A H -0.041(3) 0.123(2) 0.487(4)
C7A C -0.1564(2) 0.16822(18) 0.2549(3)
C8A C -0.1610(2) -0.10270(18) 0.5053(3)
Mg1A Mg -0.2500 0.2500 0.0000
Mg1B Mg -0.2500 -0.2500 0.5000
Mg1B_2 Mg -0.2500 0.7500 0.5000
Mg1C Mg 0.2500 -0.2500 0.0000
Mg2D Mg 0.0000 -0.19470(8) -0.2500
Mg2D_2 Mg 0.0000 -0.19470(8) 0.7500
Mg2D_3 Mg 0.0000 0.80530(8) 0.7500
O1F O 0.26987(15) 0.31338(13) 0.6450(2)
O3C O 0.26948(15) 0.35104(13) 0.4381(2)
O3E O 0.23052(15) 0.14896(13) 0.5619(2)
O4D O -0.08837(16) 0.11192(13) 0.1200(2)
O4E O 0.08837(16) 0.11192(13) 0.3800(2)
O5A O -0.09988(15) 0.27906(13) 0.1103(2)
O5F O 0.40012(15) 0.22094(13) 0.6103(2)
O6 O 0.1355(4) 0.3536(3) -0.0851(6)
N2 N 0.2783(4) 0.3373(4) 0.1174(6)
C14 C 0.2214(6) 0.3684(5) -0.0031(8)
H9 H 0.2489 0.4026 -0.0247
C15 C 0.2457(7) 0.2864(5) 0.1589(9)
H10 H 0.2973 0.2715 0.2457
H11 H 0.2206 0.2412 0.1050
H12 H 0.1962 0.3105 0.1551
C16 C 0.3726(8) 0.3661(9) 0.2059(13)
H13 H 0.4042 0.3413 0.2875
H14 H 0.3708 0.4212 0.2153
H15 H 0.4068 0.3554 0.1749
loop_
_geom_bond_atom_site_label_1
_geom_bond_atom_site_label_2
_geom_bond_site_symmetry_1
_geom_bond_site_symmetry_2
Mg1 O1 1_555 1_555
Mg2 O2 1_555 1_555
O1 C7 1_555 1_555
O2 C7 1_555 1_555
O3 C8 1_555 1_555
O4 C8 1_555 1_555
O5 Mg1 1_555 1_555
N1 O5 1_555 1_555
C1 C2 1_555 1_555
C2 H1 1_555 1_555
C3 C2 1_555 1_555
H2 C3 1_555 1_555
C4 C3 1_555 1_555
C5 C4 1_555 1_555
H3 C5 1_555 1_555
C6 C1 1_555 1_555
H4 C6 1_555 1_555
C7 C1 1_555 1_555
C8 C4 1_555 1_555
C9 N1 1_555 1_555
H5 C9 1_555 1_555
C10 C9 1_555 1_555
H6 C10 1_555 1_555
C11 C10 1_555 1_555
C12 C11 1_555 1_555
H7 C12 1_555 1_555
C13 N1 1_555 1_555
H8 C13 1_555 1_555
O6 C14 1_555 1_555
N2 C14 1_555 1_555
C14 H9 1_555 1_555
C15 N2 1_555 1_555
H10 C15 1_555 1_555
H11 C15 1_555 1_555
H12 C15 1_555 1_555
C16 N2 1_555 1_555
H13 C16 1_555 1_555
H14 C16 1_555 1_555
H15 C16 1_555 1_555
O5D N1D 1_555 1_555
N1D C9D 1_555 1_555
C9D H5D 1_555 1_555
C10D C9D 1_555 1_555
H6D C10D 1_555 1_555
C11D C11 1_555 1_555
C12D C11D 1_555 1_555
H7D C12D 1_555 1_555
C13D N1D 1_555 1_555
H8D C13D 1_555 1_555
O1A C7A 1_555 1_555
O2A Mg2 1_555 1_555
O3A C8A 1_555 1_555
O4A C8A 1_555 1_555
C1A C2A 1_555 1_555
C2A H1A 1_555 1_555
C3A C2A 1_555 1_555
H2A C3A 1_555 1_555
C4A C3A 1_555 1_555
C5A C4A 1_555 1_555
H3A C5A 1_555 1_555
C6A C1A 1_555 1_555
H4A C6A 1_555 1_555
C7A O2A 1_555 1_555
C8A C4A 1_555 1_555
Mg1A O1A 1_555 1_555
Mg1B O3A 1_555 1_555
Mg1B_2 O5D 1_555 1_555
Mg1C O3 1_555 1_555
Mg2D O4 1_555 1_555
Mg2D_2 O4A 1_555 1_555
Mg2D_3 O5D 1_555 1_555
O1F Mg1 1_555 1_555
O3C Mg1 1_555 1_555
O3E Mg1 1_555 1_555
O4D Mg2 1_555 1_555
O4E Mg2 1_555 1_555
O5A Mg2 1_555 1_555
O5F Mg1 1_555 1_555
Mg2 O5 1_555 1_555
C5 C6 1_555 1_555
C12 C13 1_555 1_555
C10D C11D 1_555 1_555
C12D C13D 1_555 1_555
C1A C7A 1_555 1_555
C5A C6A 1_555 1_555
Mg1A O5A 1_555 1_555

#END
