
#######################################################################
#
#                 Cambridge Crystallographic Data Centre
#                                CCDC 
#
#######################################################################
#
# If this CIF has been generated from an entry in the Cambridge 
# Structural Database, then it will include bibliographic, chemical, 
# crystal, experimental, refinement or atomic coordinate data resulting 
# from the CCDC's data processing and validation procedures.
#
#######################################################################

data_HOVJIN
_symmetry_cell_setting           triclinic
_symmetry_space_group_name_H-M   'P -1'
_symmetry_Int_Tables_number      2
_space_group_name_Hall           '-P 1'
loop_
_symmetry_equiv_pos_site_id
_symmetry_equiv_pos_as_xyz
1 x,y,z
2 -x,-y,-z
_cell_length_a                   9.4990(11)
_cell_length_b                   9.5854(11)
_cell_length_c                   11.4945(14)
_cell_angle_alpha                101.9060(10)
_cell_angle_beta                 95.7480(10)
_cell_angle_gamma                119.3870(10)
_cell_volume                     867.055
loop_
_atom_site_label
_atom_site_type_symbol
_atom_site_fract_x
_atom_site_fract_y
_atom_site_fract_z
Er1 Er 0.731414(13) 0.361224(14) 0.494969(11)
Ag1 Ag 0.51032(3) 0.80804(5) 0.17762(3)
O1 O 0.4147(2) -0.1894(2) 0.38528(19)
O2 O 1.2057(2) 0.6693(3) 0.69310(19)
O3 O 0.9305(2) 0.5175(3) 0.6735(2)
O4 O 1.1317(2) 0.7810(3) 0.4823(2)
O5 O 0.8576(3) 0.6244(3) 0.4662(2)
O6 O 0.4952(2) 0.6448(3) 0.6176(2)
O7 O 0.6288(2) 0.5071(3) 0.62245(19)
N1 N 1.2826(3) 0.7565(4) 1.0682(2)
N2 N 0.7608(3) 0.8703(3) 0.2461(3)
C1 C 1.1584(4) 0.7469(5) 1.1186(3)
H1 H 1.1754 0.7718 1.2033
C2 C 1.0067(4) 0.7019(4) 1.0512(3)
H2 H 0.9255 0.7022 1.0900
C3 C 0.9768(4) 0.6565(4) 0.9262(3)
H3 H 0.8735 0.6212 0.8788
C4 C 1.1028(3) 0.6642(3) 0.8713(3)
C5 C 1.2540(4) 0.7168(4) 0.9444(3)
H4 H 1.3397 0.7255 0.9076
C6 C 1.0777(3) 0.6136(3) 0.7343(3)
C7 C 0.7938(3) 0.7883(4) 0.3169(3)
H5 H 0.7058 0.6940 0.3286
C8 C 0.9552(3) 0.8408(3) 0.3725(3)
C9 C 1.0845(4) 0.9815(4) 0.3560(3)
H6 H 1.1937 1.0201 0.3930
C10 C 1.0504(4) 1.0647(4) 0.2840(3)
H7 H 1.1362 1.1598 0.2714
C11 C 0.8885(4) 1.0051(4) 0.2312(3)
H8 H 0.8666 1.0617 0.1825
C12 C 0.9835(3) 0.7419(4) 0.4474(3)
C13 C 0.4868(3) -0.0333(4) 0.4303(3)
C14 C 0.5357(3) 0.5430(4) 0.5691(3)
O8 O 0.5402(2) 0.0726(2) 0.37366(18)
O1A O 0.5853(2) 0.1894(2) 0.61472(19)
C13A C 0.5132(3) 0.0333(4) 0.5697(3)
O8A O 0.4598(2) -0.0726(2) 0.62634(18)
O6A O 0.5048(2) 0.3552(3) 0.3824(2)
O7A O 0.3712(2) 0.4929(3) 0.37755(19)
C14A C 0.4643(3) 0.4570(4) 0.4309(3)
Er1A Er 0.268586(13) -0.361224(14) 0.505031(11)
Ag1A Ag 0.48968(3) -0.80804(5) 0.82238(3)
O2A O -0.2057(2) -0.6693(3) 0.30690(19)
O3A O 0.0695(2) -0.5175(3) 0.3265(2)
O4A O -0.1317(2) -0.7810(3) 0.5177(2)
O5A O 0.1424(3) -0.6244(3) 0.5338(2)
N1A N -0.2826(3) -0.7565(4) -0.0682(2)
N2A N 0.2392(3) -0.8703(3) 0.7539(3)
C1A C -0.1584(4) -0.7469(5) -0.1186(3)
H1A H -0.1754 -0.7718 -0.2033
C2A C -0.0067(4) -0.7019(4) -0.0512(3)
H2A H 0.0745 -0.7022 -0.0900
C3A C 0.0232(4) -0.6565(4) 0.0738(3)
H3A H 0.1265 -0.6212 0.1212
C4A C -0.1028(3) -0.6642(3) 0.1287(3)
C5A C -0.2540(4) -0.7168(4) 0.0556(3)
H4A H -0.3397 -0.7255 0.0924
C6A C -0.0777(3) -0.6136(3) 0.2657(3)
C7A C 0.2062(3) -0.7883(4) 0.6831(3)
H5A H 0.2942 -0.6940 0.6714
C8A C 0.0448(3) -0.8408(3) 0.6275(3)
C9A C -0.0845(4) -0.9815(4) 0.6440(3)
H6A H -0.1937 -1.0201 0.6070
C10A C -0.0504(4) -1.0647(4) 0.7160(3)
H7A H -0.1362 -1.1598 0.7286
C11A C 0.1115(4) -1.0051(4) 0.7688(3)
H8A H 0.1334 -1.0617 0.8175
C12A C 0.0165(3) -0.7419(4) 0.5526(3)
Er1_2 Er -0.268586(13) -0.638776(14) 0.494969(11)
Er1A_2 Er 0.268586(13) 0.638776(14) 0.505031(11)
Er1A_3 Er 1.268586(13) 0.638776(14) 0.505031(11)
Ag1_2 Ag 0.51032(3) -0.19196(5) 0.17762(3)
Ag1_3 Ag 1.51032(3) 0.80804(5) 1.17762(3)
Ag1A_2 Ag -0.51032(3) -0.80804(5) -0.17762(3)
Ag1A_3 Ag 0.48968(3) 0.19196(5) 0.82238(3)
O1_2 O 0.4147(2) 0.8106(2) 0.38528(19)
O1A_2 O 0.5853(2) -0.8106(2) 0.61472(19)
O2_2 O 0.2057(2) -0.3307(3) 0.69310(19)
O2A_2 O 0.7943(2) 0.3307(3) 0.30690(19)
O4_2 O 0.1317(2) -0.2190(3) 0.4823(2)
O4A_2 O 0.8683(2) 0.2190(3) 0.5177(2)
O6_2 O 0.4952(2) -0.3552(3) 0.6176(2)
O7A_2 O 0.3712(2) -0.5071(3) 0.37755(19)
N1_2 N 0.2826(3) 0.7565(4) 0.0682(2)
N1A_2 N 0.7174(3) -0.7565(4) 0.9318(2)
O10 O 0.5878(11) 0.5747(13) 0.8733(9)
O11 O 0.6190(6) 0.8263(7) 0.8716(4)
H9 H 0.596(4) 0.854(2) 0.8062(15)
H10 H 0.584(5) 0.720(2) 0.8332(18)
O10A O 0.4122(11) 0.4253(13) 1.1267(9)
O9? O 0.5774(12) 0.5343(11) 0.9609(10)
loop_
_geom_bond_atom_site_label_1
_geom_bond_atom_site_label_2
_geom_bond_site_symmetry_1
_geom_bond_site_symmetry_2
Er1 O3 1_555 1_555
Ag1 N2 1_555 1_555
O1 C13 1_555 1_555
O2 C6 1_555 1_555
O3 C6 1_555 1_555
O4 C12 1_555 1_555
O5 Er1 1_555 1_555
O6 C14 1_555 1_555
O7 Er1 1_555 1_555
N1 C1 1_555 1_555
N2 C7 1_555 1_555
C1 H1 1_555 1_555
C2 C1 1_555 1_555
H2 C2 1_555 1_555
C3 C2 1_555 1_555
H3 C3 1_555 1_555
C4 C3 1_555 1_555
C5 N1 1_555 1_555
H4 C5 1_555 1_555
C6 C4 1_555 1_555
C7 H5 1_555 1_555
C8 C7 1_555 1_555
C9 C8 1_555 1_555
H6 C9 1_555 1_555
C10 C9 1_555 1_555
H7 C10 1_555 1_555
C11 N2 1_555 1_555
H8 C11 1_555 1_555
C12 O5 1_555 1_555
C13 O8 1_555 1_555
C14 O7 1_555 1_555
O8 Er1 1_555 1_555
O11 H9 1_555 1_555
H10 O11 1_555 1_555
O1A Er1 1_555 1_555
C13A C13 1_555 1_555
O8A C13A 1_555 1_555
O6A Er1 1_555 1_555
O7A C14A 1_555 1_555
C14A C14 1_555 1_555
Er1A O1 1_555 1_555
Ag1A N2A 1_555 1_555
O2A C6A 1_555 1_555
O3A Er1A 1_555 1_555
O4A C12A 1_555 1_555
O5A Er1A 1_555 1_555
N1A C1A 1_555 1_555
N2A C7A 1_555 1_555
C1A H1A 1_555 1_555
C2A C1A 1_555 1_555
H2A C2A 1_555 1_555
C3A C2A 1_555 1_555
H3A C3A 1_555 1_555
C4A C3A 1_555 1_555
C5A N1A 1_555 1_555
H4A C5A 1_555 1_555
C6A O3A 1_555 1_555
C7A H5A 1_555 1_555
C8A C7A 1_555 1_555
C9A C8A 1_555 1_555
H6A C9A 1_555 1_555
C10A C9A 1_555 1_555
H7A C10A 1_555 1_555
C11A N2A 1_555 1_555
H8A C11A 1_555 1_555
C12A O5A 1_555 1_555
Er1_2 O2A 1_555 1_555
Er1A_2 O6 1_555 1_555
Er1A_3 O2 1_555 1_555
Ag1_2 O1 1_555 1_555
Ag1_3 N1 1_555 1_555
Ag1A_2 N1A 1_555 1_555
Ag1A_3 O1A 1_555 1_555
O1_2 Ag1 1_555 1_555
O1A_2 Ag1A 1_555 1_555
O2_2 Er1A 1_555 1_555
O2A_2 Er1 1_555 1_555
O4_2 Er1A 1_555 1_555
O4A_2 Er1 1_555 1_555
O6_2 Er1A 1_555 1_555
O7A_2 Er1A 1_555 1_555
N1_2 Ag1 1_555 1_555
N1A_2 Ag1A 1_555 1_555
O4 Er1A_3 1_555 1_555
C4 C5 1_555 1_555
C8 C12 1_555 1_555
C10 C11 1_555 1_555
O1A C13A 1_555 1_555
O8A Er1A 1_555 1_555
O6A C14A 1_555 1_555
O7A Er1A_2 1_555 1_555
O4A Er1_2 1_555 1_555
C4A C5A 1_555 1_555
C4A C6A 1_555 1_555
C8A C12A 1_555 1_555
C10A C11A 1_555 1_555
Er1A_2 O1_2 1_555 1_555

#END
