
#######################################################################
#
#                 Cambridge Crystallographic Data Centre
#                                CCDC 
#
#######################################################################
#
# If this CIF has been generated from an entry in the Cambridge 
# Structural Database, then it will include bibliographic, chemical, 
# crystal, experimental, refinement or atomic coordinate data resulting 
# from the CCDC's data processing and validation procedures.
#
#######################################################################

data_HOWPIU
_symmetry_cell_setting           monoclinic
_symmetry_space_group_name_H-M   'P 21/n'
_symmetry_Int_Tables_number      14
_space_group_name_Hall           '-P 2yn'
loop_
_symmetry_equiv_pos_site_id
_symmetry_equiv_pos_as_xyz
1 x,y,z
2 1/2-x,1/2+y,1/2-z
3 -x,-y,-z
4 1/2+x,1/2-y,1/2+z
_cell_length_a                   9.153(3)
_cell_length_b                   17.895(5)
_cell_length_c                   10.668(3)
_cell_angle_alpha                90
_cell_angle_beta                 96.395(4)
_cell_angle_gamma                90
_cell_volume                     1736.47
loop_
_atom_site_label
_atom_site_type_symbol
_atom_site_fract_x
_atom_site_fract_y
_atom_site_fract_z
Ag1 Ag 0.63075(5) 0.40979(3) 0.97481(4)
Ag2 Ag 0.95235(5) 0.45099(2) 0.82649(4)
N1 N 0.6445(4) 0.4756(2) 0.1552(3)
N2 N 0.5553(5) 0.5372(2) 0.1723(4)
N3 N 0.7149(4) 0.5243(2) 0.3367(3)
N4 N 0.7891(4) 0.5338(2) 0.4554(3)
N5 N 0.9313(5) 0.5809(2) 0.6124(4)
N6 N 0.8888(4) 0.5086(2) 0.6431(3)
N7 N 0.8217(5) 0.3378(2) 0.7687(4)
N8 N 0.6908(5) 0.3267(2) 0.8209(4)
N9 N 0.7212(4) 0.2354(2) 0.6957(3)
N10 N 0.6954(4) 0.1706(2) 0.6259(3)
N11 N 0.5993(5) 0.0935(2) 0.4858(4)
N12 N 0.6982(5) 0.0542(2) 0.5704(4)
C1 C 0.7393(5) 0.4688(3) 0.2548(4)
H1 H 0.8114 0.4321 0.2677
C2 C 0.5990(5) 0.5649(3) 0.2832(4)
H2 H 0.5575 0.6058 0.3197
C3 C 0.8712(5) 0.5940(3) 0.4985(4)
H3 H 0.8824 0.6377 0.4534
C4 C 0.8018(5) 0.4825(3) 0.5489(4)
H4 H 0.7558 0.4361 0.5462
C5 C 0.8375(5) 0.2815(3) 0.6939(5)
H5 H 0.9161 0.2743 0.6470
C6 C 0.6324(5) 0.2647(3) 0.7763(4)
H6 H 0.5447 0.2441 0.7963
C7 C 0.5993(6) 0.1627(3) 0.5204(5)
H7 H 0.5429 0.2007 0.4799
C8 C 0.7537(5) 0.1022(2) 0.6541(4)
H8 H 0.8225 0.0913 0.7225
O1 O 0.6119(5) 0.2790(3) 1.0882(5)
O2 O 0.8262(5) 0.3168(3) 1.1632(6)
O3 O 0.7405(8) 0.2101(3) 1.2198(6)
N13 N 0.7266(6) 0.2690(3) 1.1595(6)
Ag1_2 Ag 0.63075(5) 0.40979(3) -0.02519(4)
Ag1B Ag 0.36925(5) 0.59021(3) 0.02519(4)
Ag2A Ag 0.54765(5) -0.04901(2) 0.67351(4)
Ag2C Ag 0.45235(5) 0.04901(2) 0.32649(4)
N1_2 N 0.6445(4) 0.4756(2) 1.1552(3)
N2B N 0.4447(5) 0.4628(2) 0.8277(4)
N11C N 1.0993(5) 0.4065(2) 0.9858(4)
N12A N 0.8018(5) 0.5542(2) 0.9296(4)
O4 O 0.4057(7) 0.3119(3) 0.4360(8)
O5 O 0.6212(6) 0.3392(3) 0.4926(7)
O6 O 0.4770(5) 0.4216(2) 0.4031(4)
N14 N 0.5046(5) 0.3573(2) 0.4388(4)
loop_
_geom_bond_atom_site_label_1
_geom_bond_atom_site_label_2
_geom_bond_site_symmetry_1
_geom_bond_site_symmetry_2
Ag1 N8 1_555 1_555
Ag2 N6 1_555 1_555
N1 N2 1_555 1_555
N2 C2 1_555 1_555
N3 N4 1_555 1_555
N4 C3 1_555 1_555
N5 N6 1_555 1_555
N6 C4 1_555 1_555
N7 Ag2 1_555 1_555
N8 N7 1_555 1_555
N9 N10 1_555 1_555
N10 C7 1_555 1_555
N11 N12 1_555 1_555
N12 C8 1_555 1_555
C1 N1 1_555 1_555
H1 C1 1_555 1_555
C2 N3 1_555 1_555
H2 C2 1_555 1_555
C3 N5 1_555 1_555
H3 C3 1_555 1_555
C4 N4 1_555 1_555
H4 C4 1_555 1_555
C5 N7 1_555 1_555
H5 C5 1_555 1_555
C6 N8 1_555 1_555
H6 C6 1_555 1_555
C7 N11 1_555 1_555
H7 C7 1_555 1_555
C8 N10 1_555 1_555
H8 C8 1_555 1_555
O1 Ag1 1_555 1_555
O2 N13 1_555 1_555
O3 N13 1_555 1_555
N13 O1 1_555 1_555
O4 N14 1_555 1_555
O5 N14 1_555 1_555
O6 N14 1_555 1_555
Ag1_2 N1 1_555 1_555
Ag1B N2 1_555 1_555
Ag2A N12 1_555 1_555
Ag2C N11 1_555 1_555
N1_2 Ag1 1_555 1_555
N2B Ag1 1_555 1_555
N11C Ag2 1_555 1_555
N12A Ag2 1_555 1_555
N3 C1 1_555 1_555
N9 C5 1_555 1_555
N9 C6 1_555 1_555

#END
