
#######################################################################
#
#                 Cambridge Crystallographic Data Centre
#                                CCDC 
#
#######################################################################
#
# If this CIF has been generated from an entry in the Cambridge 
# Structural Database, then it will include bibliographic, chemical, 
# crystal, experimental, refinement or atomic coordinate data resulting 
# from the CCDC's data processing and validation procedures.
#
#######################################################################

data_HOYKUD
_symmetry_cell_setting           monoclinic
_symmetry_space_group_name_H-M   'P 21/c'
_symmetry_Int_Tables_number      14
_space_group_name_Hall           '-P 2ybc'
loop_
_symmetry_equiv_pos_site_id
_symmetry_equiv_pos_as_xyz
1 x,y,z
2 -x,1/2+y,1/2-z
3 -x,-y,-z
4 x,1/2-y,1/2+z
_cell_length_a                   11.5727(14)
_cell_length_b                   12.4292(16)
_cell_length_c                   14.4253(17)
_cell_angle_alpha                90
_cell_angle_beta                 102.098(7)
_cell_angle_gamma                90
_cell_volume                     2028.84
loop_
_atom_site_label
_atom_site_type_symbol
_atom_site_fract_x
_atom_site_fract_y
_atom_site_fract_z
Cu1 Cu 0.09378(3) 1.06422(3) 1.00700(2)
O1 O 0.15654(18) 0.94480(16) 0.94156(16)
N1 N 0.75143(18) 0.83854(18) 0.97264(15)
O2 O -0.00971(16) 0.62371(18) 0.61564(13)
O3 O 0.14684(17) 0.51563(17) 0.62578(14)
O4 O -0.00291(16) 0.83898(17) 0.92595(14)
N2 N 0.45149(19) 0.6440(2) 0.89641(17)
H1 H 0.4645 0.5761 0.9032
C1 C 0.0995(2) 0.8609(2) 0.91521(17)
C2 C 0.2780(2) 0.7551(2) 0.90208(18)
H2 H 0.3199 0.7927 0.9541
C3 C 0.5475(2) 0.7108(2) 0.92272(18)
C4 C 0.1589(2) 0.7780(2) 0.86681(19)
C5 C 0.0916(2) 0.5908(2) 0.65509(18)
C6 C 0.3340(2) 0.6758(2) 0.85951(18)
C7 C 0.0965(2) 0.7231(2) 0.78863(18)
H3 H 0.0166 0.7374 0.7661
C8 C 0.2719(2) 0.6217(2) 0.78057(18)
H4 H 0.3094 0.5687 0.7521
C9 C 0.1537(2) 0.6461(2) 0.74355(18)
C10 C 0.7554(2) 0.7310(2) 0.98188(19)
H5 H 0.8281 0.6989 1.0059
C11 C 0.5425(2) 0.8228(2) 0.9132(2)
H6 H 0.4708 0.8569 0.8901
C12 C 0.6449(2) 0.8820(2) 0.93850(19)
H7 H 0.6398 0.9563 0.9315
C13 C 0.6577(2) 0.6654(2) 0.95785(19)
H8 H 0.6655 0.5913 0.9651
Cu1A Cu -0.09378(3) 0.56422(3) 0.49300(2)
Cu1B Cu -0.09378(3) 0.93578(3) 0.99300(2)
Cu1B_2 Cu 0.90622(3) 0.93578(3) 0.99300(2)
Cu1C Cu 0.09378(3) 0.43578(3) 0.50700(2)
N1B N 0.24857(18) 1.16146(18) 1.02736(15)
O2A O 0.00971(16) 1.12371(18) 0.88436(13)
O3C O 0.14684(17) 0.98437(17) 1.12578(14)
O4B O 0.00291(16) 1.16102(17) 1.07405(14)
loop_
_geom_bond_atom_site_label_1
_geom_bond_atom_site_label_2
_geom_bond_site_symmetry_1
_geom_bond_site_symmetry_2
Cu1 O1 1_555 1_555
O1 C1 1_555 1_555
N1 C10 1_555 1_555
O2 C5 1_555 1_555
O3 C5 1_555 1_555
O4 C1 1_555 1_555
N2 H1 1_555 1_555
C1 C4 1_555 1_555
C2 H2 1_555 1_555
C3 N2 1_555 1_555
C4 C2 1_555 1_555
C5 C9 1_555 1_555
C6 N2 1_555 1_555
C7 C4 1_555 1_555
H3 C7 1_555 1_555
C8 C6 1_555 1_555
H4 C8 1_555 1_555
C9 C7 1_555 1_555
C10 H5 1_555 1_555
C11 C3 1_555 1_555
H6 C11 1_555 1_555
C12 N1 1_555 1_555
H7 C12 1_555 1_555
C13 C3 1_555 1_555
H8 C13 1_555 1_555
Cu1A O2 1_555 1_555
Cu1B Cu1 1_555 1_555
Cu1B_2 N1 1_555 1_555
Cu1C O3 1_555 1_555
N1B Cu1 1_555 1_555
O2A Cu1 1_555 1_555
O3C Cu1 1_555 1_555
O4B Cu1 1_555 1_555
O4 Cu1B 1_555 1_555
C2 C6 1_555 1_555
C8 C9 1_555 1_555
C10 C13 1_555 1_555
C11 C12 1_555 1_555
Cu1A Cu1C 1_555 1_555

#END
