
#######################################################################
#
#                 Cambridge Crystallographic Data Centre
#                                CCDC 
#
#######################################################################
#
# If this CIF has been generated from an entry in the Cambridge 
# Structural Database, then it will include bibliographic, chemical, 
# crystal, experimental, refinement or atomic coordinate data resulting 
# from the CCDC's data processing and validation procedures.
#
#######################################################################

data_HOYRAQ
_symmetry_cell_setting           monoclinic
_symmetry_space_group_name_H-M   'P 21/n'
_symmetry_Int_Tables_number      14
_space_group_name_Hall           '-P 2yn'
loop_
_symmetry_equiv_pos_site_id
_symmetry_equiv_pos_as_xyz
1 x,y,z
2 1/2-x,1/2+y,1/2-z
3 -x,-y,-z
4 1/2+x,1/2-y,1/2+z
_cell_length_a                   12.5990(7)
_cell_length_b                   11.8519(7)
_cell_length_c                   14.5940(8)
_cell_angle_alpha                90
_cell_angle_beta                 115.371(2)
_cell_angle_gamma                90
_cell_volume                     1969.03
loop_
_atom_site_label
_atom_site_type_symbol
_atom_site_fract_x
_atom_site_fract_y
_atom_site_fract_z
Cu1 Cu 0.54705(4) 0.07056(4) -0.04209(4)
O1 O 0.9827(3) 0.4520(2) -0.3561(2)
O2 O 1.3094(2) 0.0111(2) -0.0443(2)
O3 O 1.0677(3) 0.3344(2) -0.4262(2)
O4 O 1.3869(2) 0.1302(2) -0.1184(2)
C1 C 1.3032(3) 0.0911(3) -0.1033(3)
C2 C 1.1847(3) 0.1435(3) -0.1580(3)
C3 C 1.1634(3) 0.2242(3) -0.2338(3)
H1 H 1.2218 0.2426 -0.2542
C4 C 1.0556(3) 0.2760(3) -0.2780(3)
C5 C 1.0334(3) 0.3609(3) -0.3602(3)
C6 C 0.9664(3) 0.2486(4) -0.2499(3)
H2 H 0.8946 0.2858 -0.2794
C7 C 0.9850(3) 0.1654(4) -0.1775(3)
C8 C 1.0950(3) 0.1142(3) -0.1313(3)
H3 H 1.1085 0.0596 -0.0818
N1 N 0.8956(3) 0.1239(3) -0.1529(3)
H4 H 0.8932 0.0520 -0.1464
C9 C 0.8118(3) 0.1854(4) -0.1380(3)
C10 C 0.8035(4) 0.3018(4) -0.1362(3)
H5 H 0.8570 0.3450 -0.1493
N2 N 0.7221(3) 0.3546(3) -0.1163(3)
C11 C 0.6466(4) 0.2904(3) -0.0993(3)
H6 H 0.5886 0.3269 -0.0871
N3 N 0.6463(3) 0.1768(3) -0.0982(2)
C12 C 0.7291(3) 0.1257(3) -0.1169(3)
H7 H 0.7321 0.0473 -0.1158
Cu1_2 Cu 1.54705(4) 0.07056(4) -0.04209(4)
Cu1A Cu 0.95295(4) 0.57056(4) -0.45791(4)
Cu1B Cu 0.45295(4) -0.07056(4) 0.04209(4)
Cu1B_2 Cu 1.45295(4) -0.07056(4) 0.04209(4)
Cu1C Cu 1.04705(4) 0.42944(4) -0.54209(4)
O1A O 0.5173(3) -0.0480(2) -0.1439(2)
O2B O 0.6906(2) -0.0111(2) 0.0443(2)
O3C O 0.5677(3) 0.1656(2) 0.0738(2)
O4_2 O 0.3869(2) 0.1302(2) -0.1184(2)
loop_
_geom_bond_atom_site_label_1
_geom_bond_atom_site_label_2
_geom_bond_site_symmetry_1
_geom_bond_site_symmetry_2
Cu1 N3 1_555 1_555
O1 C5 1_555 1_555
O2 C1 1_555 1_555
O3 C5 1_555 1_555
O4 C1 1_555 1_555
C1 C2 1_555 1_555
C2 C3 1_555 1_555
C3 H1 1_555 1_555
C4 C3 1_555 1_555
C5 C4 1_555 1_555
C6 C4 1_555 1_555
H2 C6 1_555 1_555
C7 C6 1_555 1_555
C8 C2 1_555 1_555
H3 C8 1_555 1_555
N1 C7 1_555 1_555
H4 N1 1_555 1_555
C9 N1 1_555 1_555
C10 C9 1_555 1_555
H5 C10 1_555 1_555
N2 C10 1_555 1_555
C11 N2 1_555 1_555
H6 C11 1_555 1_555
N3 C11 1_555 1_555
C12 C9 1_555 1_555
H7 C12 1_555 1_555
Cu1_2 O4 1_555 1_555
Cu1A O1 1_555 1_555
Cu1B Cu1 1_555 1_555
Cu1B_2 O2 1_555 1_555
Cu1C O3 1_555 1_555
O1A Cu1 1_555 1_555
O2B Cu1 1_555 1_555
O3C Cu1 1_555 1_555
O4_2 Cu1 1_555 1_555
C7 C8 1_555 1_555
N3 C12 1_555 1_555
Cu1_2 Cu1B_2 1_555 1_555
Cu1A Cu1C 1_555 1_555

#END
