
#######################################################################
#
#                 Cambridge Crystallographic Data Centre
#                                CCDC 
#
#######################################################################
#
# If this CIF has been generated from an entry in the Cambridge 
# Structural Database, then it will include bibliographic, chemical, 
# crystal, experimental, refinement or atomic coordinate data resulting 
# from the CCDC's data processing and validation procedures.
#
#######################################################################

data_HOZDIL
_symmetry_cell_setting           monoclinic
_symmetry_space_group_name_H-M   'C 2/m'
_symmetry_Int_Tables_number      12
_space_group_name_Hall           '-C 2y'
loop_
_symmetry_equiv_pos_site_id
_symmetry_equiv_pos_as_xyz
1 x,y,z
2 -x,y,-z
3 1/2+x,1/2+y,z
4 1/2-x,1/2+y,-z
5 -x,-y,-z
6 x,-y,z
7 1/2-x,1/2-y,-z
8 1/2+x,1/2-y,z
_cell_length_a                   38.1861(11)
_cell_length_b                   5.00418(10)
_cell_length_c                   8.3810(2)
_cell_angle_alpha                90
_cell_angle_beta                 102.535(3)
_cell_angle_gamma                90
_cell_volume                     1563.35
loop_
_atom_site_label
_atom_site_type_symbol
_atom_site_fract_x
_atom_site_fract_y
_atom_site_fract_z
Al1 Al 0.10799(19) 0.000 -0.1542(9)
P1 P 0.34711(9) 0.000 0.2878(6)
O1 O 0.36584(10) 0.000 0.4637(6)
O2 O 0.15639(10) 0.000 0.0457(8)
O3 O 0.35778(10) -0.2490(5) 0.2045(6)
O4 O 0.16559(10) 0.2462(5) 0.3136(8)
P2 P 0.17615(9) 0.000 0.2313(7)
Al2 Al 0.36248(11) 0.000 0.6453(6)
P3 P 0.41614(7) 0.000 0.9581(7)
O5 O 0.39864(9) 0.000 0.7778(8)
O6 O 0.40497(8) -0.2366(17) 1.0463(13)
O7 O 0.0707(3) 0.000 -0.3600(13)
C1 C 0.29855(9) 0.000 0.2717(5)
C2 C 0.27548(10) 0.000 0.1196(5)
C3 C 0.23843(10) 0.000 0.1073(5)
C4 C 0.22477(9) 0.000 0.2474(5)
C5 C 0.24784(10) 0.000 0.3996(5)
C6 C 0.28489(10) 0.000 0.4118(5)
C7 C 0.463141(15) 0.000 0.9824(3)
C8 C 0.47829(6) 0.000 0.84569(14)
C9 C 0.48465(7) 0.000 1.1351(2)
H1 H 0.284955 0.000 0.022424
H2 H 0.222423 0.000 0.001747
H3 H 0.23837 0.000 0.496706
H4 H 0.300895 0.000 0.517373
H5 H 0.463132 0.000 0.738097
H6 H 0.474199 0.000 1.229494
O3E O 0.35778(10) 0.2490(5) 0.2045(6)
O4E O 0.16559(10) -0.2462(5) 0.3136(8)
P3A P 0.58386(7) 0.000 1.0419(7)
O5A O 0.60136(9) 0.000 1.2222(8)
O6A O 0.59503(8) -0.2366(17) 0.9537(13)
C7A C 0.536859(15) 0.000 1.0176(3)
C8A C 0.52171(6) 0.000 1.15431(14)
C9A C 0.51535(7) 0.000 0.8649(2)
H5A H 0.536868 0.000 1.261903
H6A H 0.525801 0.000 0.770506
O6D O 0.59503(8) 0.2366(17) 0.9537(13)
O6E O 0.40497(8) 0.2366(17) 1.0463(13)
Al1A Al 0.89201(19) 0.000 2.1542(9)
P1A P 0.65289(9) 0.000 1.7122(6)
O1A O 0.63416(10) 0.000 1.5363(6)
O2A O 0.84361(10) 0.000 1.9543(8)
O3A O 0.64222(10) -0.2490(5) 1.7955(6)
O4A O 0.83441(10) 0.2462(5) 1.6864(8)
P2A P 0.82385(9) 0.000 1.7687(7)
Al2A Al 0.63752(11) 0.000 1.3547(6)
O7A O 0.9293(3) 0.000 2.3600(13)
C1A C 0.70145(9) 0.000 1.7283(5)
C2A C 0.72452(10) 0.000 1.8804(5)
C3A C 0.76157(10) 0.000 1.8927(5)
C4A C 0.77523(9) 0.000 1.7526(5)
C5A C 0.75216(10) 0.000 1.6004(5)
C6A C 0.71511(10) 0.000 1.5882(5)
H1A H 0.715045 0.000 1.977576
H2A H 0.777577 0.000 1.998253
H3A H 0.76163 0.000 1.503294
H4A H 0.699105 0.000 1.482627
O3D O 0.64222(10) 0.2490(5) 1.7955(6)
O4D O 0.83441(10) -0.2462(5) 1.6864(8)
Al1B Al 0.60799(19) -0.500 0.8458(9)
Al1B_2 Al 0.60799(19) -0.500 1.8458(9)
Al1B_3 Al 0.60799(19) 0.500 0.8458(9)
Al1B_4 Al 0.60799(19) 0.500 1.8458(9)
Al1C Al 0.39201(19) -0.500 0.1542(9)
Al1C_2 Al 0.39201(19) -0.500 1.1542(9)
Al1C_3 Al 0.39201(19) 0.500 0.1542(9)
Al1C_4 Al 0.39201(19) 0.500 1.1542(9)
O3B O 0.85778(10) 0.2510(5) 2.2045(6)
O3C O 0.14222(10) 0.2510(5) -0.2045(6)
O3F O 0.14222(10) -0.2510(5) -0.2045(6)
O3G O 0.85778(10) -0.2510(5) 2.2045(6)
O4B O 0.66559(10) -0.2538(5) 1.3136(8)
O4C O 0.33441(10) -0.2538(5) 0.6864(8)
O4F O 0.33441(10) 0.2538(5) 0.6864(8)
O4G O 0.66559(10) 0.2538(5) 1.3136(8)
Al2B Al 0.86248(11) -0.500 1.6453(6)
Al2B_2 Al 0.86248(11) 0.500 1.6453(6)
Al2C Al 0.13752(11) -0.500 0.3547(6)
Al2C_2 Al 0.13752(11) 0.500 0.3547(6)
O6B O 0.90497(8) 0.2634(17) 2.0463(13)
O6C O 0.09503(8) 0.2634(17) -0.0463(13)
O6F O 0.09503(8) -0.2634(17) -0.0463(13)
O6G O 0.90497(8) -0.2634(17) 2.0463(13)
loop_
_geom_bond_atom_site_label_1
_geom_bond_atom_site_label_2
_geom_bond_site_symmetry_1
_geom_bond_site_symmetry_2
Al1 O2 1_555 1_555
P1 O1 1_555 1_555
O1 Al2 1_555 1_555
O2 P2 1_555 1_555
O3 P1 1_555 1_555
O4 P2 1_555 1_555
P2 C4 1_555 1_555
Al2 O5 1_555 1_555
P3 O5 1_555 1_555
O6 P3 1_555 1_555
O7 Al1 1_555 1_555
C1 P1 1_555 1_555
C2 C1 1_555 1_555
C3 C2 1_555 1_555
C4 C3 1_555 1_555
C5 C4 1_555 1_555
C6 C1 1_555 1_555
C7 P3 1_555 1_555
C8 C7 1_555 1_555
C9 C7 1_555 1_555
H1 C2 1_555 1_555
H2 C3 1_555 1_555
H3 C5 1_555 1_555
H4 C6 1_555 1_555
H5 C8 1_555 1_555
H6 C9 1_555 1_555
O3E P1 1_555 1_555
O4E P2 1_555 1_555
P3A O5A 1_555 1_555
O5A Al2A 1_555 1_555
O6A P3A 1_555 1_555
C7A P3A 1_555 1_555
C8A C9 1_555 1_555
C9A C8 1_555 1_555
H5A C8A 1_555 1_555
H6A C9A 1_555 1_555
O6D P3A 1_555 1_555
O6E P3 1_555 1_555
Al1A O2A 1_555 1_555
P1A O1A 1_555 1_555
O1A Al2A 1_555 1_555
O2A P2A 1_555 1_555
O3A P1A 1_555 1_555
O4A P2A 1_555 1_555
P2A C4A 1_555 1_555
Al2A O4B 1_555 1_555
O7A Al1A 1_555 1_555
C1A P1A 1_555 1_555
C2A C1A 1_555 1_555
C3A C2A 1_555 1_555
C4A C3A 1_555 1_555
C5A C4A 1_555 1_555
C6A C1A 1_555 1_555
H1A C2A 1_555 1_555
H2A C3A 1_555 1_555
H3A C5A 1_555 1_555
H4A C6A 1_555 1_555
O3D P1A 1_555 1_555
O4D P2A 1_555 1_555
Al1B O6A 1_555 1_555
Al1B_2 O3A 1_555 1_555
Al1B_3 O6D 1_555 1_555
Al1B_4 O3D 1_555 1_555
Al1C O3 1_555 1_555
Al1C_2 O6 1_555 1_555
Al1C_3 O3E 1_555 1_555
Al1C_4 O6E 1_555 1_555
O3B Al1A 1_555 1_555
O3C Al1 1_555 1_555
O3F Al1 1_555 1_555
O3G Al1A 1_555 1_555
O4C Al2 1_555 1_555
O4F Al2 1_555 1_555
O4G Al2A 1_555 1_555
Al2B O4D 1_555 1_555
Al2B_2 O4A 1_555 1_555
Al2C O4E 1_555 1_555
Al2C_2 O4 1_555 1_555
O6B Al1A 1_555 1_555
O6C Al1 1_555 1_555
O6F Al1 1_555 1_555
O6G Al1A 1_555 1_555
C5 C6 1_555 1_555
C7A C8A 1_555 1_555
C7A C9A 1_555 1_555
C5A C6A 1_555 1_555

#END
