
#######################################################################
#
#                 Cambridge Crystallographic Data Centre
#                                CCDC 
#
#######################################################################
#
# If this CIF has been generated from an entry in the Cambridge 
# Structural Database, then it will include bibliographic, chemical, 
# crystal, experimental, refinement or atomic coordinate data resulting 
# from the CCDC's data processing and validation procedures.
#
#######################################################################

data_HUFJAV
_symmetry_cell_setting           rhombohedral
_symmetry_space_group_name_H-M   'R -3'
_symmetry_Int_Tables_number      148
_space_group_name_Hall           '-R 3'
loop_
_symmetry_equiv_pos_site_id
_symmetry_equiv_pos_as_xyz
1 x,y,z
2 -y,x-y,z
3 -x+y,-x,z
4 2/3+x,1/3+y,1/3+z
5 2/3-y,1/3+x-y,1/3+z
6 2/3-x+y,1/3-x,1/3+z
7 1/3+x,2/3+y,2/3+z
8 1/3-y,2/3+x-y,2/3+z
9 1/3-x+y,2/3-x,2/3+z
10 -x,-y,-z
11 y,-x+y,-z
12 x-y,x,-z
13 1/3-x,2/3-y,2/3-z
14 1/3+y,2/3-x+y,2/3-z
15 1/3+x-y,2/3+x,2/3-z
16 2/3-x,1/3-y,1/3-z
17 2/3+y,1/3-x+y,1/3-z
18 2/3+x-y,1/3+x,1/3-z
_cell_length_a                   28.123(5)
_cell_length_b                   28.123(5)
_cell_length_c                   14.436(3)
_cell_angle_alpha                90
_cell_angle_beta                 90
_cell_angle_gamma                120
_cell_volume                     9887.83
loop_
_atom_site_label
_atom_site_type_symbol
_atom_site_fract_x
_atom_site_fract_y
_atom_site_fract_z
Ag1 Ag 0.79960(4) 0.07384(4) 0.39670(7)
N1 N 0.7432(4) -0.1192(3) 0.5484(6)
C1 C 0.7579(5) -0.1084(5) 0.4586(8)
H1 H 0.7570 -0.1363 0.4202
N2 N 0.7512(4) 0.0140(3) 0.2808(6)
C2 C 0.7451(5) -0.0800(6) 0.5962(7)
H2 H 0.7366 -0.0865 0.6603
N3 N 0.6769(5) -0.0651(4) 0.1579(7)
N4 N 0.7757(5) -0.0160(4) 0.4724(7)
C3 C 0.6772(7) -0.0179(6) 0.1683(12)
H3 H 0.6522 -0.0115 0.1338
C4 C 0.7490(4) -0.0337(4) 0.2653(6)
C5 C 0.7148(4) -0.0730(4) 0.2052(7)
H4 H 0.7169 -0.1053 0.1960
C6 C 0.7752(5) -0.0539(4) 0.4199(7)
C7 C 0.7924(5) -0.0421(5) 0.3241(7)
H5 H 0.7956 -0.0729 0.2977
H6 H 0.8289 -0.0085 0.3206
C8 C 0.7586(8) -0.0290(6) 0.5617(11)
H7 H 0.7559 -0.0030 0.6002
C9 C 0.7124(7) 0.0208(6) 0.2268(9)
H8 H 0.7115 0.0540 0.2325
S1 S 0.7926(6) 0.1944(5) 0.2806(10)
O1 O 0.8012(9) 0.1486(6) 0.2793(17)
C10 C 0.836(3) 0.2474(16) 0.333(3)
H9 H 0.8421 0.2373 0.3954
H10 H 0.8223 0.2732 0.3385
H11 H 0.8707 0.2647 0.2989
C11 C 0.7844(13) 0.2134(13) 0.1794(15)
H12 H 0.7572 0.1813 0.1447
H13 H 0.8194 0.2306 0.1461
H14 H 0.7715 0.2398 0.1859
Ag1H Ag 0.60757(6) -0.13293(4) 0.06337(7)
Ag1K Ag 0.72576(6) -0.20040(4) 0.60330(7)
N1J N 0.8808(3) 0.1376(5) 0.4516(6)
N3D N 0.7318(4) 0.0753(6) 0.4912(7)
F1 F 0.6023(6) 0.0285(5) 0.0434(9)
F2 F 0.6057(5) 0.1072(5) 0.0718(9)
F3 F 0.6617(4) 0.0896(5) 0.1343(10)
B1 B 0.6086(11) 0.0681(10) 0.1083(13)
F4 F 0.5749(6) 0.0383(9) 0.1765(10)
loop_
_geom_bond_atom_site_label_1
_geom_bond_atom_site_label_2
_geom_bond_site_symmetry_1
_geom_bond_site_symmetry_2
Ag1 N2 1_555 1_555
N1 C1 1_555 1_555
C1 H1 1_555 1_555
N2 C4 1_555 1_555
C2 N1 1_555 1_555
H2 C2 1_555 1_555
N3 C3 1_555 1_555
N4 Ag1 1_555 1_555
C3 H3 1_555 1_555
C4 C5 1_555 1_555
C5 N3 1_555 1_555
H4 C5 1_555 1_555
C6 C1 1_555 1_555
C7 C4 1_555 1_555
H5 C7 1_555 1_555
H6 C7 1_555 1_555
C8 C2 1_555 1_555
H7 C8 1_555 1_555
C9 N2 1_555 1_555
H8 C9 1_555 1_555
S1 O1 1_555 1_555
O1 Ag1 1_555 1_555
C10 S1 1_555 1_555
H9 C10 1_555 1_555
H10 C10 1_555 1_555
H11 C10 1_555 1_555
C11 S1 1_555 1_555
H12 C11 1_555 1_555
H13 C11 1_555 1_555
H14 C11 1_555 1_555
F1 B1 1_555 1_555
F2 B1 1_555 1_555
F3 B1 1_555 1_555
B1 F4 1_555 1_555
Ag1H N3 1_555 1_555
Ag1K N1 1_555 1_555
N1J Ag1 1_555 1_555
N3D Ag1 1_555 1_555
N4 C6 1_555 1_555
N4 C8 1_555 1_555
C3 C9 1_555 1_555
C6 C7 1_555 1_555

#END
