
#######################################################################
#
#                 Cambridge Crystallographic Data Centre
#                                CCDC 
#
#######################################################################
#
# If this CIF has been generated from an entry in the Cambridge 
# Structural Database, then it will include bibliographic, chemical, 
# crystal, experimental, refinement or atomic coordinate data resulting 
# from the CCDC's data processing and validation procedures.
#
#######################################################################

data_HUFLUR
_symmetry_cell_setting           orthorhombic
_symmetry_space_group_name_H-M   'P n a 21'
_symmetry_Int_Tables_number      33
_space_group_name_Hall           'P 2c -2n'
loop_
_symmetry_equiv_pos_site_id
_symmetry_equiv_pos_as_xyz
1 x,y,z
2 -x,-y,1/2+z
3 1/2-x,1/2+y,1/2+z
4 1/2+x,1/2-y,z
_cell_length_a                   14.2384(10)
_cell_length_b                   16.3862(11)
_cell_length_c                   6.8450(5)
_cell_angle_alpha                90
_cell_angle_beta                 90
_cell_angle_gamma                90
_cell_volume                     1597.03
loop_
_atom_site_label
_atom_site_type_symbol
_atom_site_fract_x
_atom_site_fract_y
_atom_site_fract_z
C1 C 0.42089(15) 0.90723(15) 0.1104(5)
C2 C 0.35909(17) 0.83114(15) 0.1058(5)
C3 C 0.2677(2) 0.83188(18) 0.1771(4)
C4 C 0.2122(2) 0.76207(18) 0.1746(4)
C5 C 0.24531(17) 0.68841(16) 0.1020(5)
C6 C 0.18469(17) 0.61164(15) 0.1015(5)
C7 C 0.33733(19) 0.68761(16) 0.0330(4)
C8 C 0.39250(19) 0.75743(17) 0.0324(4)
Ca1 Ca 0.43129(3) 0.96948(3) 0.61280(9)
F1 F 0.23114(12) 0.90132(10) 0.2496(3)
F2 F 0.12394(12) 0.76737(11) 0.2443(3)
F3 F 0.37551(11) 0.61711(10) -0.0308(3)
F4 F 0.48097(11) 0.75264(10) -0.0374(3)
N1 N 0.27131(18) 0.84888(16) 0.6602(4)
O1 O 0.45002(14) 0.93487(13) -0.0494(3)
O2 O 0.56232(12) 0.87517(12) 0.6090(4)
H1 H 0.5960 0.8804 0.4977
H2 H 0.6015 0.8844 0.7105
O3 O 0.44135(14) 0.93656(14) 0.2726(3)
O4 O 0.15338(15) 0.58776(13) 0.2626(3)
O5 O 0.17047(16) 0.57706(14) -0.0585(3)
O6 O 0.25171(17) 0.92079(14) 0.7045(4)
O7 O 0.21513(16) 0.79210(15) 0.6679(4)
O8 O 0.35605(13) 0.83550(12) 0.6023(4)
Ca1_2 Ca 0.43129(3) 0.96948(3) -0.38720(9)
Ca1A Ca 0.56871(3) 1.03052(3) 0.11280(9)
Ca1B Ca 0.06871(3) 0.46948(3) 0.11280(9)
O1_2 O 0.45002(14) 0.93487(13) 0.9506(3)
O1A O 0.54998(14) 1.06513(13) 0.4506(3)
O3A O 0.55865(14) 1.06344(14) 0.7726(3)
O4B O 0.34662(15) 1.08776(13) 0.7626(3)
O5B O 0.32953(16) 1.07706(14) 0.4415(3)
C9 C 0.5005(2) 0.6569(2) 0.5613(5)
H3 H 0.5482 0.6964 0.5841
C10 C 0.5233(3) 0.5758(2) 0.5334(6)
H4 H 0.5871 0.5587 0.5374
C11 C 0.4521(3) 0.5195(2) 0.4993(6)
H5 H 0.4668 0.4636 0.4800
C12 C 0.3592(2) 0.5456(2) 0.4937(5)
H6 H 0.3099 0.5079 0.4686
C13 C 0.3396(2) 0.6266(2) 0.5249(5)
H7 H 0.2763 0.6451 0.5245
N2 N 0.4093(2) 0.67909(17) 0.5556(4)
H8 H 0.394(3) 0.734(3) 0.580(8)
loop_
_geom_bond_atom_site_label_1
_geom_bond_atom_site_label_2
_geom_bond_site_symmetry_1
_geom_bond_site_symmetry_2
C1 C2 1_555 1_555
C2 C3 1_555 1_555
C3 C4 1_555 1_555
C4 C5 1_555 1_555
C5 C6 1_555 1_555
C6 O4 1_555 1_555
C7 C5 1_555 1_555
C8 C2 1_555 1_555
Ca1 O2 1_555 1_555
F1 C3 1_555 1_555
F2 C4 1_555 1_555
F3 C7 1_555 1_555
F4 C8 1_555 1_555
N1 O6 1_555 1_555
O1 C1 1_555 1_555
O2 H1 1_555 1_555
H2 O2 1_555 1_555
O3 C1 1_555 1_555
O4 Ca1B 1_555 1_555
O5 C6 1_555 1_555
O6 Ca1 1_555 1_555
O7 N1 1_555 1_555
O8 Ca1 1_555 1_555
C9 H3 1_555 1_555
C10 C9 1_555 1_555
H4 C10 1_555 1_555
C11 C10 1_555 1_555
H5 C11 1_555 1_555
C12 C11 1_555 1_555
H6 C12 1_555 1_555
C13 C12 1_555 1_555
H7 C13 1_555 1_555
N2 C9 1_555 1_555
H8 N2 1_555 1_555
Ca1_2 O1 1_555 1_555
Ca1A O1 1_555 1_555
Ca1B O5 1_555 1_555
O1_2 Ca1 1_555 1_555
O1A Ca1 1_555 1_555
O3A Ca1 1_555 1_555
O4B Ca1 1_555 1_555
O5B Ca1 1_555 1_555
C7 C8 1_555 1_555
Ca1 O3 1_555 1_555
N1 O8 1_555 1_555
O3 Ca1A 1_555 1_555
C13 N2 1_555 1_555
Ca1A O1A 1_555 1_555

#END
