
#######################################################################
#
#                 Cambridge Crystallographic Data Centre
#                                CCDC 
#
#######################################################################
#
# If this CIF has been generated from an entry in the Cambridge 
# Structural Database, then it will include bibliographic, chemical, 
# crystal, experimental, refinement or atomic coordinate data resulting 
# from the CCDC's data processing and validation procedures.
#
#######################################################################

data_HUMWET
_symmetry_cell_setting           cubic
_symmetry_space_group_name_H-M   'P 4 3 2'
_symmetry_Int_Tables_number      207
_space_group_name_Hall           'P 4 2 3'
loop_
_symmetry_equiv_pos_site_id
_symmetry_equiv_pos_as_xyz
1 x,y,z
2 -x,-y,z
3 -x,y,-z
4 x,-y,-z
5 z,x,y
6 z,-x,-y
7 -z,-x,y
8 -z,x,-y
9 y,z,x
10 -y,z,-x
11 y,-z,-x
12 -y,-z,x
13 y,x,-z
14 -y,-x,-z
15 y,-x,z
16 -y,x,z
17 x,z,-y
18 -x,z,y
19 -x,-z,-y
20 x,-z,y
21 z,y,-x
22 z,-y,x
23 -z,y,x
24 -z,-y,-x
_cell_length_a                   23.461(11)
_cell_length_b                   23.461(11)
_cell_length_c                   23.461(11)
_cell_angle_alpha                90
_cell_angle_beta                 90
_cell_angle_gamma                90
_cell_volume                     12913.4
loop_
_atom_site_label
_atom_site_type_symbol
_atom_site_fract_x
_atom_site_fract_y
_atom_site_fract_z
Mn1 Mn -0.40075(6) -0.5000 0.0000
C1 C -0.3177(3) -0.3225(3) 0.2349(3)
C2 C -0.3625(3) -0.3792(3) 0.1359(3)
B1 B -0.2906(4) -0.2906(4) 0.2906(4)
C3 C -0.3853(4) -0.4123(4) 0.0825(3)
C4 C -0.3302(4) -0.3834(3) 0.2368(3)
C5 C -0.3503(3) -0.3204(3) 0.1326(3)
C6 C -0.3276(4) -0.2907(3) 0.1820(3)
O1 O -0.4390(3) -0.4085(3) 0.0707(2)
C7 C -0.3536(4) -0.4123(3) 0.1867(3)
C8 C -0.3249(5) -0.4201(3) 0.2931(3)
H1 H -0.2859 -0.4312 0.2985
H2 H -0.3484 -0.4534 0.2899
H3 H -0.3372 -0.3977 0.3251
C9 C -0.3129(5) -0.2269(4) 0.1773(4)
H4 H -0.3466 -0.2058 0.1676
H5 H -0.2846 -0.2216 0.1482
H6 H -0.2983 -0.2136 0.2131
C10 C -0.3618(5) -0.2870(4) 0.0753(4)
H7 H -0.3268 -0.2831 0.0545
H8 H -0.3767 -0.2499 0.0838
H9 H -0.3889 -0.3077 0.0526
C11 C -0.3699(5) -0.4760(4) 0.1895(4)
H10 H -0.3876 -0.4871 0.1543
H11 H -0.3960 -0.4821 0.2204
H12 H -0.3362 -0.4985 0.1955
O2 O -0.3510(3) -0.4424(3) 0.0531(2)
Cl1 Cl -0.5000 -0.5000 0.0000
C1G C -0.2349(3) -0.3177(3) 0.3225(3)
C2G C -0.1359(3) -0.3625(3) 0.3792(3)
C3G C -0.0825(3) -0.3853(4) 0.4123(4)
C4G C -0.2368(3) -0.3302(4) 0.3834(3)
C5G C -0.1326(3) -0.3503(3) 0.3204(3)
C6G C -0.1820(3) -0.3276(4) 0.2907(3)
O1G O -0.0707(2) -0.4390(3) 0.4085(3)
C7G C -0.1867(3) -0.3536(4) 0.4123(3)
C8G C -0.2931(3) -0.3249(5) 0.4201(3)
H1G H -0.2985 -0.2859 0.4312
H2G H -0.2899 -0.3484 0.4534
H3G H -0.3251 -0.3372 0.3977
C9G C -0.1773(4) -0.3129(5) 0.2269(4)
H4G H -0.1676 -0.3466 0.2058
H5G H -0.1482 -0.2846 0.2216
H6G H -0.2131 -0.2983 0.2136
C10G C -0.0753(4) -0.3618(5) 0.2870(4)
H7G H -0.0545 -0.3268 0.2831
H8G H -0.0838 -0.3767 0.2499
H9G H -0.0526 -0.3889 0.3077
C11G C -0.1895(4) -0.3699(5) 0.4760(4)
H10G H -0.1543 -0.3876 0.4871
H11G H -0.2204 -0.3960 0.4821
H12G H -0.1955 -0.3362 0.4985
O2G O -0.0531(2) -0.3510(3) 0.4424(3)
C1J C -0.3225(3) -0.2349(3) 0.3177(3)
C2J C -0.3792(3) -0.1359(3) 0.3625(3)
C3J C -0.4123(4) -0.0825(3) 0.3853(4)
C4J C -0.3834(3) -0.2368(3) 0.3302(4)
C5J C -0.3204(3) -0.1326(3) 0.3503(3)
C6J C -0.2907(3) -0.1820(3) 0.3276(4)
O1J O -0.4085(3) -0.0707(2) 0.4390(3)
C7J C -0.4123(3) -0.1867(3) 0.3536(4)
C8J C -0.4201(3) -0.2931(3) 0.3249(5)
H1J H -0.4312 -0.2985 0.2859
H2J H -0.4534 -0.2899 0.3484
H3J H -0.3977 -0.3251 0.3372
C9J C -0.2269(4) -0.1773(4) 0.3129(5)
H4J H -0.2058 -0.1676 0.3466
H5J H -0.2216 -0.1482 0.2846
H6J H -0.2136 -0.2131 0.2983
C10J C -0.2870(4) -0.0753(4) 0.3618(5)
H7J H -0.2831 -0.0545 0.3268
H8J H -0.2499 -0.0838 0.3767
H9J H -0.3077 -0.0526 0.3889
C11J C -0.4760(4) -0.1895(4) 0.3699(5)
H10J H -0.4871 -0.1543 0.3876
H11J H -0.4821 -0.2204 0.3960
H12J H -0.4985 -0.1955 0.3362
O2J O -0.4424(3) -0.0531(2) 0.3510(3)
Mn1A Mn -0.59925(6) -0.5000 0.0000
C1A C -0.6823(3) -0.6775(3) 0.2349(3)
C2A C -0.6375(3) -0.6208(3) 0.1359(3)
B1A B -0.7094(4) -0.7094(4) 0.2906(4)
C3A C -0.6147(4) -0.5877(4) 0.0825(3)
C4A C -0.6698(4) -0.6166(3) 0.2368(3)
C5A C -0.6497(3) -0.6796(3) 0.1326(3)
C6A C -0.6724(4) -0.7093(3) 0.1820(3)
O1A O -0.5610(3) -0.5915(3) 0.0707(2)
C7A C -0.6464(4) -0.5877(3) 0.1867(3)
C8A C -0.6751(5) -0.5799(3) 0.2931(3)
H1A H -0.7141 -0.5688 0.2985
H2A H -0.6516 -0.5466 0.2899
H3A H -0.6628 -0.6023 0.3251
C9A C -0.6871(5) -0.7731(4) 0.1773(4)
H4A H -0.6534 -0.7942 0.1676
H5A H -0.7154 -0.7784 0.1482
H6A H -0.7017 -0.7864 0.2131
C10A C -0.6382(5) -0.7130(4) 0.0753(4)
H7A H -0.6732 -0.7169 0.0545
H8A H -0.6233 -0.7501 0.0838
H9A H -0.6111 -0.6923 0.0526
C11A C -0.6301(5) -0.5240(4) 0.1895(4)
H10A H -0.6124 -0.5129 0.1543
H11A H -0.6040 -0.5179 0.2204
H12A H -0.6638 -0.5015 0.1955
O2A O -0.6490(3) -0.5576(3) 0.0531(2)
C1E C -0.7651(3) -0.6823(3) 0.3225(3)
C2E C -0.8641(3) -0.6375(3) 0.3792(3)
C3E C -0.9175(3) -0.6147(4) 0.4123(4)
C4E C -0.7632(3) -0.6698(4) 0.3834(3)
C5E C -0.8674(3) -0.6497(3) 0.3204(3)
C6E C -0.8180(3) -0.6724(4) 0.2907(3)
O1E O -0.9293(2) -0.5610(3) 0.4085(3)
C7E C -0.8133(3) -0.6464(4) 0.4123(3)
C8E C -0.7069(3) -0.6751(5) 0.4201(3)
H1E H -0.7015 -0.7141 0.4312
H2E H -0.7101 -0.6516 0.4534
H3E H -0.6749 -0.6628 0.3977
C9E C -0.8227(4) -0.6871(5) 0.2269(4)
H4E H -0.8324 -0.6534 0.2058
H5E H -0.8518 -0.7154 0.2216
H6E H -0.7869 -0.7017 0.2136
C10E C -0.9247(4) -0.6382(5) 0.2870(4)
H7E H -0.9455 -0.6732 0.2831
H8E H -0.9162 -0.6233 0.2499
H9E H -0.9474 -0.6111 0.3077
C11E C -0.8105(4) -0.6301(5) 0.4760(4)
H10E H -0.8457 -0.6124 0.4871
H11E H -0.7796 -0.6040 0.4821
H12E H -0.8045 -0.6638 0.4985
O2E O -0.9469(2) -0.6490(3) 0.4424(3)
C1I C -0.6775(3) -0.7651(3) 0.3177(3)
C2I C -0.6208(3) -0.8641(3) 0.3625(3)
C3I C -0.5877(4) -0.9175(3) 0.3853(4)
C4I C -0.6166(3) -0.7632(3) 0.3302(4)
C5I C -0.6796(3) -0.8674(3) 0.3503(3)
C6I C -0.7093(3) -0.8180(3) 0.3276(4)
O1I O -0.5915(3) -0.9293(2) 0.4390(3)
C7I C -0.5877(3) -0.8133(3) 0.3536(4)
C8I C -0.5799(3) -0.7069(3) 0.3249(5)
H1I H -0.5688 -0.7015 0.2859
H2I H -0.5466 -0.7101 0.3484
H3I H -0.6023 -0.6749 0.3372
C9I C -0.7731(4) -0.8227(4) 0.3129(5)
H4I H -0.7942 -0.8324 0.3466
H5I H -0.7784 -0.8518 0.2846
H6I H -0.7864 -0.7869 0.2983
C10I C -0.7130(4) -0.9247(4) 0.3618(5)
H7I H -0.7169 -0.9455 0.3268
H8I H -0.7501 -0.9162 0.3767
H9I H -0.6923 -0.9474 0.3889
C11I C -0.5240(4) -0.8105(4) 0.3699(5)
H10I H -0.5129 -0.8457 0.3876
H11I H -0.5179 -0.7796 0.3960
H12I H -0.5015 -0.8045 0.3362
O2I O -0.5576(3) -0.9469(2) 0.3510(3)
Mn1E Mn -1.0000 -0.59925(6) 0.5000
Cl1D Cl -1.0000 -0.5000 0.5000
Mn1D Mn 0.0000 -0.40075(6) 0.5000
Cl1D_2 Cl 0.0000 -0.5000 0.5000
Mn1I Mn -0.5000 -1.0000 0.40075(6)
Mn1I_2 Mn -0.5000 0.0000 0.40075(6)
Mn1H Mn -0.5000 0.0000 0.59925(6)
C1K C -0.6775(3) -0.2349(3) 0.6823(3)
C2K C -0.6208(3) -0.1359(3) 0.6375(3)
B1B B -0.7094(4) -0.2906(4) 0.7094(4)
C3K C -0.5877(4) -0.0825(3) 0.6147(4)
C4K C -0.6166(3) -0.2368(3) 0.6698(4)
C5K C -0.6796(3) -0.1326(3) 0.6497(3)
C6K C -0.7093(3) -0.1820(3) 0.6724(4)
O1K O -0.5915(3) -0.0707(2) 0.5610(3)
C7K C -0.5877(3) -0.1867(3) 0.6464(4)
C8K C -0.5799(3) -0.2931(3) 0.6751(5)
H1K H -0.5688 -0.2985 0.7141
H2K H -0.5466 -0.2899 0.6516
H3K H -0.6023 -0.3251 0.6628
C9K C -0.7731(4) -0.1773(4) 0.6871(5)
H4K H -0.7942 -0.1676 0.6534
H5K H -0.7784 -0.1482 0.7154
H6K H -0.7864 -0.2131 0.7017
C10K C -0.7130(4) -0.0753(4) 0.6382(5)
H7K H -0.7169 -0.0545 0.6732
H8K H -0.7501 -0.0838 0.6233
H9K H -0.6923 -0.0526 0.6111
C11K C -0.5240(4) -0.1895(4) 0.6301(5)
H10K H -0.5129 -0.1543 0.6124
H11K H -0.5179 -0.2204 0.6040
H12K H -0.5015 -0.1955 0.6638
O2K O -0.5576(3) -0.0531(2) 0.6490(3)
C1B C -0.6823(3) -0.3225(3) 0.7651(3)
C2B C -0.6375(3) -0.3792(3) 0.8641(3)
C3B C -0.6147(4) -0.4123(4) 0.9175(3)
C4B C -0.6698(4) -0.3834(3) 0.7632(3)
C5B C -0.6497(3) -0.3204(3) 0.8674(3)
C6B C -0.6724(4) -0.2907(3) 0.8180(3)
O1B O -0.5610(3) -0.4085(3) 0.9293(2)
C7B C -0.6464(4) -0.4123(3) 0.8133(3)
C8B C -0.6751(5) -0.4201(3) 0.7069(3)
H1B H -0.7141 -0.4312 0.7015
H2B H -0.6516 -0.4534 0.7101
H3B H -0.6628 -0.3977 0.6749
C9B C -0.6871(5) -0.2269(4) 0.8227(4)
H4B H -0.6534 -0.2058 0.8324
H5B H -0.7154 -0.2216 0.8518
H6B H -0.7017 -0.2136 0.7869
C10B C -0.6382(5) -0.2870(4) 0.9247(4)
H7B H -0.6732 -0.2831 0.9455
H8B H -0.6233 -0.2499 0.9162
H9B H -0.6111 -0.3077 0.9474
C11B C -0.6301(5) -0.4760(4) 0.8105(4)
H10B H -0.6124 -0.4871 0.8457
H11B H -0.6040 -0.4821 0.7796
H12B H -0.6638 -0.4985 0.8045
O2B O -0.6490(3) -0.4424(3) 0.9469(2)
C1D C -0.7651(3) -0.3177(3) 0.6775(3)
C2D C -0.8641(3) -0.3625(3) 0.6208(3)
C3D C -0.9175(3) -0.3853(4) 0.5877(4)
C4D C -0.7632(3) -0.3302(4) 0.6166(3)
C5D C -0.8674(3) -0.3503(3) 0.6796(3)
C6D C -0.8180(3) -0.3276(4) 0.7093(3)
O1D O -0.9293(2) -0.4390(3) 0.5915(3)
C7D C -0.8133(3) -0.3536(4) 0.5877(3)
C8D C -0.7069(3) -0.3249(5) 0.5799(3)
H1D H -0.7015 -0.2859 0.5688
H2D H -0.7101 -0.3484 0.5466
H3D H -0.6749 -0.3372 0.6023
C9D C -0.8227(4) -0.3129(5) 0.7731(4)
H4D H -0.8324 -0.3466 0.7942
H5D H -0.8518 -0.2846 0.7784
H6D H -0.7869 -0.2983 0.7864
C10D C -0.9247(4) -0.3618(5) 0.7130(4)
H7D H -0.9455 -0.3268 0.7169
H8D H -0.9162 -0.3767 0.7501
H9D H -0.9474 -0.3889 0.6923
C11D C -0.8105(4) -0.3699(5) 0.5240(4)
H10D H -0.8457 -0.3876 0.5129
H11D H -0.7796 -0.3960 0.5179
H12D H -0.8045 -0.3362 0.5015
O2D O -0.9469(2) -0.3510(3) 0.5576(3)
Mn1L Mn -0.5000 -0.40075(6) 0.0000
C1L C -0.3225(3) -0.3177(3) -0.2349(3)
C2L C -0.3792(3) -0.3625(3) -0.1359(3)
B1L B -0.2906(4) -0.2906(4) -0.2906(4)
C3L C -0.4123(4) -0.3853(4) -0.0825(3)
C4L C -0.3834(3) -0.3302(4) -0.2368(3)
C5L C -0.3204(3) -0.3503(3) -0.1326(3)
C6L C -0.2907(3) -0.3276(4) -0.1820(3)
O1L O -0.4085(3) -0.4390(3) -0.0707(2)
C7L C -0.4123(3) -0.3536(4) -0.1867(3)
C8L C -0.4201(3) -0.3249(5) -0.2931(3)
H1L H -0.4312 -0.2859 -0.2985
H2L H -0.4534 -0.3484 -0.2899
H3L H -0.3977 -0.3372 -0.3251
C9L C -0.2269(4) -0.3129(5) -0.1773(4)
H4L H -0.2058 -0.3466 -0.1676
H5L H -0.2216 -0.2846 -0.1482
H6L H -0.2136 -0.2983 -0.2131
C10L C -0.2870(4) -0.3618(5) -0.0753(4)
H7L H -0.2831 -0.3268 -0.0545
H8L H -0.2499 -0.3767 -0.0838
H9L H -0.3077 -0.3889 -0.0526
C11L C -0.4760(4) -0.3699(5) -0.1895(4)
H10L H -0.4871 -0.3876 -0.1543
H11L H -0.4821 -0.3960 -0.2204
H12L H -0.4985 -0.3362 -0.1955
O2L O -0.4424(3) -0.3510(3) -0.0531(2)
C1S C -0.3177(3) -0.2349(3) -0.3225(3)
C2S C -0.3625(3) -0.1359(3) -0.3792(3)
C3S C -0.3853(4) -0.0825(3) -0.4123(4)
C4S C -0.3302(4) -0.2368(3) -0.3834(3)
C5S C -0.3503(3) -0.1326(3) -0.3204(3)
C6S C -0.3276(4) -0.1820(3) -0.2907(3)
O1S O -0.4390(3) -0.0707(2) -0.4085(3)
C7S C -0.3536(4) -0.1867(3) -0.4123(3)
C8S C -0.3249(5) -0.2931(3) -0.4201(3)
H1S H -0.2859 -0.2985 -0.4312
H2S H -0.3484 -0.2899 -0.4534
H3S H -0.3372 -0.3251 -0.3977
C9S C -0.3129(5) -0.1773(4) -0.2269(4)
H4S H -0.3466 -0.1676 -0.2058
H5S H -0.2846 -0.1482 -0.2216
H6S H -0.2983 -0.2131 -0.2136
C10S C -0.3618(5) -0.0753(4) -0.2870(4)
H7S H -0.3268 -0.0545 -0.2831
H8S H -0.3767 -0.0838 -0.2499
H9S H -0.3889 -0.0526 -0.3077
C11S C -0.3699(5) -0.1895(4) -0.4760(4)
H10S H -0.3876 -0.1543 -0.4871
H11S H -0.3960 -0.2204 -0.4821
H12S H -0.3362 -0.1955 -0.4985
O2S O -0.3510(3) -0.0531(2) -0.4424(3)
C1V C -0.2349(3) -0.3225(3) -0.3177(3)
C2V C -0.1359(3) -0.3792(3) -0.3625(3)
C3V C -0.0825(3) -0.4123(4) -0.3853(4)
C4V C -0.2368(3) -0.3834(3) -0.3302(4)
C5V C -0.1326(3) -0.3204(3) -0.3503(3)
C6V C -0.1820(3) -0.2907(3) -0.3276(4)
O1V O -0.0707(2) -0.4085(3) -0.4390(3)
C7V C -0.1867(3) -0.4123(3) -0.3536(4)
C8V C -0.2931(3) -0.4201(3) -0.3249(5)
H1V H -0.2985 -0.4312 -0.2859
H2V H -0.2899 -0.4534 -0.3484
H3V H -0.3251 -0.3977 -0.3372
C9V C -0.1773(4) -0.2269(4) -0.3129(5)
H4V H -0.1676 -0.2058 -0.3466
H5V H -0.1482 -0.2216 -0.2846
H6V H -0.2131 -0.2136 -0.2983
C10V C -0.0753(4) -0.2870(4) -0.3618(5)
H7V H -0.0545 -0.2831 -0.3268
H8V H -0.0838 -0.2499 -0.3767
H9V H -0.0526 -0.3077 -0.3889
C11V C -0.1895(4) -0.4760(4) -0.3699(5)
H10V H -0.1543 -0.4871 -0.3876
H11V H -0.2204 -0.4821 -0.3960
H12V H -0.1955 -0.4985 -0.3362
O2V O -0.0531(2) -0.4424(3) -0.3510(3)
Mn1L_2 Mn -0.5000 -0.40075(6) 1.0000
C1L_2 C -0.3225(3) -0.3177(3) 0.7651(3)
C2L_2 C -0.3792(3) -0.3625(3) 0.8641(3)
B1L_2 B -0.2906(4) -0.2906(4) 0.7094(4)
C3L_2 C -0.4123(4) -0.3853(4) 0.9175(3)
C4L_2 C -0.3834(3) -0.3302(4) 0.7632(3)
C5L_2 C -0.3204(3) -0.3503(3) 0.8674(3)
C6L_2 C -0.2907(3) -0.3276(4) 0.8180(3)
O1L_2 O -0.4085(3) -0.4390(3) 0.9293(2)
C7L_2 C -0.4123(3) -0.3536(4) 0.8133(3)
C8L_2 C -0.4201(3) -0.3249(5) 0.7069(3)
H1L_2 H -0.4312 -0.2859 0.7015
H2L_2 H -0.4534 -0.3484 0.7101
H3L_2 H -0.3977 -0.3372 0.6749
C9L_2 C -0.2269(4) -0.3129(5) 0.8227(4)
H4L_2 H -0.2058 -0.3466 0.8324
H5L_2 H -0.2216 -0.2846 0.8518
H6L_2 H -0.2136 -0.2983 0.7869
C10L_2 C -0.2870(4) -0.3618(5) 0.9247(4)
H7L_2 H -0.2831 -0.3268 0.9455
H8L_2 H -0.2499 -0.3767 0.9162
H9L_2 H -0.3077 -0.3889 0.9474
C11L_2 C -0.4760(4) -0.3699(5) 0.8105(4)
H10L_2 H -0.4871 -0.3876 0.8457
H11L_2 H -0.4821 -0.3960 0.7796
H12L_2 H -0.4985 -0.3362 0.8045
O2L_2 O -0.4424(3) -0.3510(3) 0.9469(2)
C1S_2 C -0.3177(3) -0.2349(3) 0.6775(3)
C2S_2 C -0.3625(3) -0.1359(3) 0.6208(3)
C3S_2 C -0.3853(4) -0.0825(3) 0.5877(4)
C4S_2 C -0.3302(4) -0.2368(3) 0.6166(3)
C5S_2 C -0.3503(3) -0.1326(3) 0.6796(3)
C6S_2 C -0.3276(4) -0.1820(3) 0.7093(3)
O1S_2 O -0.4390(3) -0.0707(2) 0.5915(3)
C7S_2 C -0.3536(4) -0.1867(3) 0.5877(3)
C8S_2 C -0.3249(5) -0.2931(3) 0.5799(3)
H1S_2 H -0.2859 -0.2985 0.5688
H2S_2 H -0.3484 -0.2899 0.5466
H3S_2 H -0.3372 -0.3251 0.6023
C9S_2 C -0.3129(5) -0.1773(4) 0.7731(4)
H4S_2 H -0.3466 -0.1676 0.7942
H5S_2 H -0.2846 -0.1482 0.7784
H6S_2 H -0.2983 -0.2131 0.7864
C10S_2 C -0.3618(5) -0.0753(4) 0.7130(4)
H7S_2 H -0.3268 -0.0545 0.7169
H8S_2 H -0.3767 -0.0838 0.7501
H9S_2 H -0.3889 -0.0526 0.6923
C11S_2 C -0.3699(5) -0.1895(4) 0.5240(4)
H10S_2 H -0.3876 -0.1543 0.5129
H11S_2 H -0.3960 -0.2204 0.5179
H12S_2 H -0.3362 -0.1955 0.5015
O2S_2 O -0.3510(3) -0.0531(2) 0.5576(3)
C1V_2 C -0.2349(3) -0.3225(3) 0.6823(3)
C2V_2 C -0.1359(3) -0.3792(3) 0.6375(3)
C3V_2 C -0.0825(3) -0.4123(4) 0.6147(4)
C4V_2 C -0.2368(3) -0.3834(3) 0.6698(4)
C5V_2 C -0.1326(3) -0.3204(3) 0.6497(3)
C6V_2 C -0.1820(3) -0.2907(3) 0.6724(4)
O1V_2 O -0.0707(2) -0.4085(3) 0.5610(3)
C7V_2 C -0.1867(3) -0.4123(3) 0.6464(4)
C8V_2 C -0.2931(3) -0.4201(3) 0.6751(5)
H1V_2 H -0.2985 -0.4312 0.7141
H2V_2 H -0.2899 -0.4534 0.6516
H3V_2 H -0.3251 -0.3977 0.6628
C9V_2 C -0.1773(4) -0.2269(4) 0.6871(5)
H4V_2 H -0.1676 -0.2058 0.6534
H5V_2 H -0.1482 -0.2216 0.7154
H6V_2 H -0.2131 -0.2136 0.7017
C10V_2 C -0.0753(4) -0.2870(4) 0.6382(5)
H7V_2 H -0.0545 -0.2831 0.6732
H8V_2 H -0.0838 -0.2499 0.6233
H9V_2 H -0.0526 -0.3077 0.6111
C11V_2 C -0.1895(4) -0.4760(4) 0.6301(5)
H10V_2 H -0.1543 -0.4871 0.6124
H11V_2 H -0.2204 -0.4821 0.6040
H12V_2 H -0.1955 -0.4985 0.6638
O2V_2 O -0.0531(2) -0.4424(3) 0.6490(3)
Mn1M Mn -0.5000 -0.59925(6) 0.0000
C1N C -0.3225(3) -0.6823(3) 0.2349(3)
C2N C -0.3792(3) -0.6375(3) 0.1359(3)
B1N B -0.2906(4) -0.7094(4) 0.2906(4)
C3N C -0.4123(4) -0.6147(4) 0.0825(3)
C4N C -0.3834(3) -0.6698(4) 0.2368(3)
C5N C -0.3204(3) -0.6497(3) 0.1326(3)
C6N C -0.2907(3) -0.6724(4) 0.1820(3)
O1N O -0.4085(3) -0.5610(3) 0.0707(2)
C7N C -0.4123(3) -0.6464(4) 0.1867(3)
C8N C -0.4201(3) -0.6751(5) 0.2931(3)
H1N H -0.4312 -0.7141 0.2985
H2N H -0.4534 -0.6516 0.2899
H3N H -0.3977 -0.6628 0.3251
C9N C -0.2269(4) -0.6871(5) 0.1773(4)
H4N H -0.2058 -0.6534 0.1676
H5N H -0.2216 -0.7154 0.1482
H6N H -0.2136 -0.7017 0.2131
C10N C -0.2870(4) -0.6382(5) 0.0753(4)
H7N H -0.2831 -0.6732 0.0545
H8N H -0.2499 -0.6233 0.0838
H9N H -0.3077 -0.6111 0.0526
C11N C -0.4760(4) -0.6301(5) 0.1895(4)
H10N H -0.4871 -0.6124 0.1543
H11N H -0.4821 -0.6040 0.2204
H12N H -0.4985 -0.6638 0.1955
O2N O -0.4424(3) -0.6490(3) 0.0531(2)
C1P C -0.3177(3) -0.7651(3) 0.3225(3)
C2P C -0.3625(3) -0.8641(3) 0.3792(3)
C3P C -0.3853(4) -0.9175(3) 0.4123(4)
C4P C -0.3302(4) -0.7632(3) 0.3834(3)
C5P C -0.3503(3) -0.8674(3) 0.3204(3)
C6P C -0.3276(4) -0.8180(3) 0.2907(3)
O1P O -0.4390(3) -0.9293(2) 0.4085(3)
C7P C -0.3536(4) -0.8133(3) 0.4123(3)
C8P C -0.3249(5) -0.7069(3) 0.4201(3)
H1P H -0.2859 -0.7015 0.4312
H2P H -0.3484 -0.7101 0.4534
H3P H -0.3372 -0.6749 0.3977
C9P C -0.3129(5) -0.8227(4) 0.2269(4)
H4P H -0.3466 -0.8324 0.2058
H5P H -0.2846 -0.8518 0.2216
H6P H -0.2983 -0.7869 0.2136
C10P C -0.3618(5) -0.9247(4) 0.2870(4)
H7P H -0.3268 -0.9455 0.2831
H8P H -0.3767 -0.9162 0.2499
H9P H -0.3889 -0.9474 0.3077
C11P C -0.3699(5) -0.8105(4) 0.4760(4)
H10P H -0.3876 -0.8457 0.4871
H11P H -0.3960 -0.7796 0.4821
H12P H -0.3362 -0.8045 0.4985
O2P O -0.3510(3) -0.9469(2) 0.4424(3)
C1W C -0.2349(3) -0.6775(3) 0.3177(3)
C2W C -0.1359(3) -0.6208(3) 0.3625(3)
C3W C -0.0825(3) -0.5877(4) 0.3853(4)
C4W C -0.2368(3) -0.6166(3) 0.3302(4)
C5W C -0.1326(3) -0.6796(3) 0.3503(3)
C6W C -0.1820(3) -0.7093(3) 0.3276(4)
O1W O -0.0707(2) -0.5915(3) 0.4390(3)
C7W C -0.1867(3) -0.5877(3) 0.3536(4)
C8W C -0.2931(3) -0.5799(3) 0.3249(5)
H1W H -0.2985 -0.5688 0.2859
H2W H -0.2899 -0.5466 0.3484
H3W H -0.3251 -0.6023 0.3372
C9W C -0.1773(4) -0.7731(4) 0.3129(5)
H4W H -0.1676 -0.7942 0.3466
H5W H -0.1482 -0.7784 0.2846
H6W H -0.2131 -0.7864 0.2983
C10W C -0.0753(4) -0.7130(4) 0.3618(5)
H7W H -0.0545 -0.7169 0.3268
H8W H -0.0838 -0.7501 0.3767
H9W H -0.0526 -0.6923 0.3889
C11W C -0.1895(4) -0.5240(4) 0.3699(5)
H10W H -0.1543 -0.5129 0.3876
H11W H -0.2204 -0.5179 0.3960
H12W H -0.1955 -0.5015 0.3362
O2W O -0.0531(2) -0.5576(3) 0.3510(3)
C1N_2 C -0.3225(3) 0.3177(3) 0.2349(3)
C2N_2 C -0.3792(3) 0.3625(3) 0.1359(3)
B1N_2 B -0.2906(4) 0.2906(4) 0.2906(4)
C3N_2 C -0.4123(4) 0.3853(4) 0.0825(3)
C4N_2 C -0.3834(3) 0.3302(4) 0.2368(3)
C5N_2 C -0.3204(3) 0.3503(3) 0.1326(3)
C6N_2 C -0.2907(3) 0.3276(4) 0.1820(3)
O1N_2 O -0.4085(3) 0.4390(3) 0.0707(2)
C7N_2 C -0.4123(3) 0.3536(4) 0.1867(3)
C8N_2 C -0.4201(3) 0.3249(5) 0.2931(3)
H1N_2 H -0.4312 0.2859 0.2985
H2N_2 H -0.4534 0.3484 0.2899
H3N_2 H -0.3977 0.3372 0.3251
C9N_2 C -0.2269(4) 0.3129(5) 0.1773(4)
H4N_2 H -0.2058 0.3466 0.1676
H5N_2 H -0.2216 0.2846 0.1482
H6N_2 H -0.2136 0.2983 0.2131
C10N_2 C -0.2870(4) 0.3618(5) 0.0753(4)
H7N_2 H -0.2831 0.3268 0.0545
H8N_2 H -0.2499 0.3767 0.0838
H9N_2 H -0.3077 0.3889 0.0526
C11N_2 C -0.4760(4) 0.3699(5) 0.1895(4)
H10N_2 H -0.4871 0.3876 0.1543
H11N_2 H -0.4821 0.3960 0.2204
H12N_2 H -0.4985 0.3362 0.1955
O2N_2 O -0.4424(3) 0.3510(3) 0.0531(2)
C1P_2 C -0.3177(3) 0.2349(3) 0.3225(3)
C2P_2 C -0.3625(3) 0.1359(3) 0.3792(3)
C3P_2 C -0.3853(4) 0.0825(3) 0.4123(4)
C4P_2 C -0.3302(4) 0.2368(3) 0.3834(3)
C5P_2 C -0.3503(3) 0.1326(3) 0.3204(3)
C6P_2 C -0.3276(4) 0.1820(3) 0.2907(3)
O1P_2 O -0.4390(3) 0.0707(2) 0.4085(3)
C7P_2 C -0.3536(4) 0.1867(3) 0.4123(3)
C8P_2 C -0.3249(5) 0.2931(3) 0.4201(3)
H1P_2 H -0.2859 0.2985 0.4312
H2P_2 H -0.3484 0.2899 0.4534
H3P_2 H -0.3372 0.3251 0.3977
C9P_2 C -0.3129(5) 0.1773(4) 0.2269(4)
H4P_2 H -0.3466 0.1676 0.2058
H5P_2 H -0.2846 0.1482 0.2216
H6P_2 H -0.2983 0.2131 0.2136
C10P_2 C -0.3618(5) 0.0753(4) 0.2870(4)
H7P_2 H -0.3268 0.0545 0.2831
H8P_2 H -0.3767 0.0838 0.2499
H9P_2 H -0.3889 0.0526 0.3077
C11P_2 C -0.3699(5) 0.1895(4) 0.4760(4)
H10P_2 H -0.3876 0.1543 0.4871
H11P_2 H -0.3960 0.2204 0.4821
H12P_2 H -0.3362 0.1955 0.4985
O2P_2 O -0.3510(3) 0.0531(2) 0.4424(3)
C1W_2 C -0.2349(3) 0.3225(3) 0.3177(3)
C2W_2 C -0.1359(3) 0.3792(3) 0.3625(3)
C3W_2 C -0.0825(3) 0.4123(4) 0.3853(4)
C4W_2 C -0.2368(3) 0.3834(3) 0.3302(4)
C5W_2 C -0.1326(3) 0.3204(3) 0.3503(3)
C6W_2 C -0.1820(3) 0.2907(3) 0.3276(4)
O1W_2 O -0.0707(2) 0.4085(3) 0.4390(3)
C7W_2 C -0.1867(3) 0.4123(3) 0.3536(4)
C8W_2 C -0.2931(3) 0.4201(3) 0.3249(5)
H1W_2 H -0.2985 0.4312 0.2859
H2W_2 H -0.2899 0.4534 0.3484
H3W_2 H -0.3251 0.3977 0.3372
C9W_2 C -0.1773(4) 0.2269(4) 0.3129(5)
H4W_2 H -0.1676 0.2058 0.3466
H5W_2 H -0.1482 0.2216 0.2846
H6W_2 H -0.2131 0.2136 0.2983
C10W_2 C -0.0753(4) 0.2870(4) 0.3618(5)
H7W_2 H -0.0545 0.2831 0.3268
H8W_2 H -0.0838 0.2499 0.3767
H9W_2 H -0.0526 0.3077 0.3889
C11W_2 C -0.1895(4) 0.4760(4) 0.3699(5)
H10W_2 H -0.1543 0.4871 0.3876
H11W_2 H -0.2204 0.4821 0.3960
H12W_2 H -0.1955 0.4985 0.3362
O2W_2 O -0.0531(2) 0.4424(3) 0.3510(3)
C1O C -0.6775(3) -0.3177(3) 0.2349(3)
C2O C -0.6208(3) -0.3625(3) 0.1359(3)
B1O B -0.7094(4) -0.2906(4) 0.2906(4)
C3O C -0.5877(4) -0.3853(4) 0.0825(3)
C4O C -0.6166(3) -0.3302(4) 0.2368(3)
C5O C -0.6796(3) -0.3503(3) 0.1326(3)
C6O C -0.7093(3) -0.3276(4) 0.1820(3)
O1O O -0.5915(3) -0.4390(3) 0.0707(2)
C7O C -0.5877(3) -0.3536(4) 0.1867(3)
C8O C -0.5799(3) -0.3249(5) 0.2931(3)
H1O H -0.5688 -0.2859 0.2985
H2O H -0.5466 -0.3484 0.2899
H3O H -0.6023 -0.3372 0.3251
C9O C -0.7731(4) -0.3129(5) 0.1773(4)
H4O H -0.7942 -0.3466 0.1676
H5O H -0.7784 -0.2846 0.1482
H6O H -0.7864 -0.2983 0.2131
C10O C -0.7130(4) -0.3618(5) 0.0753(4)
H7O H -0.7169 -0.3268 0.0545
H8O H -0.7501 -0.3767 0.0838
H9O H -0.6923 -0.3889 0.0526
C11O C -0.5240(4) -0.3699(5) 0.1895(4)
H10O H -0.5129 -0.3876 0.1543
H11O H -0.5179 -0.3960 0.2204
H12O H -0.5015 -0.3362 0.1955
O2O O -0.5576(3) -0.3510(3) 0.0531(2)
C1R C -0.6823(3) -0.2349(3) 0.3225(3)
C2R C -0.6375(3) -0.1359(3) 0.3792(3)
C3R C -0.6147(4) -0.0825(3) 0.4123(4)
C4R C -0.6698(4) -0.2368(3) 0.3834(3)
C5R C -0.6497(3) -0.1326(3) 0.3204(3)
C6R C -0.6724(4) -0.1820(3) 0.2907(3)
O1R O -0.5610(3) -0.0707(2) 0.4085(3)
C7R C -0.6464(4) -0.1867(3) 0.4123(3)
C8R C -0.6751(5) -0.2931(3) 0.4201(3)
H1R H -0.7141 -0.2985 0.4312
H2R H -0.6516 -0.2899 0.4534
H3R H -0.6628 -0.3251 0.3977
C9R C -0.6871(5) -0.1773(4) 0.2269(4)
H4R H -0.6534 -0.1676 0.2058
H5R H -0.7154 -0.1482 0.2216
H6R H -0.7017 -0.2131 0.2136
C10R C -0.6382(5) -0.0753(4) 0.2870(4)
H7R H -0.6732 -0.0545 0.2831
H8R H -0.6233 -0.0838 0.2499
H9R H -0.6111 -0.0526 0.3077
C11R C -0.6301(5) -0.1895(4) 0.4760(4)
H10R H -0.6124 -0.1543 0.4871
H11R H -0.6040 -0.2204 0.4821
H12R H -0.6638 -0.1955 0.4985
O2R O -0.6490(3) -0.0531(2) 0.4424(3)
C1T C -0.7651(3) -0.3225(3) 0.3177(3)
C2T C -0.8641(3) -0.3792(3) 0.3625(3)
C3T C -0.9175(3) -0.4123(4) 0.3853(4)
C4T C -0.7632(3) -0.3834(3) 0.3302(4)
C5T C -0.8674(3) -0.3204(3) 0.3503(3)
C6T C -0.8180(3) -0.2907(3) 0.3276(4)
O1T O -0.9293(2) -0.4085(3) 0.4390(3)
C7T C -0.8133(3) -0.4123(3) 0.3536(4)
C8T C -0.7069(3) -0.4201(3) 0.3249(5)
H1T H -0.7015 -0.4312 0.2859
H2T H -0.7101 -0.4534 0.3484
H3T H -0.6749 -0.3977 0.3372
C9T C -0.8227(4) -0.2269(4) 0.3129(5)
H4T H -0.8324 -0.2058 0.3466
H5T H -0.8518 -0.2216 0.2846
H6T H -0.7869 -0.2136 0.2983
C10T C -0.9247(4) -0.2870(4) 0.3618(5)
H7T H -0.9455 -0.2831 0.3268
H8T H -0.9162 -0.2499 0.3767
H9T H -0.9474 -0.3077 0.3889
C11T C -0.8105(4) -0.4760(4) 0.3699(5)
H10T H -0.8457 -0.4871 0.3876
H11T H -0.7796 -0.4821 0.3960
H12T H -0.8045 -0.4985 0.3362
O2T O -0.9469(2) -0.4424(3) 0.3510(3)
Mn1P Mn -0.40075(6) -1.0000 0.5000
Mn1P_2 Mn -0.40075(6) 0.0000 0.5000
Mn1_2 Mn -0.40075(6) -0.5000 1.0000
Mn1_3 Mn -0.40075(6) 0.5000 0.0000
Mn1A_2 Mn -0.59925(6) -0.5000 1.0000
Mn1D_2 Mn -1.0000 -0.40075(6) 0.5000
Mn1D_3 Mn 0.0000 -0.40075(6) -0.5000
Mn1E_2 Mn 0.0000 -0.59925(6) 0.5000
Mn1E_3 Mn 0.0000 0.40075(6) 0.5000
Mn1H_2 Mn -0.5000 0.0000 -0.40075(6)
Mn1M_2 Mn -0.5000 0.40075(6) 0.0000
Mn1P_3 Mn -0.40075(6) 0.0000 -0.5000
Mn1Q Mn -0.59925(6) -1.0000 0.5000
Mn1Q_2 Mn -0.59925(6) 0.0000 0.5000
Mn1T Mn -1.0000 -0.5000 0.40075(6)
Mn1T_2 Mn 0.0000 -0.5000 0.40075(6)
Mn1T_3 Mn 0.0000 0.5000 0.40075(6)
Mn1U Mn -1.0000 -0.5000 0.59925(6)
Mn1U_2 Mn 0.0000 -0.5000 -0.40075(6)
Mn1U_3 Mn 0.0000 -0.5000 0.59925(6)
O1_2 O -0.4390(3) -0.4085(3) 1.0707(2)
O1B_2 O -0.5610(3) -0.4085(3) -0.0707(2)
O1C O -0.4390(3) -0.5915(3) -0.0707(2)
O1H O -0.4085(3) -0.9293(2) 0.5610(3)
O1H_2 O -0.4085(3) 0.0707(2) 0.5610(3)
O1J_2 O -0.4085(3) -1.0707(2) 0.4390(3)
O1M O -0.5915(3) -0.5610(3) -0.0707(2)
O1Q O -0.5610(3) 0.0707(2) 0.5915(3)
O1R_2 O -0.5610(3) -1.0707(2) 0.4085(3)
O1T_2 O 0.0707(2) -0.4085(3) 0.4390(3)
O1U O -0.9293(2) -0.5915(3) 0.5610(3)
O1W_3 O -1.0707(2) -0.5915(3) 0.4390(3)
O2B_2 O -0.6490(3) -0.4424(3) -0.0531(2)
O2C O -0.3510(3) -0.5576(3) -0.0531(2)
O2D_2 O 0.0531(2) -0.3510(3) 0.5576(3)
O2F O -1.0531(2) -0.6490(3) 0.5576(3)
O2H O -0.4424(3) 0.0531(2) 0.6490(3)
O2I_2 O -0.5576(3) 0.0531(2) 0.3510(3)
O2J_2 O -0.4424(3) -1.0531(2) 0.3510(3)
O2M O -0.5576(3) -0.6490(3) -0.0531(2)
O2O_2 O -0.5576(3) -0.3510(3) 1.0531(2)
O2S_3 O -0.3510(3) -1.0531(2) 0.5576(3)
Cl1_2 Cl -0.5000 -0.5000 1.0000
Cl1H Cl -0.5000 -1.0000 0.5000
Cl1H_2 Cl -0.5000 0.0000 0.5000
loop_
_geom_bond_atom_site_label_1
_geom_bond_atom_site_label_2
_geom_bond_site_symmetry_1
_geom_bond_site_symmetry_2
Mn1 O2 1_555 1_555
C1 B1 1_555 1_555
C2 C3 1_555 1_555
B1 C1G 1_555 1_555
C3 O1 1_555 1_555
C4 C1 1_555 1_555
C5 C2 1_555 1_555
C6 C1 1_555 1_555
O1 Mn1L 1_555 1_555
C7 C2 1_555 1_555
C8 C4 1_555 1_555
H1 C8 1_555 1_555
H2 C8 1_555 1_555
H3 C8 1_555 1_555
C9 C6 1_555 1_555
H4 C9 1_555 1_555
H5 C9 1_555 1_555
H6 C9 1_555 1_555
C10 C5 1_555 1_555
H7 C10 1_555 1_555
H8 C10 1_555 1_555
H9 C10 1_555 1_555
C11 C7 1_555 1_555
H10 C11 1_555 1_555
H11 C11 1_555 1_555
H12 C11 1_555 1_555
O2 C3 1_555 1_555
Cl1 Mn1 1_555 1_555
C1G C4G 1_555 1_555
C2G C3G 1_555 1_555
C3G O1G 1_555 1_555
C4G C7G 1_555 1_555
C5G C2G 1_555 1_555
C6G C1G 1_555 1_555
O1G Mn1T_2 1_555 1_555
C7G C2G 1_555 1_555
C8G C4G 1_555 1_555
H1G C8G 1_555 1_555
H2G C8G 1_555 1_555
H3G C8G 1_555 1_555
C9G C6G 1_555 1_555
H4G C9G 1_555 1_555
H5G C9G 1_555 1_555
H6G C9G 1_555 1_555
C10G C5G 1_555 1_555
H7G C10G 1_555 1_555
H8G C10G 1_555 1_555
H9G C10G 1_555 1_555
C11G C7G 1_555 1_555
H10G C11G 1_555 1_555
H11G C11G 1_555 1_555
H12G C11G 1_555 1_555
O2G C3G 1_555 1_555
C1J B1 1_555 1_555
C2J C3J 1_555 1_555
C3J O1J 1_555 1_555
C4J C1J 1_555 1_555
C5J C2J 1_555 1_555
C6J C1J 1_555 1_555
O1J Mn1P_2 1_555 1_555
C7J C2J 1_555 1_555
C8J C4J 1_555 1_555
H1J C8J 1_555 1_555
H2J C8J 1_555 1_555
H3J C8J 1_555 1_555
C9J C6J 1_555 1_555
H4J C9J 1_555 1_555
H5J C9J 1_555 1_555
H6J C9J 1_555 1_555
C10J C5J 1_555 1_555
H7J C10J 1_555 1_555
H8J C10J 1_555 1_555
H9J C10J 1_555 1_555
C11J C7J 1_555 1_555
H10J C11J 1_555 1_555
H11J C11J 1_555 1_555
H12J C11J 1_555 1_555
O2J C3J 1_555 1_555
Mn1A Cl1 1_555 1_555
C1A B1A 1_555 1_555
C2A C3A 1_555 1_555
B1A C1E 1_555 1_555
C3A O1A 1_555 1_555
C4A C1A 1_555 1_555
C5A C2A 1_555 1_555
C6A C1A 1_555 1_555
O1A Mn1M 1_555 1_555
C7A C2A 1_555 1_555
C8A C4A 1_555 1_555
H1A C8A 1_555 1_555
H2A C8A 1_555 1_555
H3A C8A 1_555 1_555
C9A C6A 1_555 1_555
H4A C9A 1_555 1_555
H5A C9A 1_555 1_555
H6A C9A 1_555 1_555
C10A C5A 1_555 1_555
H7A C10A 1_555 1_555
H8A C10A 1_555 1_555
H9A C10A 1_555 1_555
C11A C7A 1_555 1_555
H10A C11A 1_555 1_555
H11A C11A 1_555 1_555
H12A C11A 1_555 1_555
O2A Mn1A 1_555 1_555
C1E C4E 1_555 1_555
C2E C3E 1_555 1_555
C3E O1E 1_555 1_555
C4E C7E 1_555 1_555
C5E C2E 1_555 1_555
C6E C1E 1_555 1_555
O1E Mn1T 1_555 1_555
C7E C2E 1_555 1_555
C8E C4E 1_555 1_555
H1E C8E 1_555 1_555
H2E C8E 1_555 1_555
H3E C8E 1_555 1_555
C9E C6E 1_555 1_555
H4E C9E 1_555 1_555
H5E C9E 1_555 1_555
H6E C9E 1_555 1_555
C10E C5E 1_555 1_555
H7E C10E 1_555 1_555
H8E C10E 1_555 1_555
H9E C10E 1_555 1_555
C11E C7E 1_555 1_555
H10E C11E 1_555 1_555
H11E C11E 1_555 1_555
H12E C11E 1_555 1_555
O2E C3E 1_555 1_555
C1I B1A 1_555 1_555
C2I C3I 1_555 1_555
C3I O1I 1_555 1_555
C4I C1I 1_555 1_555
C5I C2I 1_555 1_555
C6I C1I 1_555 1_555
O1I Mn1Q 1_555 1_555
C7I C2I 1_555 1_555
C8I C4I 1_555 1_555
H1I C8I 1_555 1_555
H2I C8I 1_555 1_555
H3I C8I 1_555 1_555
C9I C6I 1_555 1_555
H4I C9I 1_555 1_555
H5I C9I 1_555 1_555
H6I C9I 1_555 1_555
C10I C5I 1_555 1_555
H7I C10I 1_555 1_555
H8I C10I 1_555 1_555
H9I C10I 1_555 1_555
C11I C7I 1_555 1_555
H10I C11I 1_555 1_555
H11I C11I 1_555 1_555
H12I C11I 1_555 1_555
O2I C3I 1_555 1_555
Mn1E O2E 1_555 1_555
Cl1D Mn1E 1_555 1_555
Mn1D O2G 1_555 1_555
Cl1D_2 Mn1D 1_555 1_555
Mn1I O2I 1_555 1_555
Mn1I_2 O2J 1_555 1_555
Mn1H O2K 1_555 1_555
C1K B1B 1_555 1_555
C2K C3K 1_555 1_555
B1B C1B 1_555 1_555
C3K O1K 1_555 1_555
C4K C1K 1_555 1_555
C5K C2K 1_555 1_555
C6K C1K 1_555 1_555
O1K Mn1Q_2 1_555 1_555
C7K C2K 1_555 1_555
C8K C4K 1_555 1_555
H1K C8K 1_555 1_555
H2K C8K 1_555 1_555
H3K C8K 1_555 1_555
C9K C6K 1_555 1_555
H4K C9K 1_555 1_555
H5K C9K 1_555 1_555
H6K C9K 1_555 1_555
C10K C5K 1_555 1_555
H7K C10K 1_555 1_555
H8K C10K 1_555 1_555
H9K C10K 1_555 1_555
C11K C7K 1_555 1_555
H10K C11K 1_555 1_555
H11K C11K 1_555 1_555
H12K C11K 1_555 1_555
O2K C3K 1_555 1_555
C1B C4B 1_555 1_555
C2B C3B 1_555 1_555
C3B O1B 1_555 1_555
C4B C7B 1_555 1_555
C5B C2B 1_555 1_555
C6B C1B 1_555 1_555
O1B Mn1L_2 1_555 1_555
C7B C2B 1_555 1_555
C8B C4B 1_555 1_555
H1B C8B 1_555 1_555
H2B C8B 1_555 1_555
H3B C8B 1_555 1_555
C9B C6B 1_555 1_555
H4B C9B 1_555 1_555
H5B C9B 1_555 1_555
H6B C9B 1_555 1_555
C10B C5B 1_555 1_555
H7B C10B 1_555 1_555
H8B C10B 1_555 1_555
H9B C10B 1_555 1_555
C11B C7B 1_555 1_555
H10B C11B 1_555 1_555
H11B C11B 1_555 1_555
H12B C11B 1_555 1_555
O2B C3B 1_555 1_555
C1D B1B 1_555 1_555
C2D C3D 1_555 1_555
C3D O1D 1_555 1_555
C4D C1D 1_555 1_555
C5D C2D 1_555 1_555
C6D C1D 1_555 1_555
O1D Mn1U 1_555 1_555
C7D C2D 1_555 1_555
C8D C4D 1_555 1_555
H1D C8D 1_555 1_555
H2D C8D 1_555 1_555
H3D C8D 1_555 1_555
C9D C6D 1_555 1_555
H4D C9D 1_555 1_555
H5D C9D 1_555 1_555
H6D C9D 1_555 1_555
C10D C5D 1_555 1_555
H7D C10D 1_555 1_555
H8D C10D 1_555 1_555
H9D C10D 1_555 1_555
C11D C7D 1_555 1_555
H10D C11D 1_555 1_555
H11D C11D 1_555 1_555
H12D C11D 1_555 1_555
O2D C3D 1_555 1_555
Mn1L Cl1 1_555 1_555
C1L B1L 1_555 1_555
C2L C3L 1_555 1_555
B1L C1S 1_555 1_555
C3L O1L 1_555 1_555
C4L C1L 1_555 1_555
C5L C2L 1_555 1_555
C6L C1L 1_555 1_555
O1L Mn1 1_555 1_555
C7L C2L 1_555 1_555
C8L C4L 1_555 1_555
H1L C8L 1_555 1_555
H2L C8L 1_555 1_555
H3L C8L 1_555 1_555
C9L C6L 1_555 1_555
H4L C9L 1_555 1_555
H5L C9L 1_555 1_555
H6L C9L 1_555 1_555
C10L C5L 1_555 1_555
H7L C10L 1_555 1_555
H8L C10L 1_555 1_555
H9L C10L 1_555 1_555
C11L C7L 1_555 1_555
H10L C11L 1_555 1_555
H11L C11L 1_555 1_555
H12L C11L 1_555 1_555
O2L Mn1L 1_555 1_555
C1S C4S 1_555 1_555
C2S C3S 1_555 1_555
C3S O1S 1_555 1_555
C4S C7S 1_555 1_555
C5S C2S 1_555 1_555
C6S C1S 1_555 1_555
O1S Mn1H_2 1_555 1_555
C7S C2S 1_555 1_555
C8S C4S 1_555 1_555
H1S C8S 1_555 1_555
H2S C8S 1_555 1_555
H3S C8S 1_555 1_555
C9S C6S 1_555 1_555
H4S C9S 1_555 1_555
H5S C9S 1_555 1_555
H6S C9S 1_555 1_555
C10S C5S 1_555 1_555
H7S C10S 1_555 1_555
H8S C10S 1_555 1_555
H9S C10S 1_555 1_555
C11S C7S 1_555 1_555
H10S C11S 1_555 1_555
H11S C11S 1_555 1_555
H12S C11S 1_555 1_555
O2S C3S 1_555 1_555
C1V B1L 1_555 1_555
C2V C3V 1_555 1_555
C3V O1V 1_555 1_555
C4V C1V 1_555 1_555
C5V C2V 1_555 1_555
C6V C1V 1_555 1_555
O1V Mn1D_3 1_555 1_555
C7V C2V 1_555 1_555
C8V C4V 1_555 1_555
H1V C8V 1_555 1_555
H2V C8V 1_555 1_555
H3V C8V 1_555 1_555
C9V C6V 1_555 1_555
H4V C9V 1_555 1_555
H5V C9V 1_555 1_555
H6V C9V 1_555 1_555
C10V C5V 1_555 1_555
H7V C10V 1_555 1_555
H8V C10V 1_555 1_555
H9V C10V 1_555 1_555
C11V C7V 1_555 1_555
H10V C11V 1_555 1_555
H11V C11V 1_555 1_555
H12V C11V 1_555 1_555
O2V C3V 1_555 1_555
Mn1L_2 O2L_2 1_555 1_555
C1L_2 B1L_2 1_555 1_555
C2L_2 C3L_2 1_555 1_555
B1L_2 C1S_2 1_555 1_555
C3L_2 O1L_2 1_555 1_555
C4L_2 C1L_2 1_555 1_555
C5L_2 C2L_2 1_555 1_555
C6L_2 C1L_2 1_555 1_555
O1L_2 Mn1_2 1_555 1_555
C7L_2 C2L_2 1_555 1_555
C8L_2 C4L_2 1_555 1_555
H1L_2 C8L_2 1_555 1_555
H2L_2 C8L_2 1_555 1_555
H3L_2 C8L_2 1_555 1_555
C9L_2 C6L_2 1_555 1_555
H4L_2 C9L_2 1_555 1_555
H5L_2 C9L_2 1_555 1_555
H6L_2 C9L_2 1_555 1_555
C10L_2 C5L_2 1_555 1_555
H7L_2 C10L_2 1_555 1_555
H8L_2 C10L_2 1_555 1_555
H9L_2 C10L_2 1_555 1_555
C11L_2 C7L_2 1_555 1_555
H10L_2 C11L_2 1_555 1_555
H11L_2 C11L_2 1_555 1_555
H12L_2 C11L_2 1_555 1_555
O2L_2 C3L_2 1_555 1_555
C1S_2 C4S_2 1_555 1_555
C2S_2 C3S_2 1_555 1_555
C3S_2 O1S_2 1_555 1_555
C4S_2 C7S_2 1_555 1_555
C5S_2 C2S_2 1_555 1_555
C6S_2 C1S_2 1_555 1_555
O1S_2 Mn1H 1_555 1_555
C7S_2 C2S_2 1_555 1_555
C8S_2 C4S_2 1_555 1_555
H1S_2 C8S_2 1_555 1_555
H2S_2 C8S_2 1_555 1_555
H3S_2 C8S_2 1_555 1_555
C9S_2 C6S_2 1_555 1_555
H4S_2 C9S_2 1_555 1_555
H5S_2 C9S_2 1_555 1_555
H6S_2 C9S_2 1_555 1_555
C10S_2 C5S_2 1_555 1_555
H7S_2 C10S_2 1_555 1_555
H8S_2 C10S_2 1_555 1_555
H9S_2 C10S_2 1_555 1_555
C11S_2 C7S_2 1_555 1_555
H10S_2 C11S_2 1_555 1_555
H11S_2 C11S_2 1_555 1_555
H12S_2 C11S_2 1_555 1_555
O2S_2 C3S_2 1_555 1_555
C1V_2 B1L_2 1_555 1_555
C2V_2 C3V_2 1_555 1_555
C3V_2 O1V_2 1_555 1_555
C4V_2 C1V_2 1_555 1_555
C5V_2 C2V_2 1_555 1_555
C6V_2 C1V_2 1_555 1_555
O1V_2 Mn1D 1_555 1_555
C7V_2 C2V_2 1_555 1_555
C8V_2 C4V_2 1_555 1_555
H1V_2 C8V_2 1_555 1_555
H2V_2 C8V_2 1_555 1_555
H3V_2 C8V_2 1_555 1_555
C9V_2 C6V_2 1_555 1_555
H4V_2 C9V_2 1_555 1_555
H5V_2 C9V_2 1_555 1_555
H6V_2 C9V_2 1_555 1_555
C10V_2 C5V_2 1_555 1_555
H7V_2 C10V_2 1_555 1_555
H8V_2 C10V_2 1_555 1_555
H9V_2 C10V_2 1_555 1_555
C11V_2 C7V_2 1_555 1_555
H10V_2 C11V_2 1_555 1_555
H11V_2 C11V_2 1_555 1_555
H12V_2 C11V_2 1_555 1_555
O2V_2 C3V_2 1_555 1_555
Mn1M Cl1 1_555 1_555
C1N B1N 1_555 1_555
C2N C3N 1_555 1_555
B1N C1P 1_555 1_555
C3N O1N 1_555 1_555
C4N C1N 1_555 1_555
C5N C2N 1_555 1_555
C6N C1N 1_555 1_555
O1N Mn1 1_555 1_555
C7N C2N 1_555 1_555
C8N C4N 1_555 1_555
H1N C8N 1_555 1_555
H2N C8N 1_555 1_555
H3N C8N 1_555 1_555
C9N C6N 1_555 1_555
H4N C9N 1_555 1_555
H5N C9N 1_555 1_555
H6N C9N 1_555 1_555
C10N C5N 1_555 1_555
H7N C10N 1_555 1_555
H8N C10N 1_555 1_555
H9N C10N 1_555 1_555
C11N C7N 1_555 1_555
H10N C11N 1_555 1_555
H11N C11N 1_555 1_555
H12N C11N 1_555 1_555
O2N Mn1M 1_555 1_555
C1P C4P 1_555 1_555
C2P C3P 1_555 1_555
C3P O1P 1_555 1_555
C4P C7P 1_555 1_555
C5P C2P 1_555 1_555
C6P C1P 1_555 1_555
O1P Mn1I 1_555 1_555
C7P C2P 1_555 1_555
C8P C4P 1_555 1_555
H1P C8P 1_555 1_555
H2P C8P 1_555 1_555
H3P C8P 1_555 1_555
C9P C6P 1_555 1_555
H4P C9P 1_555 1_555
H5P C9P 1_555 1_555
H6P C9P 1_555 1_555
C10P C5P 1_555 1_555
H7P C10P 1_555 1_555
H8P C10P 1_555 1_555
H9P C10P 1_555 1_555
C11P C7P 1_555 1_555
H10P C11P 1_555 1_555
H11P C11P 1_555 1_555
H12P C11P 1_555 1_555
O2P C3P 1_555 1_555
C1W B1N 1_555 1_555
C2W C3W 1_555 1_555
C3W O1W 1_555 1_555
C4W C1W 1_555 1_555
C5W C2W 1_555 1_555
C6W C1W 1_555 1_555
O1W Mn1E_2 1_555 1_555
C7W C2W 1_555 1_555
C8W C4W 1_555 1_555
H1W C8W 1_555 1_555
H2W C8W 1_555 1_555
H3W C8W 1_555 1_555
C9W C6W 1_555 1_555
H4W C9W 1_555 1_555
H5W C9W 1_555 1_555
H6W C9W 1_555 1_555
C10W C5W 1_555 1_555
H7W C10W 1_555 1_555
H8W C10W 1_555 1_555
H9W C10W 1_555 1_555
C11W C7W 1_555 1_555
H10W C11W 1_555 1_555
H11W C11W 1_555 1_555
H12W C11W 1_555 1_555
O2W C3W 1_555 1_555
C1N_2 B1N_2 1_555 1_555
C2N_2 C3N_2 1_555 1_555
B1N_2 C1P_2 1_555 1_555
C3N_2 O1N_2 1_555 1_555
C4N_2 C1N_2 1_555 1_555
C5N_2 C2N_2 1_555 1_555
C6N_2 C1N_2 1_555 1_555
O1N_2 Mn1_3 1_555 1_555
C7N_2 C2N_2 1_555 1_555
C8N_2 C4N_2 1_555 1_555
H1N_2 C8N_2 1_555 1_555
H2N_2 C8N_2 1_555 1_555
H3N_2 C8N_2 1_555 1_555
C9N_2 C6N_2 1_555 1_555
H4N_2 C9N_2 1_555 1_555
H5N_2 C9N_2 1_555 1_555
H6N_2 C9N_2 1_555 1_555
C10N_2 C5N_2 1_555 1_555
H7N_2 C10N_2 1_555 1_555
H8N_2 C10N_2 1_555 1_555
H9N_2 C10N_2 1_555 1_555
C11N_2 C7N_2 1_555 1_555
H10N_2 C11N_2 1_555 1_555
H11N_2 C11N_2 1_555 1_555
H12N_2 C11N_2 1_555 1_555
O2N_2 C3N_2 1_555 1_555
C1P_2 C4P_2 1_555 1_555
C2P_2 C3P_2 1_555 1_555
C3P_2 O1P_2 1_555 1_555
C4P_2 C7P_2 1_555 1_555
C5P_2 C2P_2 1_555 1_555
C6P_2 C1P_2 1_555 1_555
O1P_2 Mn1I_2 1_555 1_555
C7P_2 C2P_2 1_555 1_555
C8P_2 C4P_2 1_555 1_555
H1P_2 C8P_2 1_555 1_555
H2P_2 C8P_2 1_555 1_555
H3P_2 C8P_2 1_555 1_555
C9P_2 C6P_2 1_555 1_555
H4P_2 C9P_2 1_555 1_555
H5P_2 C9P_2 1_555 1_555
H6P_2 C9P_2 1_555 1_555
C10P_2 C5P_2 1_555 1_555
H7P_2 C10P_2 1_555 1_555
H8P_2 C10P_2 1_555 1_555
H9P_2 C10P_2 1_555 1_555
C11P_2 C7P_2 1_555 1_555
H10P_2 C11P_2 1_555 1_555
H11P_2 C11P_2 1_555 1_555
H12P_2 C11P_2 1_555 1_555
O2P_2 C3P_2 1_555 1_555
C1W_2 B1N_2 1_555 1_555
C2W_2 C3W_2 1_555 1_555
C3W_2 O1W_2 1_555 1_555
C4W_2 C1W_2 1_555 1_555
C5W_2 C2W_2 1_555 1_555
C6W_2 C1W_2 1_555 1_555
O1W_2 Mn1E_3 1_555 1_555
C7W_2 C2W_2 1_555 1_555
C8W_2 C4W_2 1_555 1_555
H1W_2 C8W_2 1_555 1_555
H2W_2 C8W_2 1_555 1_555
H3W_2 C8W_2 1_555 1_555
C9W_2 C6W_2 1_555 1_555
H4W_2 C9W_2 1_555 1_555
H5W_2 C9W_2 1_555 1_555
H6W_2 C9W_2 1_555 1_555
C10W_2 C5W_2 1_555 1_555
H7W_2 C10W_2 1_555 1_555
H8W_2 C10W_2 1_555 1_555
H9W_2 C10W_2 1_555 1_555
C11W_2 C7W_2 1_555 1_555
H10W_2 C11W_2 1_555 1_555
H11W_2 C11W_2 1_555 1_555
H12W_2 C11W_2 1_555 1_555
O2W_2 C3W_2 1_555 1_555
C1O B1O 1_555 1_555
C2O C3O 1_555 1_555
B1O C1R 1_555 1_555
C3O O1O 1_555 1_555
C4O C1O 1_555 1_555
C5O C2O 1_555 1_555
C6O C1O 1_555 1_555
O1O Mn1A 1_555 1_555
C7O C2O 1_555 1_555
C8O C4O 1_555 1_555
H1O C8O 1_555 1_555
H2O C8O 1_555 1_555
H3O C8O 1_555 1_555
C9O C6O 1_555 1_555
H4O C9O 1_555 1_555
H5O C9O 1_555 1_555
H6O C9O 1_555 1_555
C10O C5O 1_555 1_555
H7O C10O 1_555 1_555
H8O C10O 1_555 1_555
H9O C10O 1_555 1_555
C11O C7O 1_555 1_555
H10O C11O 1_555 1_555
H11O C11O 1_555 1_555
H12O C11O 1_555 1_555
O2O Mn1L 1_555 1_555
C1R C4R 1_555 1_555
C2R C3R 1_555 1_555
C3R O1R 1_555 1_555
C4R C7R 1_555 1_555
C5R C2R 1_555 1_555
C6R C1R 1_555 1_555
O1R Mn1I_2 1_555 1_555
C7R C2R 1_555 1_555
C8R C4R 1_555 1_555
H1R C8R 1_555 1_555
H2R C8R 1_555 1_555
H3R C8R 1_555 1_555
C9R C6R 1_555 1_555
H4R C9R 1_555 1_555
H5R C9R 1_555 1_555
H6R C9R 1_555 1_555
C10R C5R 1_555 1_555
H7R C10R 1_555 1_555
H8R C10R 1_555 1_555
H9R C10R 1_555 1_555
C11R C7R 1_555 1_555
H10R C11R 1_555 1_555
H11R C11R 1_555 1_555
H12R C11R 1_555 1_555
O2R C3R 1_555 1_555
C1T B1O 1_555 1_555
C2T C3T 1_555 1_555
C3T O1T 1_555 1_555
C4T C1T 1_555 1_555
C5T C2T 1_555 1_555
C6T C1T 1_555 1_555
O1T Mn1D_2 1_555 1_555
C7T C2T 1_555 1_555
C8T C4T 1_555 1_555
H1T C8T 1_555 1_555
H2T C8T 1_555 1_555
H3T C8T 1_555 1_555
C9T C6T 1_555 1_555
H4T C9T 1_555 1_555
H5T C9T 1_555 1_555
H6T C9T 1_555 1_555
C10T C5T 1_555 1_555
H7T C10T 1_555 1_555
H8T C10T 1_555 1_555
H9T C10T 1_555 1_555
C11T C7T 1_555 1_555
H10T C11T 1_555 1_555
H11T C11T 1_555 1_555
H12T C11T 1_555 1_555
O2T C3T 1_555 1_555
Mn1P O2P 1_555 1_555
Mn1P_2 O2S_2 1_555 1_555
Mn1_2 Cl1_2 1_555 1_555
Mn1A_2 O2B 1_555 1_555
Mn1D_2 Cl1D 1_555 1_555
Mn1E_2 Cl1D_2 1_555 1_555
Mn1M_2 O2N_2 1_555 1_555
Mn1P_3 O2S 1_555 1_555
Mn1Q Cl1H 1_555 1_555
Mn1Q_2 O2R 1_555 1_555
Mn1T Cl1D 1_555 1_555
Mn1T_2 Cl1D_2 1_555 1_555
Mn1T_3 O2W_2 1_555 1_555
Mn1U Cl1D 1_555 1_555
Mn1U_2 O2V 1_555 1_555
Mn1U_3 Cl1D_2 1_555 1_555
O1_2 Mn1L_2 1_555 1_555
O1B_2 Mn1L 1_555 1_555
O1C Mn1M 1_555 1_555
O1H Mn1P 1_555 1_555
O1H_2 Mn1P_2 1_555 1_555
O1J_2 Mn1P 1_555 1_555
O1M Mn1A 1_555 1_555
O1Q Mn1H 1_555 1_555
O1R_2 Mn1I 1_555 1_555
O1T_2 Mn1D 1_555 1_555
O1U Mn1E 1_555 1_555
O1W_3 Mn1E 1_555 1_555
O2B_2 Mn1A 1_555 1_555
O2C Mn1 1_555 1_555
O2D_2 Mn1D 1_555 1_555
O2F Mn1E 1_555 1_555
O2H Mn1H 1_555 1_555
O2I_2 Mn1I_2 1_555 1_555
O2J_2 Mn1I 1_555 1_555
O2M Mn1M 1_555 1_555
O2O_2 Mn1L_2 1_555 1_555
O2S_3 Mn1P 1_555 1_555
Cl1_2 Mn1L_2 1_555 1_555
Cl1H Mn1I 1_555 1_555
Cl1H_2 Mn1I_2 1_555 1_555
C4 C7 1_555 1_555
C5 C6 1_555 1_555
C5G C6G 1_555 1_555
C4J C7J 1_555 1_555
C5J C6J 1_555 1_555
C3A O2A 1_555 1_555
C4A C7A 1_555 1_555
C5A C6A 1_555 1_555
C5E C6E 1_555 1_555
C4I C7I 1_555 1_555
C5I C6I 1_555 1_555
Mn1H Cl1H_2 1_555 1_555
C4K C7K 1_555 1_555
C5K C6K 1_555 1_555
C5B C6B 1_555 1_555
C4D C7D 1_555 1_555
C5D C6D 1_555 1_555
O2D Mn1D_2 1_555 1_555
C3L O2L 1_555 1_555
C4L C7L 1_555 1_555
C5L C6L 1_555 1_555
C5S C6S 1_555 1_555
C4V C7V 1_555 1_555
C5V C6V 1_555 1_555
C4L_2 C7L_2 1_555 1_555
C5L_2 C6L_2 1_555 1_555
C5S_2 C6S_2 1_555 1_555
C4V_2 C7V_2 1_555 1_555
C5V_2 C6V_2 1_555 1_555
O2V_2 Mn1U_3 1_555 1_555
C3N O2N 1_555 1_555
C4N C7N 1_555 1_555
C5N C6N 1_555 1_555
C5P C6P 1_555 1_555
C4W C7W 1_555 1_555
C5W C6W 1_555 1_555
O2W Mn1T_2 1_555 1_555
C4N_2 C7N_2 1_555 1_555
C5N_2 C6N_2 1_555 1_555
C5P_2 C6P_2 1_555 1_555
O2P_2 Mn1P_2 1_555 1_555
C4W_2 C7W_2 1_555 1_555
C5W_2 C6W_2 1_555 1_555
C3O O2O 1_555 1_555
C4O C7O 1_555 1_555
C5O C6O 1_555 1_555
C5R C6R 1_555 1_555
C4T C7T 1_555 1_555
C5T C6T 1_555 1_555
O2T Mn1T 1_555 1_555
Mn1P Cl1H 1_555 1_555
Mn1P_2 Cl1H_2 1_555 1_555
Mn1A_2 Cl1_2 1_555 1_555
Mn1Q_2 Cl1H_2 1_555 1_555

#END
