
#######################################################################
#
#                 Cambridge Crystallographic Data Centre
#                                CCDC 
#
#######################################################################
#
# If this CIF has been generated from an entry in the Cambridge 
# Structural Database, then it will include bibliographic, chemical, 
# crystal, experimental, refinement or atomic coordinate data resulting 
# from the CCDC's data processing and validation procedures.
#
#######################################################################

data_HUNBIB
_symmetry_cell_setting           triclinic
_symmetry_space_group_name_H-M   'P -1'
_symmetry_Int_Tables_number      2
_space_group_name_Hall           '-P 1'
loop_
_symmetry_equiv_pos_site_id
_symmetry_equiv_pos_as_xyz
1 x,y,z
2 -x,-y,-z
_cell_length_a                   11.1066(2)
_cell_length_b                   12.9842(1)
_cell_length_c                   13.4294(1)
_cell_angle_alpha                117.345(1)
_cell_angle_beta                 93.688(1)
_cell_angle_gamma                93.879(1)
_cell_volume                     1706.34
loop_
_atom_site_label
_atom_site_type_symbol
_atom_site_fract_x
_atom_site_fract_y
_atom_site_fract_z
N1 N 0.3770(7) 1.1531(7) 0.9090(6)
C5 C 0.4894(6) 1.1384(5) 0.9671(5)
C6 C 0.5824(6) 1.2464(5) 1.0115(5)
N2 N 0.5292(6) 1.3562(6) 1.0798(6)
C7 C 0.4215(8) 1.3678(8) 1.0165(8)
C8 C 0.3257(8) 1.2652(9) 0.9797(8)
N3 N -0.0908(8) 0.4904(7) 0.4165(7)
C9 C -0.1207(9) 0.4586(8) 0.5056(9)
C10 C 0.0132(10) 0.5813(9) 0.4538(8)
C10A C -0.0132(10) 0.4187(9) 0.5462(8)
N3A N 0.0908(8) 0.5096(7) 0.5835(7)
C9A C 0.1207(9) 0.5414(8) 0.4944(9)
N4 N -0.0510(7) 1.0003(7) 0.3999(6)
C11 C 0.0573(9) 1.0818(8) 0.4682(8)
C12 C -0.1280(8) 0.9695(8) 0.4709(8)
C12A C 0.1280(8) 1.0305(8) 0.5291(8)
N4A N 0.0510(7) 0.9997(7) 0.6001(6)
C11A C -0.0573(9) 0.9182(8) 0.5318(8)
As1 As -0.0083(1) 0.5869(1) -0.1162(1)
As2 As 0.2280(1) 0.8244(1) -0.2328(1)
As3 As 0.0699(1) 0.9195(1) 0.1053(1)
As4 As 0.2489(1) 0.3335(1) -0.2486(1)
As5 As 0.5523(1) 0.9430(1) -0.3771(1)
As6 As 0.5718(1) 0.4510(1) -0.3693(1)
Fe1 Fe -0.0544(1) 0.7980(1) -0.1771(1)
Fe2 Fe 0.4966(1) 0.2058(1) -0.3433(1)
Fe3 Fe -0.0251(1) 0.3082(1) -0.1659(1)
Fe4 Fe 0.4703(1) 0.6999(1) -0.3535(1)
O1 O -0.0180(5) 0.4422(4) -0.1932(5)
O2 O -0.0502(5) 0.6274(4) 0.0132(4)
O3 O -0.0925(5) 0.6349(5) -0.1919(4)
O4 O 0.1410(5) 0.6334(5) -0.1123(5)
O5 O 0.2672(5) 0.9332(5) -0.1050(5)
O6 O 0.0890(5) 0.7517(5) -0.2573(5)
O7 O 0.3250(5) 0.7215(5) -0.2763(5)
O8 O 0.2232(5) 0.8807(5) -0.3282(5)
O9 O -0.0061(5) 0.8472(5) -0.0209(5)
O10 O 0.0303(5) 1.0525(5) 0.1802(5)
O11 O 0.0538(5) 0.8530(5) 0.1859(5)
O12 O 0.2220(5) 0.9242(5) 0.0844(5)
O13 O 0.2847(5) 0.4660(5) -0.1433(5)
O14 O 0.1191(5) 0.2621(5) -0.2446(5)
O15 O 0.3538(3) 0.2406(5) -0.2615(5)
O16 O 0.2293(5) 0.3387(5) -0.3757(5)
O17 O 0.5829(5) 0.9029(5) -0.5087(5)
O18 O 0.5034(5) 1.0732(5) -0.3053(5)
O19 O 0.4533(5) 0.8437(5) -0.3703(5)
O20 O 0.6931(5) 0.9522(5) -0.3094(5)
O21 O 0.4818(5) 0.3481(5) -0.3624(5)
O22 O 0.5141(5) 0.5778(5) -0.3072(5)
O23 O 0.6047(5) 0.4145(5) -0.4996(4)
O24 O 0.7046(5) 0.4645(5) -0.2884(5)
O25 O -0.2284(5) 0.8344(5) -0.1321(5)
O26 O -0.1592(5) 0.7259(5) -0.3373(4)
O27 O -0.3953(5) 0.3081(5) -0.1919(5)
O28 O -0.3307(5) 0.1859(5) -0.3983(5)
O29 O -0.1997(5) 0.3423(5) -0.1189(5)
O30 O -0.1339(5) 0.2278(5) -0.3283(4)
O31 O -0.4212(5) 0.8084(5) -0.2047(4)
O32 O -0.3543(5) 0.6891(5) -0.4133(4)
C1 C -0.2814(7) 0.3013(7) -0.1990(7)
C2 C -0.2447(8) 0.2329(7) -0.3194(7)
C3 C -0.3090(7) 0.7975(7) -0.2130(7)
C4 C -0.2714(8) 0.7329(7) -0.3317(7)
As3A As -0.0699(1) 1.0805(1) -0.1053(1)
O9A O 0.0061(5) 1.1528(5) 0.0209(5)
O10A O -0.0303(5) 0.9475(5) -0.1802(5)
O11A O -0.0538(5) 1.1470(5) -0.1859(5)
O12A O -0.2220(5) 1.0758(5) -0.0844(5)
Fe1A Fe 0.0544(1) 1.2020(1) 0.1771(1)
Fe3A Fe 0.0251(1) 0.6918(1) 0.1659(1)
Fe4_2 Fe -0.5297(1) 0.6999(1) -0.3535(1)
As1A As 0.0083(1) 0.4131(1) 0.1162(1)
O1A O 0.0180(5) 0.5578(4) 0.1932(5)
O2A O 0.0502(5) 0.3726(4) -0.0132(4)
O3A O 0.0925(5) 0.3651(5) 0.1919(4)
O4A O -0.1410(5) 0.3666(5) 0.1123(5)
As6A As 0.4282(1) 0.5490(1) -0.6307(1)
O21A O 0.5182(5) 0.6519(5) -0.6376(5)
O22A O 0.4859(5) 0.4222(5) -0.6928(5)
O23A O 0.3953(5) 0.5855(5) -0.5004(4)
O24A O 0.2954(5) 0.5355(5) -0.7116(5)
O25_2 O 0.7716(5) 0.8344(5) -0.1321(5)
O26_2 O 0.8408(5) 0.7259(5) -0.3373(4)
O31_2 O 0.5788(5) 0.8084(5) -0.2047(4)
O32_2 O 0.6457(5) 0.6891(5) -0.4133(4)
C3_2 C 0.6910(7) 0.7975(7) -0.2130(7)
C4_2 C 0.7286(8) 0.7329(7) -0.3317(7)
As2A As -0.2280(1) 1.1756(1) 0.2328(1)
O5A O -0.2672(5) 1.0668(5) 0.1050(5)
O6A O -0.0890(5) 1.2483(5) 0.2573(5)
O7A O -0.3250(5) 1.2785(5) 0.2763(5)
O8A O -0.2232(5) 1.1193(5) 0.3282(5)
As4A As -0.2489(1) 0.6665(1) 0.2486(1)
O13A O -0.2847(5) 0.5340(5) 0.1433(5)
O14A O -0.1191(5) 0.7379(5) 0.2446(5)
O15A O -0.3538(3) 0.7594(5) 0.2615(5)
O16A O -0.2293(5) 0.6613(5) 0.3757(5)
O27A O 0.3953(5) 0.6919(5) 0.1919(5)
O28A O 0.3307(5) 0.8141(5) 0.3983(5)
O29A O 0.1997(5) 0.6577(5) 0.1189(5)
O30A O 0.1339(5) 0.7722(5) 0.3283(4)
C1A C 0.2814(7) 0.6987(7) 0.1990(7)
C2A C 0.2447(8) 0.7671(7) 0.3194(7)
As5_2 As -0.4477(1) 0.9430(1) -0.3771(1)
O17_2 O -0.4171(5) 0.9029(5) -0.5087(5)
O18_2 O -0.4966(5) 1.0732(5) -0.3053(5)
O19_2 O -0.5467(5) 0.8437(5) -0.3703(5)
O20_2 O -0.3069(5) 0.9522(5) -0.3094(5)
Fe2A Fe -0.4966(1) 0.7942(1) 0.3433(1)
O17A O 0.4171(5) 0.0971(5) -0.4913(5)
O18_3 O 0.5034(5) 0.0732(5) -0.3053(5)
O27_2 O 0.6047(5) 0.3081(5) -0.1919(5)
O28_2 O 0.6693(5) 0.1859(5) -0.3983(5)
O11A_2 O -0.0538(5) 0.1470(5) -0.1859(5)
Fe2A_2 Fe 0.5034(1) 0.7942(1) -0.6567(1)
Fe2_2 Fe 0.4966(1) 1.2058(1) -0.3433(1)
Fe4A Fe 0.5297(1) 0.3001(1) -0.6465(1)
Fe2_3 Fe -0.5034(1) 0.2058(1) -0.3433(1)
Fe3_2 Fe -0.0251(1) 1.3082(1) -0.1659(1)
O3A_2 O 0.0925(5) 1.3651(5) 0.1919(4)
O25A O 0.2284(5) 1.1656(5) 0.1321(5)
O26A O 0.1592(5) 1.2741(5) 0.3373(4)
O7_2 O -0.6750(5) 0.7215(5) -0.2763(5)
O22_2 O -0.4859(5) 0.5778(5) -0.3072(5)
O23A_2 O -0.6047(5) 0.5855(5) -0.5004(4)
Fe1A_2 Fe 0.0544(1) 0.2020(1) 0.1771(1)
Fe1_2 Fe 0.9456(1) 0.7980(1) -0.1771(1)
Fe4A_2 Fe -0.4703(1) 1.3001(1) 0.3535(1)
Fe2A_3 Fe 0.5034(1) 0.7942(1) 0.3433(1)
Fe2A_4 Fe -0.4966(1) 0.7942(1) -0.6567(1)
Fe2_4 Fe -0.5034(1) 1.2058(1) -0.3433(1)
O17_3 O -0.4171(5) 0.9029(5) 0.4913(5)
O18A O -0.5034(5) 0.9268(5) 0.3053(5)
O21A_2 O -0.4818(5) 0.6519(5) 0.3624(5)
O27A_2 O -0.6047(5) 0.6919(5) 0.1919(5)
O28A_2 O -0.6693(5) 0.8141(5) 0.3983(5)
loop_
_geom_bond_atom_site_label_1
_geom_bond_atom_site_label_2
_geom_bond_site_symmetry_1
_geom_bond_site_symmetry_2
As1 O1 1_555 1_555
As2 O5 1_555 1_555
As3 O9 1_555 1_555
As4 O13 1_555 1_555
As5 O17 1_555 1_555
As6 O21 1_555 1_555
Fe1 O3 1_555 1_555
Fe2 O15 1_555 1_555
Fe3 O1 1_555 1_555
Fe4 O7 1_555 1_555
O2 As1 1_555 1_555
O3 As1 1_555 1_555
O4 As1 1_555 1_555
O6 As2 1_555 1_555
O7 As2 1_555 1_555
O8 As2 1_555 1_555
O9 Fe1 1_555 1_555
O10 As3 1_555 1_555
O11 As3 1_555 1_555
O12 As3 1_555 1_555
O14 As4 1_555 1_555
O15 As4 1_555 1_555
O16 As4 1_555 1_555
O17 Fe2A_2 1_555 1_555
O18 As5 1_555 1_555
O19 As5 1_555 1_555
O20 As5 1_555 1_555
O21 Fe2 1_555 1_555
O22 As6 1_555 1_555
O23 As6 1_555 1_555
O24 As6 1_555 1_555
O25 Fe1 1_555 1_555
O26 Fe1 1_555 1_555
O27 C1 1_555 1_555
O28 C2 1_555 1_555
O29 Fe3 1_555 1_555
O30 Fe3 1_555 1_555
O31 C3 1_555 1_555
O32 C4 1_555 1_555
C1 O29 1_555 1_555
C2 O30 1_555 1_555
C3 O25 1_555 1_555
C4 O26 1_555 1_555
N1 C5 1_555 1_555
C5 C6 1_555 1_555
C6 N2 1_555 1_555
N2 C7 1_555 1_555
C7 C8 1_555 1_555
C8 N1 1_555 1_555
N3 C9 1_555 1_555
C9 C10A 1_555 1_555
C10 N3 1_555 1_555
N4 C11 1_555 1_555
C11 C12A 1_555 1_555
C12 N4 1_555 1_555
C10A N3A 1_555 1_555
N3A C9A 1_555 1_555
C9A C10 1_555 1_555
C12A N4A 1_555 1_555
N4A C11A 1_555 1_555
C11A C12 1_555 1_555
As3A O9A 1_555 1_555
O9A Fe1A 1_555 1_555
O10A Fe1 1_555 1_555
O11A As3A 1_555 1_555
O12A As3A 1_555 1_555
Fe1A O10 1_555 1_555
Fe3A O2 1_555 1_555
Fe4_2 O31 1_555 1_555
As1A O1A 1_555 1_555
O1A Fe3A 1_555 1_555
O2A Fe3 1_555 1_555
O3A As1A 1_555 1_555
O4A As1A 1_555 1_555
As6A O21A 1_555 1_555
O21A Fe2A_2 1_555 1_555
O22A As6A 1_555 1_555
O23A Fe4 1_555 1_555
O24A As6A 1_555 1_555
O25_2 C3_2 1_555 1_555
O26_2 C4_2 1_555 1_555
O31_2 Fe4 1_555 1_555
O32_2 Fe4 1_555 1_555
C3_2 O31_2 1_555 1_555
C4_2 O32_2 1_555 1_555
As2A O5A 1_555 1_555
O6A Fe1A 1_555 1_555
O7A As2A 1_555 1_555
O8A As2A 1_555 1_555
As4A O13A 1_555 1_555
O14A Fe3A 1_555 1_555
O15A As4A 1_555 1_555
O16A As4A 1_555 1_555
O27A C1A 1_555 1_555
O28A C2A 1_555 1_555
O29A Fe3A 1_555 1_555
O30A Fe3A 1_555 1_555
C1A O29A 1_555 1_555
C2A O30A 1_555 1_555
As5_2 O17_2 1_555 1_555
O17_2 Fe2A_4 1_555 1_555
O18_2 As5_2 1_555 1_555
O19_2 Fe4_2 1_555 1_555
O20_2 As5_2 1_555 1_555
Fe2A O15A 1_555 1_555
O17A Fe2 1_555 1_555
O18_3 Fe2 1_555 1_555
O27_2 Fe2 1_555 1_555
O28_2 Fe2 1_555 1_555
O11A_2 Fe3 1_555 1_555
Fe2_2 O18 1_555 1_555
Fe4A O23 1_555 1_555
Fe2_3 O27 1_555 1_555
Fe3_2 O11A 1_555 1_555
O3A_2 Fe1A 1_555 1_555
O25A Fe1A 1_555 1_555
O26A Fe1A 1_555 1_555
O7_2 Fe4_2 1_555 1_555
O22_2 Fe4_2 1_555 1_555
O23A_2 Fe4_2 1_555 1_555
Fe1A_2 O3A 1_555 1_555
Fe1_2 O25_2 1_555 1_555
Fe4A_2 O7A 1_555 1_555
Fe2A_3 O27A 1_555 1_555
Fe2_4 O18_2 1_555 1_555
O17_3 Fe2A 1_555 1_555
O18A Fe2A 1_555 1_555
O21A_2 Fe2A 1_555 1_555
O27A_2 Fe2A 1_555 1_555
O28A_2 Fe2A 1_555 1_555
Fe1 O6 1_555 1_555
Fe3 O14 1_555 1_555
Fe4 O19 1_555 1_555
Fe4 O22 1_555 1_555
O11 Fe3A 1_555 1_555
O28 Fe2_3 1_555 1_555
O32 Fe4_2 1_555 1_555
C1 C2 1_555 1_555
C3 C4 1_555 1_555
As3A O10A 1_555 1_555
As1A O2A 1_555 1_555
As6A O23A 1_555 1_555
O22A Fe4A 1_555 1_555
O26_2 Fe1_2 1_555 1_555
C3_2 C4_2 1_555 1_555
As2A O6A 1_555 1_555
As4A O14A 1_555 1_555
O28A Fe2A_3 1_555 1_555
C1A C2A 1_555 1_555
As5_2 O19_2 1_555 1_555

#END
