
#######################################################################
#
#                 Cambridge Crystallographic Data Centre
#                                CCDC 
#
#######################################################################
#
# If this CIF has been generated from an entry in the Cambridge 
# Structural Database, then it will include bibliographic, chemical, 
# crystal, experimental, refinement or atomic coordinate data resulting 
# from the CCDC's data processing and validation procedures.
#
#######################################################################

data_HUNBEX
_symmetry_cell_setting           triclinic
_symmetry_space_group_name_H-M   'P -1'
_symmetry_Int_Tables_number      2
_space_group_name_Hall           '-P 1'
loop_
_symmetry_equiv_pos_site_id
_symmetry_equiv_pos_as_xyz
1 x,y,z
2 -x,-y,-z
_cell_length_a                   7.9391(4)
_cell_length_b                   9.4382(5)
_cell_length_c                   15.4815(8)
_cell_angle_alpha                82.233(2)
_cell_angle_beta                 82.868(2)
_cell_angle_gamma                75.513(2)
_cell_volume                     1107.91
loop_
_atom_site_label
_atom_site_type_symbol
_atom_site_fract_x
_atom_site_fract_y
_atom_site_fract_z
Zn1 Zn 0.0806(1) 0.2534(1) 0.9142(1)
Zn2 Zn 0.4122(1) 0.2467(1) 0.5824(1)
K1 K -0.4357(2) 0.3205(2) 0.9350(1)
O1 O 0.0419(6) 0.3490(5) 0.7873(3)
O2 O -0.1361(5) 0.3971(5) 0.9720(3)
O3 O -0.2029(5) 0.5998(5) 1.0418(3)
O4 O 0.3191(6) 0.1520(5) 0.8479(3)
O5 O 0.1462(6) 0.0979(5) 1.0232(3)
O6 O 0.0879(6) -0.1116(5) 1.0910(3)
O7 O 0.2936(6) 0.1030(5) 0.5362(3)
O8 O 0.3653(6) -0.0992(5) 0.4669(3)
O9 O 0.5459(7) 0.4047(5) 0.6022(3)
O10 O 0.1775(6) 0.3506(5) 0.6518(3)
O11 O 0.6205(6) 0.6091(5) 0.5352(3)
O12 O 0.4508(6) 0.1436(5) 0.7119(3)
C1 C -0.0980(8) 0.4982(7) 1.0034(4)
C2 C 0.1698(9) 0.3065(7) 0.7312(4)
C3 C 0.0673(8) -0.0043(7) 1.0328(4)
C4 C 0.3287(9) 0.1909(7) 0.7662(4)
C5 C 0.4027(9) 0.0002(7) 0.5019(4)
C6 C 0.5484(9) 0.5043(8) 0.5394(4)
O13 O -0.5221(7) 0.1102(6) 1.0752(4)
O15 O -0.4937(8) 0.6203(6) 0.8781(4)
O16 O -0.3219(8) 0.3962(8) 0.7633(4)
C1A C 0.0980(8) 0.5018(7) 0.9966(4)
O2A O 0.1361(5) 0.6029(5) 1.0280(3)
O3A O 0.2029(5) 0.4002(5) 0.9582(3)
C3A C -0.0673(8) 0.0043(7) 0.9672(4)
O5A O -0.1462(6) -0.0979(5) 0.9768(3)
O6A O -0.0879(6) 0.1116(5) 0.9090(3)
C5A C 0.5973(9) -0.0002(7) 0.4981(4)
O7A O 0.7064(6) -0.1030(5) 0.4638(3)
O8A O 0.6347(6) 0.0992(5) 0.5331(3)
C6A C 0.4516(9) 0.4957(8) 0.4606(4)
O9A O 0.4541(7) 0.5953(5) 0.3978(3)
O11A O 0.3795(6) 0.3909(5) 0.4648(3)
Zn1A Zn -0.0806(1) 0.7466(1) 1.0858(1)
K1A K 0.4357(2) 0.6795(2) 1.0650(1)
O15A O -0.5063(8) 0.3797(6) 1.1219(4)
O1A O -0.0419(6) 0.6510(5) 1.2127(3)
O4A O -0.3191(6) 0.8480(5) 1.1521(3)
O10A O -0.1775(6) 0.6494(5) 1.3482(3)
O12A O -0.4508(6) 0.8564(5) 1.2881(3)
C2A C -0.1698(9) 0.6935(7) 1.2688(4)
C4A C -0.3287(9) 0.8091(7) 1.2338(4)
O13A O 0.5221(7) 0.8898(6) 0.9248(4)
O16A O 0.3219(8) 0.6038(8) 1.2367(4)
Zn2A Zn 0.5878(1) -0.2467(1) 0.4176(1)
O3A_2 O -0.7971(5) 0.4002(5) 0.9582(3)
K1A_2 K -0.5643(2) 0.6795(2) 1.0650(1)
Zn1A_2 Zn -0.0806(1) -0.2534(1) 1.0858(1)
K1A_3 K 0.4357(2) -0.3205(2) 1.0650(1)
Zn2A_2 Zn 0.5878(1) 0.7533(1) 0.4176(1)
K1_2 K 0.5643(2) 0.3205(2) 0.9350(1)
O5A_2 O -0.1462(6) 0.9021(5) 0.9768(3)
O6_2 O 0.0879(6) 0.8884(5) 1.0910(3)
O3_2 O 0.7971(5) 0.5998(5) 1.0418(3)
O15_2 O 0.5063(8) 0.6203(6) 0.8781(4)
O15A_2 O 0.4937(8) 0.3797(6) 1.1219(4)
Zn2A_3 Zn -0.4122(1) 0.7533(1) 1.4176(1)
O9A_2 O 0.4541(7) -0.4047(5) 0.3978(3)
O10A_2 O 0.8225(6) -0.3506(5) 0.3482(3)
O11_2 O 0.6205(6) -0.3909(5) 0.5352(3)
O12A_2 O 0.5492(6) -0.1436(5) 0.2881(3)
N1 N 1.1521(8) 0.1861(8) 0.2899(4)
N2 N 0.8327(8) 0.1955(7) 0.2909(4)
C7 C 1.1302(11) 0.0338(9) 0.2916(7)
C8 C 1.0860(10) 0.2761(10) 0.2098(5)
C9 C 1.0551(11) 0.2557(11) 0.3681(6)
C10 C 0.8620(10) 0.2592(9) 0.3671(5)
C11 C 0.9350(10) 0.0426(9) 0.2918(6)
C12 C 0.8938(11) 0.2801(10) 0.2113(5)
O14 O 0.4675(7) 0.2271(7) 0.3168(4)
loop_
_geom_bond_atom_site_label_1
_geom_bond_atom_site_label_2
_geom_bond_site_symmetry_1
_geom_bond_site_symmetry_2
Zn1 O1 1_555 1_555
Zn2 O7 1_555 1_555
K1 O2 1_555 1_555
O1 C2 1_555 1_555
O2 Zn1 1_555 1_555
O3 C1 1_555 1_555
O4 Zn1 1_555 1_555
O5 Zn1 1_555 1_555
O6 C3 1_555 1_555
O7 C5 1_555 1_555
O8 C5 1_555 1_555
O9 Zn2 1_555 1_555
O10 Zn2 1_555 1_555
O11 C6 1_555 1_555
O12 Zn2 1_555 1_555
C1 O2 1_555 1_555
C2 O10 1_555 1_555
C3 O5 1_555 1_555
C4 O4 1_555 1_555
C5 C5A 1_555 1_555
C6 O9 1_555 1_555
N1 C7 1_555 1_555
N2 C10 1_555 1_555
C7 C11 1_555 1_555
C8 N1 1_555 1_555
C9 N1 1_555 1_555
C10 C9 1_555 1_555
C11 N2 1_555 1_555
C12 N2 1_555 1_555
O13 K1 1_555 1_555
O15 K1 1_555 1_555
O16 K1 1_555 1_555
C1A C1 1_555 1_555
O2A C1A 1_555 1_555
O3A Zn1 1_555 1_555
C3A C3 1_555 1_555
O5A C3A 1_555 1_555
O6A Zn1 1_555 1_555
C5A O7A 1_555 1_555
O7A Zn2A 1_555 1_555
O8A Zn2 1_555 1_555
C6A C6 1_555 1_555
O9A C6A 1_555 1_555
O11A Zn2 1_555 1_555
Zn1A O3 1_555 1_555
K1A O2A 1_555 1_555
O15A K1 1_555 1_555
O1A Zn1A 1_555 1_555
O4A Zn1A 1_555 1_555
O10A C2A 1_555 1_555
O12A C4A 1_555 1_555
C2A O1A 1_555 1_555
C4A O4A 1_555 1_555
O13A K1A 1_555 1_555
O16A K1A 1_555 1_555
Zn2A O8 1_555 1_555
O3A_2 K1 1_555 1_555
K1A_2 O3 1_555 1_555
Zn1A_2 O6 1_555 1_555
K1A_3 O6 1_555 1_555
Zn2A_2 O11 1_555 1_555
K1_2 O3A 1_555 1_555
O5A_2 Zn1A 1_555 1_555
O6_2 Zn1A 1_555 1_555
O3_2 K1A 1_555 1_555
O15_2 K1A 1_555 1_555
O15A_2 K1A 1_555 1_555
Zn2A_3 O10A 1_555 1_555
O9A_2 Zn2A 1_555 1_555
O10A_2 Zn2A 1_555 1_555
O11_2 Zn2A 1_555 1_555
O12A_2 Zn2A 1_555 1_555
K1 O6A 1_555 1_555
O12 C4 1_555 1_555
C2 C4 1_555 1_555
C8 C12 1_555 1_555
O15 K1A_2 1_555 1_555
C1A O3A 1_555 1_555
O2A Zn1A 1_555 1_555
C3A O6A 1_555 1_555
O5A Zn1A_2 1_555 1_555
C5A O8A 1_555 1_555
C6A O11A 1_555 1_555
O9A Zn2A_2 1_555 1_555
K1A O6_2 1_555 1_555
O15A K1A_2 1_555 1_555
O12A Zn2A_3 1_555 1_555
C2A C4A 1_555 1_555
K1_2 O15_2 1_555 1_555
K1_2 O15A_2 1_555 1_555

#END
