
#######################################################################
#
#                 Cambridge Crystallographic Data Centre
#                                CCDC 
#
#######################################################################
#
# If this CIF has been generated from an entry in the Cambridge 
# Structural Database, then it will include bibliographic, chemical, 
# crystal, experimental, refinement or atomic coordinate data resulting 
# from the CCDC's data processing and validation procedures.
#
#######################################################################

data_HUNCIE
_symmetry_cell_setting           tetragonal
_symmetry_space_group_name_H-M   'I 4/m m m'
_symmetry_Int_Tables_number      139
_space_group_name_Hall           '-I 4 2'
loop_
_symmetry_equiv_pos_site_id
_symmetry_equiv_pos_as_xyz
1 x,y,z
2 -x,-y,z
3 -y,x,z
4 y,-x,z
5 -x,y,-z
6 x,-y,-z
7 y,x,-z
8 -y,-x,-z
9 1/2+x,1/2+y,1/2+z
10 1/2-x,1/2-y,1/2+z
11 1/2-y,1/2+x,1/2+z
12 1/2+y,1/2-x,1/2+z
13 1/2-x,1/2+y,1/2-z
14 1/2+x,1/2-y,1/2-z
15 1/2+y,1/2+x,1/2-z
16 1/2-y,1/2-x,1/2-z
17 -x,-y,-z
18 x,y,-z
19 y,-x,-z
20 -y,x,-z
21 x,-y,z
22 -x,y,z
23 -y,-x,z
24 y,x,z
25 1/2-x,1/2-y,1/2-z
26 1/2+x,1/2+y,1/2-z
27 1/2+y,1/2-x,1/2-z
28 1/2-y,1/2+x,1/2-z
29 1/2+x,1/2-y,1/2+z
30 1/2-x,1/2+y,1/2+z
31 1/2-y,1/2-x,1/2+z
32 1/2+y,1/2+x,1/2+z
_cell_length_a                   39.580(4)
_cell_length_b                   39.580(4)
_cell_length_c                   27.445(5)
_cell_angle_alpha                90
_cell_angle_beta                 90
_cell_angle_gamma                90
_cell_volume                     42994.7
loop_
_atom_site_label
_atom_site_type_symbol
_atom_site_fract_x
_atom_site_fract_y
_atom_site_fract_z
Cu1 Cu 0.5000 0.79278(2) 0.0000
C1 C 0.35143(9) 0.85143(9) -0.2500
H1 H 0.3680 0.8680 -0.2500
Cu2 Cu 0.5000 0.85973(2) 0.0000
O1 O 0.46540(5) 0.85475(6) -0.04989(7)
O2 O 0.46532(6) 0.79748(6) -0.04996(7)
O3 O 0.26484(16) 0.78219(17) -0.16289(19)
O4 O 0.5000 0.73748(12) 0.0000
O5 O 0.5000 0.91469(11) 0.0000
C2 C 0.45488(8) 0.82593(11) -0.06434(11)
C3 C 0.42795(8) 0.82628(10) -0.10355(11)
C4 C 0.41560(9) 0.79607(9) -0.12160(12)
H2 H 0.4238 0.7756 -0.1101
C5 C 0.39062(10) 0.79694(10) -0.15725(13)
H3 H 0.3819 0.7767 -0.1690
C6 C 0.37849(9) 0.82673(10) -0.17557(12)
C7 C 0.39148(10) 0.85663(10) -0.15749(13)
H4 H 0.3837 0.8771 -0.1699
C8 C 0.41541(9) 0.85673(9) -0.12178(12)
H5 H 0.4234 0.8771 -0.1095
C9 C 0.35207(9) 0.82673(10) -0.21398(12)
C10 C 0.32698(10) 0.80208(10) -0.21405(12)
H6 H 0.3270 0.7856 -0.1899
C11 C 0.30150(10) 0.80150(10) -0.2500
C12 C 0.27502(9) 0.77502(9) -0.2500
C13 C 0.25863(10) 0.76672(10) -0.20688(13)
C14 C 0.2450(3) 0.7731(3) -0.1204(3)
O1N O 0.35475(6) 0.96540(5) -0.45011(7)
O2N O 0.29748(6) 0.96532(6) -0.45004(7)
O3N O 0.28219(17) 0.76484(16) -0.33711(19)
C2N C 0.32593(11) 0.95488(8) -0.43566(11)
C3N C 0.32628(10) 0.92795(8) -0.39645(11)
C4N C 0.29607(9) 0.91560(9) -0.37840(12)
H2N H 0.2756 0.9238 -0.3899
C5N C 0.29694(10) 0.89062(10) -0.34275(13)
H3N H 0.2767 0.8819 -0.3310
C6N C 0.32673(10) 0.87849(9) -0.32443(12)
C7N C 0.35663(10) 0.89148(10) -0.34251(13)
H4N H 0.3771 0.8837 -0.3301
C8N C 0.35673(9) 0.91541(9) -0.37822(12)
H5N H 0.3771 0.9234 -0.3905
C9N C 0.32673(10) 0.85207(9) -0.28602(12)
C10N C 0.30208(10) 0.82698(10) -0.28595(12)
H6N H 0.2856 0.8270 -0.3101
C13N C 0.26672(10) 0.75863(10) -0.29312(13)
C14N C 0.2731(3) 0.7450(3) -0.3796(3)
C1V C 0.14857(9) 0.64857(9) -0.2500
H1V H 0.1320 0.6320 -0.2500
O1V O 0.14525(6) 0.53460(5) -0.04989(7)
O2V O 0.20252(6) 0.53468(6) -0.04996(7)
O3V O 0.21781(17) 0.73516(16) -0.16289(19)
C2V C 0.17407(11) 0.54512(8) -0.06434(11)
C3V C 0.17372(10) 0.57205(8) -0.10355(11)
C4V C 0.20393(9) 0.58440(9) -0.12160(12)
H2V H 0.2244 0.5762 -0.1101
C5V C 0.20306(10) 0.60938(10) -0.15725(13)
H3V H 0.2233 0.6181 -0.1690
C6V C 0.17327(10) 0.62151(9) -0.17557(12)
C7V C 0.14337(10) 0.60852(10) -0.15749(13)
H4V H 0.1229 0.6163 -0.1699
C8V C 0.14327(9) 0.58459(9) -0.12178(12)
H5V H 0.1229 0.5766 -0.1095
C9V C 0.17327(10) 0.64793(9) -0.21398(12)
C10V C 0.19792(10) 0.67302(10) -0.21405(12)
H6V H 0.2144 0.6730 -0.1899
C11V C 0.19850(10) 0.69850(10) -0.2500
C12V C 0.22498(9) 0.72498(9) -0.2500
C13V C 0.23328(10) 0.74137(10) -0.20688(13)
C14V C 0.2269(3) 0.7550(3) -0.1204(3)
O1X O 0.03460(5) 0.64525(6) -0.45011(7)
O2X O 0.03468(6) 0.70252(6) -0.45004(7)
O3X O 0.23516(16) 0.71781(17) -0.33711(19)
C2X C 0.04512(8) 0.67407(11) -0.43566(11)
C3X C 0.07205(8) 0.67372(10) -0.39645(11)
C4X C 0.08440(9) 0.70393(9) -0.37840(12)
H2X H 0.0762 0.7244 -0.3899
C5X C 0.10938(10) 0.70306(10) -0.34275(13)
H3X H 0.1181 0.7233 -0.3310
C6X C 0.12151(9) 0.67327(10) -0.32443(12)
C7X C 0.10852(10) 0.64337(10) -0.34251(13)
H4X H 0.1163 0.6229 -0.3301
C8X C 0.08459(9) 0.64327(9) -0.37822(12)
H5X H 0.0766 0.6229 -0.3905
C9X C 0.14793(9) 0.67327(10) -0.28602(12)
C10X C 0.17302(10) 0.69792(10) -0.28595(12)
H6X H 0.1730 0.7144 -0.3101
C13X C 0.24137(10) 0.73328(10) -0.29312(13)
C14X C 0.2550(3) 0.7269(3) -0.3796(3)
Cu1B Cu 0.20722(2) 0.5000 0.0000
Cu1I Cu 0.0000 0.70722(2) -0.5000
Cu1K Cu 0.29278(2) 1.0000 -0.5000
Cu2B Cu 0.14027(2) 0.5000 0.0000
Cu2I Cu 0.0000 0.64027(2) -0.5000
Cu2K Cu 0.35973(2) 1.0000 -0.5000
O1D O 0.53460(5) 0.85475(6) 0.04989(7)
O1Q O 0.46540(5) 0.85475(6) 0.04989(7)
O1U O 0.53460(5) 0.85475(6) -0.04989(7)
O2D O 0.53468(6) 0.79748(6) 0.04996(7)
O2Q O 0.46532(6) 0.79748(6) 0.04996(7)
O2U O 0.53468(6) 0.79748(6) -0.04996(7)
loop_
_geom_bond_atom_site_label_1
_geom_bond_atom_site_label_2
_geom_bond_site_symmetry_1
_geom_bond_site_symmetry_2
Cu1 Cu2 1_555 1_555
C1 H1 1_555 1_555
Cu2 O1 1_555 1_555
O1 C2 1_555 1_555
O2 Cu1 1_555 1_555
O3 C13 1_555 1_555
O4 Cu1 1_555 1_555
O5 Cu2 1_555 1_555
C2 O2 1_555 1_555
C3 C2 1_555 1_555
C4 C3 1_555 1_555
H2 C4 1_555 1_555
C5 C4 1_555 1_555
H3 C5 1_555 1_555
C6 C5 1_555 1_555
C7 C6 1_555 1_555
H4 C7 1_555 1_555
C8 C3 1_555 1_555
H5 C8 1_555 1_555
C9 C1 1_555 1_555
C10 C9 1_555 1_555
H6 C10 1_555 1_555
C11 C10 1_555 1_555
C12 C11 1_555 1_555
C13 C12 1_555 1_555
C14 O3 1_555 1_555
O1N C2N 1_555 1_555
O2N C2N 1_555 1_555
O3N C13N 1_555 1_555
C2N C3N 1_555 1_555
C3N C4N 1_555 1_555
C4N H2N 1_555 1_555
C5N C4N 1_555 1_555
H3N C5N 1_555 1_555
C6N C5N 1_555 1_555
C7N C6N 1_555 1_555
H4N C7N 1_555 1_555
C8N C3N 1_555 1_555
H5N C8N 1_555 1_555
C9N C1 1_555 1_555
C10N C11 1_555 1_555
H6N C10N 1_555 1_555
C13N C12 1_555 1_555
C14N O3N 1_555 1_555
C1V H1V 1_555 1_555
O1V C2V 1_555 1_555
O2V C2V 1_555 1_555
O3V C13V 1_555 1_555
C2V C3V 1_555 1_555
C3V C4V 1_555 1_555
C4V H2V 1_555 1_555
C5V C4V 1_555 1_555
H3V C5V 1_555 1_555
C6V C5V 1_555 1_555
C7V C6V 1_555 1_555
H4V C7V 1_555 1_555
C8V C3V 1_555 1_555
H5V C8V 1_555 1_555
C9V C1V 1_555 1_555
C10V C9V 1_555 1_555
H6V C10V 1_555 1_555
C11V C10V 1_555 1_555
C12V C11V 1_555 1_555
C13V C13 1_555 1_555
C14V C14 1_555 1_555
O1X C2X 1_555 1_555
O2X C2X 1_555 1_555
O3X C13X 1_555 1_555
C2X C3X 1_555 1_555
C3X C4X 1_555 1_555
C4X H2X 1_555 1_555
C5X C4X 1_555 1_555
H3X C5X 1_555 1_555
C6X C5X 1_555 1_555
C7X C6X 1_555 1_555
H4X C7X 1_555 1_555
C8X C3X 1_555 1_555
H5X C8X 1_555 1_555
C9X C1V 1_555 1_555
C10X C11V 1_555 1_555
H6X C10X 1_555 1_555
C13X C13N 1_555 1_555
C14X C14N 1_555 1_555
Cu1B O2V 1_555 1_555
Cu1I O2X 1_555 1_555
Cu1K O2N 1_555 1_555
Cu2B O1V 1_555 1_555
Cu2I O1X 1_555 1_555
Cu2K O1N 1_555 1_555
O1D Cu2 1_555 1_555
O1Q Cu2 1_555 1_555
O1U Cu2 1_555 1_555
O2D Cu1 1_555 1_555
O2Q Cu1 1_555 1_555
O2U Cu1 1_555 1_555
C6 C9 1_555 1_555
C7 C8 1_555 1_555
C6N C9N 1_555 1_555
C7N C8N 1_555 1_555
C9N C10N 1_555 1_555
O3V C14V 1_555 1_555
C6V C9V 1_555 1_555
C7V C8V 1_555 1_555
C12V C13V 1_555 1_555
C12V C13X 1_555 1_555
O3X C14X 1_555 1_555
C6X C9X 1_555 1_555
C7X C8X 1_555 1_555
C9X C10X 1_555 1_555
Cu1B Cu2B 1_555 1_555
Cu1I Cu2I 1_555 1_555
Cu1K Cu2K 1_555 1_555

#END
