
#######################################################################
#
#                 Cambridge Crystallographic Data Centre
#                                CCDC 
#
#######################################################################
#
# If this CIF has been generated from an entry in the Cambridge 
# Structural Database, then it will include bibliographic, chemical, 
# crystal, experimental, refinement or atomic coordinate data resulting 
# from the CCDC's data processing and validation procedures.
#
#######################################################################

data_HUPQIU
_symmetry_cell_setting           rhombohedral
_symmetry_space_group_name_H-M   'R -3'
_symmetry_Int_Tables_number      148
_space_group_name_Hall           '-R 3'
loop_
_symmetry_equiv_pos_site_id
_symmetry_equiv_pos_as_xyz
1 x,y,z
2 -y,x-y,z
3 -x+y,-x,z
4 2/3+x,1/3+y,1/3+z
5 2/3-y,1/3+x-y,1/3+z
6 2/3-x+y,1/3-x,1/3+z
7 1/3+x,2/3+y,2/3+z
8 1/3-y,2/3+x-y,2/3+z
9 1/3-x+y,2/3-x,2/3+z
10 -x,-y,-z
11 y,-x+y,-z
12 x-y,x,-z
13 1/3-x,2/3-y,2/3-z
14 1/3+y,2/3-x+y,2/3-z
15 1/3+x-y,2/3+x,2/3-z
16 2/3-x,1/3-y,1/3-z
17 2/3+y,1/3-x+y,1/3-z
18 2/3+x-y,1/3+x,1/3-z
_cell_length_a                   29.923(2)
_cell_length_b                   29.923(2)
_cell_length_c                   37.639(3)
_cell_angle_alpha                90
_cell_angle_beta                 90
_cell_angle_gamma                120
_cell_volume                     29186.3
loop_
_atom_site_label
_atom_site_type_symbol
_atom_site_fract_x
_atom_site_fract_y
_atom_site_fract_z
Zn3 Zn 0.63120(8) 0.26318(7) 0.31519(5)
Zn4 Zn 0.6667 0.3333 0.38412(10)
O10 O 0.6667 0.3333 0.3333
O11 O 0.7407(8) 0.2854(6) 0.3163(3)
O12 O 0.7575(5) 0.3212(6) 0.2947(3)
O13 O 0.6847(3) 0.2743(4) 0.2742(2)
O14 O 0.8996(3) 0.3456(4) 0.1165(2)
O15 O 0.9379(4) 0.3062(4) 0.0771(3)
C33 C 0.7233(4) 0.2780(5) 0.2813(3)
C34 C 0.7468(4) 0.2543(5) 0.2577(3)
C35 C 0.7248(4) 0.2346(5) 0.2270(3)
H25 H 0.6944 0.2338 0.2205
C36 C 0.7472(4) 0.2149(5) 0.2042(3)
H26 H 0.7321 0.2023 0.1822
C37 C 0.7911(4) 0.2132(5) 0.2131(3)
C38 C 0.8149(4) 0.2374(5) 0.2446(3)
H27 H 0.8456 0.2389 0.2512
C39 C 0.7943(4) 0.2587(5) 0.2657(3)
H28 H 0.8120 0.2766 0.2859
C40 C 0.8123(4) 0.1890(5) 0.1893(3)
C41 C 0.8017(4) 0.1380(5) 0.1959(3)
C42 C 0.8448(4) 0.2180(5) 0.1605(3)
C43 C 0.8563(4) 0.2687(5) 0.1538(3)
H29 H 0.8432 0.2836 0.1692
C44 C 0.8864(5) 0.2981(6) 0.1252(3)
C45 C 0.8758(5) 0.3699(6) 0.1366(4)
H30 H 0.8827 0.4013 0.1250
H31 H 0.8898 0.3775 0.1602
H32 H 0.8392 0.3468 0.1378
C46 C 0.9088(5) 0.2740(5) 0.1029(3)
C47 C 0.8979(5) 0.2264(5) 0.1089(3)
H33 H 0.9122 0.2121 0.0940
C48 C 0.9589(6) 0.2851(6) 0.0515(4)
H34 H 0.9754 0.3094 0.0325
H35 H 0.9314 0.2535 0.0419
H36 H 0.9836 0.2784 0.0630
O11O O 0.9260(8) 0.0479(6) 0.0170(3)
O12O O 0.9092(5) 0.0121(6) 0.0386(3)
O13O O 0.9820(3) 0.0590(4) 0.0591(2)
O14O O 0.7671(3) -0.0123(4) 0.2168(2)
O15O O 0.7288(4) 0.0271(4) 0.2562(3)
C33O C 0.9434(4) 0.0553(5) 0.0520(3)
C34O C 0.9199(4) 0.0790(5) 0.0756(3)
C35O C 0.9419(4) 0.0987(5) 0.1063(3)
H25O H 0.9723 0.0995 0.1128
C36O C 0.9195(4) 0.1184(5) 0.1291(3)
H26O H 0.9346 0.1310 0.1511
C37O C 0.8756(4) 0.1201(5) 0.1202(3)
C38O C 0.8518(4) 0.0959(5) 0.0887(3)
H27O H 0.8211 0.0944 0.0821
C39O C 0.8724(4) 0.0746(5) 0.0676(3)
H28O H 0.8547 0.0567 0.0474
C40O C 0.8544(4) 0.1443(5) 0.1440(3)
C41O C 0.8650(4) 0.1953(5) 0.1374(3)
C42O C 0.8219(4) 0.1153(5) 0.1728(3)
C43O C 0.8104(4) 0.0646(5) 0.1795(3)
H29O H 0.8235 0.0497 0.1641
C44O C 0.7803(5) 0.0352(6) 0.2081(3)
C45O C 0.7909(5) -0.0366(6) 0.1967(4)
H30O H 0.7840 -0.0680 0.2083
H31O H 0.7769 -0.0442 0.1731
H32O H 0.8275 -0.0135 0.1955
C46O C 0.7579(5) 0.0593(5) 0.2304(3)
C47O C 0.7688(5) 0.1069(5) 0.2244(3)
H33O H 0.7545 0.1212 0.2393
C48O C 0.7078(6) 0.0482(6) 0.2818(4)
H34O H 0.6913 0.0239 0.3008
H35O H 0.7353 0.0798 0.2914
H36O H 0.6831 0.0549 0.2703
Zn3A Zn 0.73682(7) 0.36802(11) 0.31519(5)
O11A O 0.7146(6) 0.4553(10) 0.3163(3)
O12A O 0.6788(6) 0.4363(8) 0.2947(3)
O13A O 0.7257(4) 0.4104(5) 0.2742(2)
O14A O 0.6544(4) 0.5540(5) 0.1165(2)
O15A O 0.6938(4) 0.6317(6) 0.0771(3)
C33A C 0.7220(5) 0.4453(6) 0.2813(3)
C34A C 0.7457(5) 0.4925(6) 0.2577(3)
C35A C 0.7654(5) 0.4902(6) 0.2270(3)
H25A H 0.7662 0.4606 0.2205
C36A C 0.7851(5) 0.5323(6) 0.2042(3)
H26A H 0.7977 0.5298 0.1822
C37A C 0.7868(5) 0.5779(6) 0.2131(3)
C38A C 0.7626(5) 0.5775(6) 0.2446(3)
H27A H 0.7611 0.6067 0.2512
C39A C 0.7413(5) 0.5356(6) 0.2657(3)
H28A H 0.7234 0.5354 0.2859
C40A C 0.8110(5) 0.6233(6) 0.1893(3)
C41A C 0.8620(5) 0.6637(6) 0.1959(3)
C42A C 0.7820(5) 0.6268(6) 0.1605(3)
C43A C 0.7313(5) 0.5876(6) 0.1538(3)
H29A H 0.7164 0.5596 0.1692
C44A C 0.7019(6) 0.5883(8) 0.1252(3)
C45A C 0.6301(6) 0.5059(8) 0.1366(4)
H30A H 0.5987 0.4814 0.1250
H31A H 0.6225 0.5123 0.1602
H32A H 0.6532 0.4924 0.1378
C46A C 0.7260(5) 0.6348(7) 0.1029(3)
C47A C 0.7736(5) 0.6715(7) 0.1089(3)
H33A H 0.7879 0.7001 0.0940
C48A C 0.7149(6) 0.6738(8) 0.0515(4)
H34A H 0.6906 0.6660 0.0325
H35A H 0.7465 0.6779 0.0419
H36A H 0.7216 0.7052 0.0630
O11P O 0.9521(6) 0.8780(10) 0.0170(3)
O12P O 0.9879(6) 0.8970(8) 0.0386(3)
O13P O 0.9410(4) 0.9229(5) 0.0591(2)
O14P O 1.0123(4) 0.7793(5) 0.2168(2)
O15P O 0.9729(4) 0.7016(6) 0.2562(3)
C33P C 0.9447(5) 0.8880(6) 0.0520(3)
C34P C 0.9210(5) 0.8408(6) 0.0756(3)
C35P C 0.9013(5) 0.8431(6) 0.1063(3)
H25P H 0.9005 0.8727 0.1128
C36P C 0.8816(5) 0.8010(6) 0.1291(3)
H26P H 0.8690 0.8035 0.1511
C37P C 0.8799(5) 0.7554(6) 0.1202(3)
C38P C 0.9041(5) 0.7558(6) 0.0887(3)
H27P H 0.9056 0.7266 0.0821
C39P C 0.9254(5) 0.7977(6) 0.0676(3)
H28P H 0.9433 0.7979 0.0474
C40P C 0.8557(5) 0.7100(6) 0.1440(3)
C41P C 0.8047(5) 0.6696(6) 0.1374(3)
C42P C 0.8847(5) 0.7065(6) 0.1728(3)
C43P C 0.9354(5) 0.7457(6) 0.1795(3)
H29P H 0.9503 0.7737 0.1641
C44P C 0.9648(6) 0.7450(8) 0.2081(3)
C45P C 1.0366(6) 0.8274(8) 0.1967(4)
H30P H 1.0680 0.8519 0.2083
H31P H 1.0442 0.8210 0.1731
H32P H 1.0135 0.8409 0.1955
C46P C 0.9407(5) 0.6985(7) 0.2304(3)
C47P C 0.8931(5) 0.6618(7) 0.2244(3)
H33P H 0.8788 0.6332 0.2393
C48P C 0.9518(6) 0.6595(8) 0.2818(4)
H34P H 0.9761 0.6673 0.3008
H35P H 0.9202 0.6554 0.2914
H36P H 0.9451 0.6281 0.2703
Zn3B Zn 0.63198(11) 0.36880(8) 0.31519(5)
O11B O 0.5447(10) 0.2593(8) 0.3163(3)
O12B O 0.5637(8) 0.2425(5) 0.2947(3)
O13B O 0.5896(5) 0.3153(3) 0.2742(2)
O14B O 0.4460(5) 0.1004(3) 0.1165(2)
O15B O 0.3683(6) 0.0621(4) 0.0771(3)
C33B C 0.5547(6) 0.2767(4) 0.2813(3)
C34B C 0.5075(6) 0.2532(4) 0.2577(3)
C35B C 0.5098(6) 0.2752(4) 0.2270(3)
H25B H 0.5394 0.3056 0.2205
C36B C 0.4677(6) 0.2528(4) 0.2042(3)
H26B H 0.4702 0.2679 0.1822
C37B C 0.4221(6) 0.2089(4) 0.2131(3)
C38B C 0.4225(6) 0.1851(4) 0.2446(3)
H27B H 0.3933 0.1544 0.2512
C39B C 0.4644(6) 0.2057(4) 0.2657(3)
H28B H 0.4646 0.1880 0.2859
C40B C 0.3767(6) 0.1877(4) 0.1893(3)
C41B C 0.3363(6) 0.1983(4) 0.1959(3)
C42B C 0.3732(6) 0.1552(4) 0.1605(3)
C43B C 0.4124(6) 0.1437(4) 0.1538(3)
H29B H 0.4404 0.1568 0.1692
C44B C 0.4117(8) 0.1136(5) 0.1252(3)
C45B C 0.4941(8) 0.1242(5) 0.1366(4)
H30B H 0.5186 0.1173 0.1250
H31B H 0.4877 0.1102 0.1602
H32B H 0.5076 0.1608 0.1378
C46B C 0.3652(7) 0.0912(5) 0.1029(3)
C47B C 0.3285(7) 0.1021(5) 0.1089(3)
H33B H 0.2999 0.0878 0.0940
C48B C 0.3262(8) 0.0411(6) 0.0515(4)
H34B H 0.3340 0.0246 0.0325
H35B H 0.3221 0.0686 0.0419
H36B H 0.2948 0.0164 0.0630
O11Q O 0.1220(10) 0.0740(8) 0.0170(3)
O12Q O 0.1030(8) 0.0908(5) 0.0386(3)
O13Q O 0.0771(5) 0.0180(3) 0.0591(2)
O14Q O 0.2207(5) 0.2329(3) 0.2168(2)
O15Q O 0.2984(6) 0.2712(4) 0.2562(3)
C33Q C 0.1120(6) 0.0566(4) 0.0520(3)
C34Q C 0.1592(6) 0.0801(4) 0.0756(3)
C35Q C 0.1569(6) 0.0581(4) 0.1063(3)
H25Q H 0.1273 0.0277 0.1128
C36Q C 0.1990(6) 0.0805(4) 0.1291(3)
H26Q H 0.1965 0.0654 0.1511
C37Q C 0.2446(6) 0.1244(4) 0.1202(3)
C38Q C 0.2442(6) 0.1482(4) 0.0887(3)
H27Q H 0.2734 0.1789 0.0821
C39Q C 0.2023(6) 0.1276(4) 0.0676(3)
H28Q H 0.2021 0.1453 0.0474
C40Q C 0.2900(6) 0.1456(4) 0.1440(3)
C41Q C 0.3304(6) 0.1350(4) 0.1374(3)
C42Q C 0.2935(6) 0.1781(4) 0.1728(3)
C43Q C 0.2543(6) 0.1896(4) 0.1795(3)
H29Q H 0.2263 0.1765 0.1641
C44Q C 0.2550(8) 0.2197(5) 0.2081(3)
C45Q C 0.1726(8) 0.2091(5) 0.1967(4)
H30Q H 0.1481 0.2160 0.2083
H31Q H 0.1790 0.2231 0.1731
H32Q H 0.1591 0.1725 0.1955
C46Q C 0.3015(7) 0.2421(5) 0.2304(3)
C47Q C 0.3382(7) 0.2312(5) 0.2244(3)
H33Q H 0.3668 0.2455 0.2393
C48Q C 0.3405(8) 0.2922(6) 0.2818(4)
H34Q H 0.3327 0.3087 0.3008
H35Q H 0.3446 0.2647 0.2914
H36Q H 0.3719 0.3169 0.2703
Zn3O Zn 1.03547(8) 0.07015(7) 0.01814(5)
Zn3P Zn 0.92985(7) -0.03469(11) 0.01814(5)
Zn3Q Zn 0.03469(11) -0.03547(8) 0.01814(5)
Zn4L Zn 0.6666 0.3334 0.28255(10)
Zn3F Zn -0.03547(8) -0.07015(7) -0.01814(5)
Zn3F_2 Zn 0.96453(8) -0.07015(7) -0.01814(5)
Zn3F_3 Zn 0.96453(8) 0.92985(7) -0.01814(5)
Zn3G Zn 0.07015(7) 0.03469(11) -0.01814(5)
Zn3G_2 Zn 1.07015(7) 0.03469(11) -0.01814(5)
Zn3H Zn 0.96531(11) 0.03547(8) -0.01814(5)
Zn3O_2 Zn 0.03547(8) 0.07015(7) 0.01814(5)
Zn3P_2 Zn 0.92985(7) 0.96531(11) 0.01814(5)
Zn3Q_2 Zn 1.03469(11) 0.96453(8) 0.01814(5)
Zn3L Zn 0.70213(8) 0.40349(7) 0.35148(5)
Zn3M Zn 0.59651(7) 0.29865(11) 0.35148(5)
Zn3N Zn 0.70135(11) 0.29787(8) 0.35148(5)
Zn4F Zn 0.0000 -0.0000 0.05079(10)
Zn4F_2 Zn 1.0000 -0.0000 0.05079(10)
Zn4F_3 Zn 1.0000 1.0000 0.05079(10)
O10F O 0.0000 -0.0000 -0.0000
O10F_2 O 1.0000 -0.0000 -0.0000
O11F O 0.0740(8) -0.0479(6) -0.0170(3)
O11G O 1.0479(6) 0.1220(10) -0.0170(3)
O11H O 0.8780(10) -0.0740(8) -0.0170(3)
O11P_2 O -0.0479(6) -0.1220(10) 0.0170(3)
O11Q_2 O 1.1220(10) 0.0740(8) 0.0170(3)
O11L O 0.5926(8) 0.3813(6) 0.3504(3)
O11M O 0.6187(6) 0.2114(10) 0.3504(3)
O11N O 0.7886(10) 0.4074(8) 0.3504(3)
O12P_2 O -0.0121(6) -0.1030(8) 0.0386(3)
O12Q_2 O 1.1030(8) 0.0908(5) 0.0386(3)
O13P_2 O 0.9410(4) -0.0771(5) 0.0591(2)
O13L O 0.6486(3) 0.3924(4) 0.3925(2)
O13M O 0.6076(4) 0.2563(5) 0.3925(2)
O13N O 0.7437(5) 0.3514(3) 0.3925(2)
Zn1 Zn 0.6667 0.3333 0.06647(7)
Zn2 Zn 0.70073(5) 0.29788(5) 0.13782(3)
O1 O 0.7498(3) 0.3393(3) 0.17434(18)
O2 O 1.2094(4) 0.5948(3) 0.4375(2)
O3 O 0.7673(3) 0.4181(4) 0.15951(18)
O4 O 0.6667 0.3333 0.1190(3)
O5 O 1.2631(4) 0.6345(8) 0.3906(3)
O6 O 1.0276(5) 0.3855(5) 0.2026(4)
O7 O 1.1024(5) 0.4157(5) 0.2465(4)
O8 O 0.8899(3) 0.5678(3) 0.3384(2)
O9 O 0.9729(4) 0.6121(4) 0.3740(2)
C1 C 0.7776(4) 0.3892(4) 0.1748(3)
C2 C 0.8239(4) 0.4106(4) 0.1994(3)
C3 C 0.8313(4) 0.3801(4) 0.2236(3)
H1 H 0.8081 0.3448 0.2243
C4 C 0.8720(4) 0.4010(4) 0.2464(3)
H2 H 0.8746 0.3804 0.2638
C5 C 0.9094(4) 0.4522(4) 0.2441(3)
C6 C 0.9029(4) 0.4820(4) 0.2189(3)
H3 H 0.9279 0.5167 0.2168
C7 C 0.8626(4) 0.4631(4) 0.1976(3)
H4 H 0.8596 0.4847 0.1812
C8 C 0.9531(5) 0.4737(5) 0.2678(3)
C9 C 0.9943(5) 0.4610(5) 0.2623(4)
C10 C 0.9900(5) 0.4282(6) 0.2340(4)
H5 H 0.9614 0.4146 0.2191
C11 C 1.0296(7) 0.4158(7) 0.2284(5)
C12 C 0.9857(7) 0.3664(7) 0.1767(5)
H6 H 0.9918 0.3478 0.1584
H7 H 0.9842 0.3949 0.1665
H8 H 0.9536 0.3438 0.1884
C13 C 1.0698(7) 0.4315(7) 0.2523(5)
C14 C 1.1467(7) 0.4336(8) 0.2705(6)
H9 H 1.1653 0.4161 0.2651
H10 H 1.1347 0.4264 0.2946
H11 H 1.1690 0.4701 0.2676
C15 C 1.0743(6) 0.4663(6) 0.2812(4)
H12 H 1.1011 0.4776 0.2975
C16 C 1.0387(5) 0.4820(6) 0.2840(4)
C17 C 1.0419(5) 0.5164(5) 0.3123(3)
C18 C 1.0030(5) 0.5289(5) 0.3166(3)
C19 C 1.0095(5) 0.5671(4) 0.3446(3)
H13 H 1.0392 0.5831 0.3584
C20 C 0.9707(5) 0.5775(5) 0.3491(3)
C21 C 1.0174(5) 0.6387(5) 0.3952(4)
H14 H 1.0469 0.6582 0.3803
H15 H 1.0222 0.6145 0.4090
H16 H 1.0133 0.6618 0.4109
C22 C 0.9254(5) 0.5545(4) 0.3287(3)
C23 C 0.8429(5) 0.5454(4) 0.3203(3)
H17 H 0.8482 0.5394 0.2960
H18 H 0.8291 0.5683 0.3210
H19 H 0.8191 0.5133 0.3314
C24 C 0.9193(4) 0.5200(4) 0.3029(3)
H20 H 0.8889 0.5039 0.2899
C25 C 0.9595(5) 0.5082(5) 0.2956(3)
C26 C 1.0873(5) 0.5377(6) 0.3359(3)
C27 C 1.0835(5) 0.5247(6) 0.3706(3)
H21 H 1.0511 0.5014 0.3796
C28 C 1.1242(5) 0.5436(6) 0.3931(4)
H22 H 1.1198 0.5318 0.4164
C29 C 1.1725(5) 0.5809(6) 0.3811(4)
C30 C 1.2185(5) 0.6061(6) 0.4054(4)
C31 C 1.1778(5) 0.5964(6) 0.3466(4)
H23 H 1.2099 0.6216 0.3381
C32 C 1.1364(5) 0.5750(6) 0.3244(4)
H24 H 1.1409 0.5856 0.3008
Zn2A Zn 0.70212(5) 0.40285(7) 0.13782(3)
O1A O 0.6607(3) 0.4105(4) 0.17434(18)
O2A O 0.4052(3) 0.6146(5) 0.4375(2)
O3A O 0.5819(4) 0.3492(5) 0.15951(18)
O5A O 0.3655(8) 0.6286(9) 0.3906(3)
O6A O 0.6145(5) 0.6421(7) 0.2026(4)
O7A O 0.5843(5) 0.6867(7) 0.2465(4)
O8A O 0.4322(3) 0.3221(4) 0.3384(2)
O9A O 0.3879(4) 0.3608(6) 0.3740(2)
C1A C 0.6108(4) 0.3884(6) 0.1748(3)
C2A C 0.5894(4) 0.4133(6) 0.1994(3)
C3A C 0.6199(4) 0.4512(6) 0.2236(3)
H1A H 0.6552 0.4633 0.2243
C4A C 0.5990(4) 0.4710(6) 0.2464(3)
H2A H 0.6196 0.4942 0.2638
C5A C 0.5478(4) 0.4572(6) 0.2441(3)
C6A C 0.5180(4) 0.4209(6) 0.2189(3)
H3A H 0.4833 0.4112 0.2168
C7A C 0.5369(4) 0.3995(6) 0.1976(3)
H4A H 0.5153 0.3749 0.1812
C8A C 0.5263(5) 0.4794(7) 0.2678(3)
C9A C 0.5390(5) 0.5333(7) 0.2623(4)
C10A C 0.5718(6) 0.5618(8) 0.2340(4)
H5A H 0.5854 0.5468 0.2191
C11A C 0.5842(7) 0.6138(10) 0.2284(5)
C12A C 0.6336(7) 0.6193(10) 0.1767(5)
H6A H 0.6522 0.6440 0.1584
H7A H 0.6051 0.5893 0.1665
H8A H 0.6562 0.6098 0.1884
C13A C 0.5685(7) 0.6383(10) 0.2523(5)
C14A C 0.5664(8) 0.7131(11) 0.2705(6)
H9A H 0.5839 0.7492 0.2651
H10A H 0.5736 0.7083 0.2946
H11A H 0.5299 0.6989 0.2676
C15A C 0.5337(6) 0.6080(8) 0.2812(4)
H12A H 0.5224 0.6235 0.2975
C16A C 0.5180(6) 0.5567(8) 0.2840(4)
C17A C 0.4836(5) 0.5255(7) 0.3123(3)
C18A C 0.4711(5) 0.4741(7) 0.3166(3)
C19A C 0.4329(4) 0.4424(6) 0.3446(3)
H13A H 0.4169 0.4561 0.3584
C20A C 0.4225(5) 0.3932(7) 0.3491(3)
C21A C 0.3613(5) 0.3787(7) 0.3952(4)
H14A H 0.3418 0.3887 0.3803
H15A H 0.3855 0.4077 0.4090
H16A H 0.3382 0.3515 0.4109
C22A C 0.4455(4) 0.3709(6) 0.3287(3)
C23A C 0.4546(4) 0.2975(6) 0.3203(3)
H17A H 0.4606 0.3088 0.2960
H18A H 0.4317 0.2608 0.3210
H19A H 0.4867 0.3058 0.3314
C24A C 0.4800(4) 0.3993(6) 0.3029(3)
H20A H 0.4961 0.3850 0.2899
C25A C 0.4918(5) 0.4513(7) 0.2956(3)
C26A C 0.4623(6) 0.5496(8) 0.3359(3)
C27A C 0.4753(6) 0.5588(8) 0.3706(3)
H21A H 0.4986 0.5497 0.3796
C28A C 0.4564(6) 0.5806(8) 0.3931(4)
H22A H 0.4682 0.5880 0.4164
C29A C 0.4191(6) 0.5916(8) 0.3811(4)
C30A C 0.3939(6) 0.6124(8) 0.4054(4)
C31A C 0.4036(6) 0.5814(8) 0.3466(4)
H23A H 0.3784 0.5883 0.3381
C32A C 0.4250(6) 0.5614(8) 0.3244(4)
H24A H 0.4144 0.5553 0.3008
Zn2B Zn 0.59715(7) 0.29927(5) 0.13782(3)
O1B O 0.5895(4) 0.2502(3) 0.17434(18)
O2B O 0.3854(5) -0.2094(4) 0.4375(2)
O3B O 0.6508(5) 0.2327(3) 0.15951(18)
O5B O 0.3714(9) -0.2631(4) 0.3906(3)
O6B O 0.3579(7) -0.0276(5) 0.2026(4)
O7B O 0.3133(7) -0.1024(5) 0.2465(4)
O8B O 0.6779(4) 0.1101(3) 0.3384(2)
O9B O 0.6392(6) 0.0271(4) 0.3740(2)
C1B C 0.6116(6) 0.2224(4) 0.1748(3)
C2B C 0.5867(6) 0.1761(4) 0.1994(3)
C3B C 0.5488(6) 0.1687(4) 0.2236(3)
H1B H 0.5367 0.1919 0.2243
C4B C 0.5290(6) 0.1280(4) 0.2464(3)
H2B H 0.5058 0.1254 0.2638
C5B C 0.5428(6) 0.0906(4) 0.2441(3)
C6B C 0.5791(6) 0.0971(4) 0.2189(3)
H3B H 0.5888 0.0721 0.2168
C7B C 0.6005(6) 0.1374(4) 0.1976(3)
H4B H 0.6251 0.1404 0.1812
C8B C 0.5206(7) 0.0469(5) 0.2678(3)
C9B C 0.4667(7) 0.0057(5) 0.2623(4)
C10B C 0.4382(8) 0.0100(5) 0.2340(4)
H5B H 0.4532 0.0386 0.2191
C11B C 0.3862(10) -0.0296(7) 0.2284(5)
C12B C 0.3807(10) 0.0143(7) 0.1767(5)
H6B H 0.3560 0.0082 0.1584
H7B H 0.4107 0.0158 0.1665
H8B H 0.3902 0.0464 0.1884
C13B C 0.3617(10) -0.0698(7) 0.2523(5)
C14B C 0.2869(11) -0.1467(7) 0.2705(6)
H9B H 0.2508 -0.1653 0.2651
H10B H 0.2917 -0.1347 0.2946
H11B H 0.3011 -0.1690 0.2676
C15B C 0.3920(8) -0.0743(6) 0.2812(4)
H12B H 0.3765 -0.1011 0.2975
C16B C 0.4433(8) -0.0387(5) 0.2840(4)
C17B C 0.4745(7) -0.0419(5) 0.3123(3)
C18B C 0.5259(7) -0.0030(5) 0.3166(3)
C19B C 0.5576(6) -0.0095(5) 0.3446(3)
H13B H 0.5439 -0.0392 0.3584
C20B C 0.6068(7) 0.0293(5) 0.3491(3)
C21B C 0.6213(7) -0.0174(5) 0.3952(4)
H14B H 0.6113 -0.0469 0.3803
H15B H 0.5923 -0.0222 0.4090
H16B H 0.6485 -0.0133 0.4109
C22B C 0.6291(6) 0.0746(5) 0.3287(3)
C23B C 0.7025(6) 0.1571(5) 0.3203(3)
H17B H 0.6912 0.1518 0.2960
H18B H 0.7392 0.1709 0.3210
H19B H 0.6942 0.1809 0.3314
C24B C 0.6007(6) 0.0807(4) 0.3029(3)
H20B H 0.6150 0.1111 0.2899
C25B C 0.5487(7) 0.0405(5) 0.2956(3)
C26B C 0.4504(8) -0.0873(5) 0.3359(3)
C27B C 0.4412(8) -0.0835(5) 0.3706(3)
H21B H 0.4503 -0.0511 0.3796
C28B C 0.4194(8) -0.1242(5) 0.3931(4)
H22B H 0.4120 -0.1198 0.4164
C29B C 0.4084(8) -0.1725(5) 0.3811(4)
C30B C 0.3876(8) -0.2185(5) 0.4054(4)
C31B C 0.4186(8) -0.1778(5) 0.3466(4)
H23B H 0.4117 -0.2099 0.3381
C32B C 0.4386(8) -0.1364(5) 0.3244(4)
H24B H 0.4447 -0.1409 0.3008
Zn1C Zn 0.3334 -0.3334 0.39980(7)
Zn1C_2 Zn 0.3334 0.6666 0.39980(7)
Zn1C_3 Zn 1.3334 0.6666 0.39980(7)
Zn2C Zn 0.36740(5) 0.63121(5) 0.47115(3)
Zn2D Zn 0.36879(5) -0.26382(7) 0.47115(3)
Zn2E Zn 1.26382(7) 0.63260(5) 0.47115(3)
O2F O 0.5427(4) 0.2615(3) 0.1042(2)
O2G O 0.7385(3) 0.2813(5) 0.1042(2)
O2H O 0.7187(5) 0.4573(4) 0.1042(2)
O5F O 0.5964(4) 0.3012(8) 0.0573(3)
O5G O 0.6988(8) 0.2953(9) 0.0573(3)
O5H O 0.7047(9) 0.4036(4) 0.0573(3)
loop_
_geom_bond_atom_site_label_1
_geom_bond_atom_site_label_2
_geom_bond_site_symmetry_1
_geom_bond_site_symmetry_2
Zn1 O4 1_555 1_555
Zn2 O1 1_555 1_555
O1 C1 1_555 1_555
O2 C30 1_555 1_555
O3 C1 1_555 1_555
O4 Zn2 1_555 1_555
O5 C30 1_555 1_555
O6 C11 1_555 1_555
O7 C13 1_555 1_555
O8 C22 1_555 1_555
O9 C20 1_555 1_555
C1 C2 1_555 1_555
C2 C3 1_555 1_555
C3 H1 1_555 1_555
C4 C3 1_555 1_555
H2 C4 1_555 1_555
C5 C4 1_555 1_555
C6 C5 1_555 1_555
H3 C6 1_555 1_555
C7 C2 1_555 1_555
H4 C7 1_555 1_555
C8 C5 1_555 1_555
C9 C8 1_555 1_555
C10 C9 1_555 1_555
H5 C10 1_555 1_555
C11 C10 1_555 1_555
C12 O6 1_555 1_555
H6 C12 1_555 1_555
H7 C12 1_555 1_555
H8 C12 1_555 1_555
C13 C11 1_555 1_555
C14 O7 1_555 1_555
H9 C14 1_555 1_555
H10 C14 1_555 1_555
H11 C14 1_555 1_555
C15 C13 1_555 1_555
H12 C15 1_555 1_555
C16 C9 1_555 1_555
C17 C16 1_555 1_555
C18 C17 1_555 1_555
C19 C18 1_555 1_555
H13 C19 1_555 1_555
C20 C19 1_555 1_555
C21 O9 1_555 1_555
H14 C21 1_555 1_555
H15 C21 1_555 1_555
H16 C21 1_555 1_555
C22 C20 1_555 1_555
C23 O8 1_555 1_555
H17 C23 1_555 1_555
H18 C23 1_555 1_555
H19 C23 1_555 1_555
C24 C22 1_555 1_555
H20 C24 1_555 1_555
C25 C8 1_555 1_555
C26 C17 1_555 1_555
C27 C26 1_555 1_555
H21 C27 1_555 1_555
C28 C27 1_555 1_555
H22 C28 1_555 1_555
C29 C28 1_555 1_555
C30 C29 1_555 1_555
C31 C29 1_555 1_555
H23 C31 1_555 1_555
C32 C26 1_555 1_555
H24 C32 1_555 1_555
Zn3 O10 1_555 1_555
Zn4 O10 1_555 1_555
O10 Zn3A 1_555 1_555
O11 O12 1_555 1_555
O12 C33 1_555 1_555
O13 Zn3 1_555 1_555
O14 C44 1_555 1_555
O15 C46 1_555 1_555
C33 O11 1_555 1_555
C34 C33 1_555 1_555
C35 C34 1_555 1_555
H25 C35 1_555 1_555
C36 C35 1_555 1_555
H26 C36 1_555 1_555
C37 C36 1_555 1_555
C38 C37 1_555 1_555
H27 C38 1_555 1_555
C39 C34 1_555 1_555
H28 C39 1_555 1_555
C40 C37 1_555 1_555
C41 C40 1_555 1_555
C42 C40 1_555 1_555
C43 C42 1_555 1_555
H29 C43 1_555 1_555
C44 C43 1_555 1_555
C45 O14 1_555 1_555
H30 C45 1_555 1_555
H31 C45 1_555 1_555
H32 C45 1_555 1_555
C46 C44 1_555 1_555
C47 C46 1_555 1_555
H33 C47 1_555 1_555
C48 O15 1_555 1_555
H34 C48 1_555 1_555
H35 C48 1_555 1_555
H36 C48 1_555 1_555
Zn2A O3 1_555 1_555
O1A Zn2A 1_555 1_555
O2A C30A 1_555 1_555
O3A C1A 1_555 1_555
O5A C30A 1_555 1_555
O6A C11A 1_555 1_555
O7A C13A 1_555 1_555
O8A C22A 1_555 1_555
O9A C20A 1_555 1_555
C1A O1A 1_555 1_555
C2A C1A 1_555 1_555
C3A C2A 1_555 1_555
H1A C3A 1_555 1_555
C4A C3A 1_555 1_555
H2A C4A 1_555 1_555
C5A C4A 1_555 1_555
C6A C5A 1_555 1_555
H3A C6A 1_555 1_555
C7A C2A 1_555 1_555
H4A C7A 1_555 1_555
C8A C5A 1_555 1_555
C9A C8A 1_555 1_555
C10A C9A 1_555 1_555
H5A C10A 1_555 1_555
C11A C10A 1_555 1_555
C12A O6A 1_555 1_555
H6A C12A 1_555 1_555
H7A C12A 1_555 1_555
H8A C12A 1_555 1_555
C13A C11A 1_555 1_555
C14A O7A 1_555 1_555
H9A C14A 1_555 1_555
H10A C14A 1_555 1_555
H11A C14A 1_555 1_555
C15A C13A 1_555 1_555
H12A C15A 1_555 1_555
C16A C9A 1_555 1_555
C17A C16A 1_555 1_555
C18A C17A 1_555 1_555
C19A C18A 1_555 1_555
H13A C19A 1_555 1_555
C20A C19A 1_555 1_555
C21A O9A 1_555 1_555
H14A C21A 1_555 1_555
H15A C21A 1_555 1_555
H16A C21A 1_555 1_555
C22A C20A 1_555 1_555
C23A O8A 1_555 1_555
H17A C23A 1_555 1_555
H18A C23A 1_555 1_555
H19A C23A 1_555 1_555
C24A C22A 1_555 1_555
H20A C24A 1_555 1_555
C25A C8A 1_555 1_555
C26A C17A 1_555 1_555
C27A C26A 1_555 1_555
H21A C27A 1_555 1_555
C28A C27A 1_555 1_555
H22A C28A 1_555 1_555
C29A C28A 1_555 1_555
C30A C29A 1_555 1_555
C31A C29A 1_555 1_555
H23A C31A 1_555 1_555
C32A C26A 1_555 1_555
H24A C32A 1_555 1_555
Zn2B O4 1_555 1_555
O1B Zn2B 1_555 1_555
O2B C30B 1_555 1_555
O3B Zn2 1_555 1_555
O5B C30B 1_555 1_555
O6B C11B 1_555 1_555
O7B C13B 1_555 1_555
O8B C22B 1_555 1_555
O9B C20B 1_555 1_555
C1B O1B 1_555 1_555
C2B C1B 1_555 1_555
C3B C2B 1_555 1_555
H1B C3B 1_555 1_555
C4B C3B 1_555 1_555
H2B C4B 1_555 1_555
C5B C4B 1_555 1_555
C6B C5B 1_555 1_555
H3B C6B 1_555 1_555
C7B C2B 1_555 1_555
H4B C7B 1_555 1_555
C8B C5B 1_555 1_555
C9B C8B 1_555 1_555
C10B C9B 1_555 1_555
H5B C10B 1_555 1_555
C11B C10B 1_555 1_555
C12B O6B 1_555 1_555
H6B C12B 1_555 1_555
H7B C12B 1_555 1_555
H8B C12B 1_555 1_555
C13B C11B 1_555 1_555
C14B O7B 1_555 1_555
H9B C14B 1_555 1_555
H10B C14B 1_555 1_555
H11B C14B 1_555 1_555
C15B C13B 1_555 1_555
H12B C15B 1_555 1_555
C16B C9B 1_555 1_555
C17B C16B 1_555 1_555
C18B C17B 1_555 1_555
C19B C18B 1_555 1_555
H13B C19B 1_555 1_555
C20B C19B 1_555 1_555
C21B O9B 1_555 1_555
H14B C21B 1_555 1_555
H15B C21B 1_555 1_555
H16B C21B 1_555 1_555
C22B C20B 1_555 1_555
C23B O8B 1_555 1_555
H17B C23B 1_555 1_555
H18B C23B 1_555 1_555
H19B C23B 1_555 1_555
C24B C22B 1_555 1_555
H20B C24B 1_555 1_555
C25B C8B 1_555 1_555
C26B C17B 1_555 1_555
C27B C26B 1_555 1_555
H21B C27B 1_555 1_555
C28B C27B 1_555 1_555
H22B C28B 1_555 1_555
C29B C28B 1_555 1_555
C30B C29B 1_555 1_555
C31B C29B 1_555 1_555
H23B C31B 1_555 1_555
C32B C26B 1_555 1_555
H24B C32B 1_555 1_555
Zn1C O5B 1_555 1_555
Zn1C_2 O5A 1_555 1_555
Zn1C_3 O5 1_555 1_555
Zn2C O2A 1_555 1_555
Zn2D O2B 1_555 1_555
Zn2E O2 1_555 1_555
O2F Zn2B 1_555 1_555
O2G Zn2 1_555 1_555
O2H Zn2A 1_555 1_555
O5F Zn1 1_555 1_555
O5G Zn1 1_555 1_555
O5H Zn1 1_555 1_555
O11O O12O 1_555 1_555
O12O C33O 1_555 1_555
O13O C33O 1_555 1_555
O14O C44O 1_555 1_555
O15O C46O 1_555 1_555
C33O O11O 1_555 1_555
C34O C33O 1_555 1_555
C35O C34O 1_555 1_555
H25O C35O 1_555 1_555
C36O C35O 1_555 1_555
H26O C36O 1_555 1_555
C37O C36O 1_555 1_555
C38O C37O 1_555 1_555
H27O C38O 1_555 1_555
C39O C34O 1_555 1_555
H28O C39O 1_555 1_555
C40O C37O 1_555 1_555
C41O C42 1_555 1_555
C42O C41 1_555 1_555
C43O C42O 1_555 1_555
H29O C43O 1_555 1_555
C44O C43O 1_555 1_555
C45O O14O 1_555 1_555
H30O C45O 1_555 1_555
H31O C45O 1_555 1_555
H32O C45O 1_555 1_555
C46O C44O 1_555 1_555
C47O C41 1_555 1_555
H33O C47O 1_555 1_555
C48O O15O 1_555 1_555
H34O C48O 1_555 1_555
H35O C48O 1_555 1_555
H36O C48O 1_555 1_555
Zn3A O11 1_555 1_555
O11A O12A 1_555 1_555
O12A C33A 1_555 1_555
O13A Zn3A 1_555 1_555
O14A C44A 1_555 1_555
O15A C46A 1_555 1_555
C33A O11A 1_555 1_555
C34A C33A 1_555 1_555
C35A C34A 1_555 1_555
H25A C35A 1_555 1_555
C36A C35A 1_555 1_555
H26A C36A 1_555 1_555
C37A C36A 1_555 1_555
C38A C37A 1_555 1_555
H27A C38A 1_555 1_555
C39A C34A 1_555 1_555
H28A C39A 1_555 1_555
C40A C37A 1_555 1_555
C41A C40A 1_555 1_555
C42A C40A 1_555 1_555
C43A C42A 1_555 1_555
H29A C43A 1_555 1_555
C44A C43A 1_555 1_555
C45A O14A 1_555 1_555
H30A C45A 1_555 1_555
H31A C45A 1_555 1_555
H32A C45A 1_555 1_555
C46A C44A 1_555 1_555
C47A C46A 1_555 1_555
H33A C47A 1_555 1_555
C48A O15A 1_555 1_555
H34A C48A 1_555 1_555
H35A C48A 1_555 1_555
H36A C48A 1_555 1_555
O11P O12P 1_555 1_555
O12P C33P 1_555 1_555
O13P C33P 1_555 1_555
O14P C44P 1_555 1_555
O15P C46P 1_555 1_555
C33P O11P 1_555 1_555
C34P C33P 1_555 1_555
C35P C34P 1_555 1_555
H25P C35P 1_555 1_555
C36P C35P 1_555 1_555
H26P C36P 1_555 1_555
C37P C36P 1_555 1_555
C38P C37P 1_555 1_555
H27P C38P 1_555 1_555
C39P C34P 1_555 1_555
H28P C39P 1_555 1_555
C40P C37P 1_555 1_555
C41P C42A 1_555 1_555
C42P C41A 1_555 1_555
C43P C42P 1_555 1_555
H29P C43P 1_555 1_555
C44P C43P 1_555 1_555
C45P O14P 1_555 1_555
H30P C45P 1_555 1_555
H31P C45P 1_555 1_555
H32P C45P 1_555 1_555
C46P C44P 1_555 1_555
C47P C41A 1_555 1_555
H33P C47P 1_555 1_555
C48P O15P 1_555 1_555
H34P C48P 1_555 1_555
H35P C48P 1_555 1_555
H36P C48P 1_555 1_555
Zn3B O10 1_555 1_555
O11B Zn3 1_555 1_555
O12B Zn3 1_555 1_555
O13B Zn3B 1_555 1_555
O14B C44B 1_555 1_555
O15B C46B 1_555 1_555
C33B O11B 1_555 1_555
C34B C33B 1_555 1_555
C35B C34B 1_555 1_555
H25B C35B 1_555 1_555
C36B C35B 1_555 1_555
H26B C36B 1_555 1_555
C37B C36B 1_555 1_555
C38B C37B 1_555 1_555
H27B C38B 1_555 1_555
C39B C34B 1_555 1_555
H28B C39B 1_555 1_555
C40B C37B 1_555 1_555
C41B C40B 1_555 1_555
C42B C40B 1_555 1_555
C43B C42B 1_555 1_555
H29B C43B 1_555 1_555
C44B C43B 1_555 1_555
C45B O14B 1_555 1_555
H30B C45B 1_555 1_555
H31B C45B 1_555 1_555
H32B C45B 1_555 1_555
C46B C44B 1_555 1_555
C47B C46B 1_555 1_555
H33B C47B 1_555 1_555
C48B O15B 1_555 1_555
H34B C48B 1_555 1_555
H35B C48B 1_555 1_555
H36B C48B 1_555 1_555
O11Q O12Q 1_555 1_555
O12Q C33Q 1_555 1_555
O13Q C33Q 1_555 1_555
O14Q C44Q 1_555 1_555
O15Q C46Q 1_555 1_555
C33Q O11Q 1_555 1_555
C34Q C33Q 1_555 1_555
C35Q C34Q 1_555 1_555
H25Q C35Q 1_555 1_555
C36Q C35Q 1_555 1_555
H26Q C36Q 1_555 1_555
C37Q C36Q 1_555 1_555
C38Q C37Q 1_555 1_555
H27Q C38Q 1_555 1_555
C39Q C34Q 1_555 1_555
H28Q C39Q 1_555 1_555
C40Q C37Q 1_555 1_555
C41Q C42B 1_555 1_555
C42Q C41B 1_555 1_555
C43Q C42Q 1_555 1_555
H29Q C43Q 1_555 1_555
C44Q C43Q 1_555 1_555
C45Q O14Q 1_555 1_555
H30Q C45Q 1_555 1_555
H31Q C45Q 1_555 1_555
H32Q C45Q 1_555 1_555
C46Q C44Q 1_555 1_555
C47Q C41B 1_555 1_555
H33Q C47Q 1_555 1_555
C48Q O15Q 1_555 1_555
H34Q C48Q 1_555 1_555
H35Q C48Q 1_555 1_555
H36Q C48Q 1_555 1_555
Zn3O O13O 1_555 1_555
Zn3P O11O 1_555 1_555
Zn3Q O13Q 1_555 1_555
Zn4L Zn3 1_555 1_555
Zn3F Zn3Q 1_555 1_555
Zn3F_2 Zn3P 1_555 1_555
Zn3F_3 O11P 1_555 1_555
Zn3G O11Q 1_555 1_555
Zn3G_2 Zn3O 1_555 1_555
Zn3H O11O 1_555 1_555
Zn3O_2 O11Q 1_555 1_555
Zn3P_2 O13P 1_555 1_555
Zn3Q_2 O11P 1_555 1_555
Zn3L Zn4 1_555 1_555
Zn3M Zn3 1_555 1_555
Zn3N Zn3 1_555 1_555
Zn4F O13Q 1_555 1_555
Zn4F_2 O13O 1_555 1_555
Zn4F_3 O13P 1_555 1_555
O10F Zn3Q 1_555 1_555
O10F_2 Zn3O 1_555 1_555
O11F Zn3Q 1_555 1_555
O11G Zn3O 1_555 1_555
O11H Zn3P 1_555 1_555
O11P_2 Zn3Q 1_555 1_555
O11Q_2 Zn3O 1_555 1_555
O11L Zn3B 1_555 1_555
O11M Zn3 1_555 1_555
O11N Zn3A 1_555 1_555
O12P_2 Zn3Q 1_555 1_555
O12Q_2 Zn3O 1_555 1_555
O13P_2 Zn3P 1_555 1_555
O13L Zn4 1_555 1_555
O13M Zn4 1_555 1_555
O13N Zn4 1_555 1_555
O4 Zn2A 1_555 1_555
C6 C7 1_555 1_555
C15 C16 1_555 1_555
C18 C25 1_555 1_555
C24 C25 1_555 1_555
C31 C32 1_555 1_555
Zn4 Zn3M 1_555 1_555
Zn4 Zn3N 1_555 1_555
O10 Zn4L 1_555 1_555
O10 Zn3L 1_555 1_555
O10 Zn3M 1_555 1_555
O10 Zn3N 1_555 1_555
O11 Zn3N 1_555 1_555
O12 Zn3A 1_555 1_555
O13 C33 1_555 1_555
O13 Zn4L 1_555 1_555
C38 C39 1_555 1_555
C47 C41O 1_555 1_555
O3A Zn2B 1_555 1_555
C6A C7A 1_555 1_555
C15A C16A 1_555 1_555
C18A C25A 1_555 1_555
C24A C25A 1_555 1_555
C31A C32A 1_555 1_555
O3B C1B 1_555 1_555
C6B C7B 1_555 1_555
C15B C16B 1_555 1_555
C18B C25B 1_555 1_555
C24B C25B 1_555 1_555
C31B C32B 1_555 1_555
O12O Zn3P 1_555 1_555
C38O C39O 1_555 1_555
C40O C41O 1_555 1_555
C40O C42O 1_555 1_555
C46O C47O 1_555 1_555
Zn3A Zn4L 1_555 1_555
Zn3A Zn3L 1_555 1_555
Zn3A Zn3N 1_555 1_555
O11A Zn3B 1_555 1_555
O11A Zn3L 1_555 1_555
O12A Zn3B 1_555 1_555
O13A C33A 1_555 1_555
O13A Zn4L 1_555 1_555
C38A C39A 1_555 1_555
C47A C41P 1_555 1_555
O12P Zn3Q_2 1_555 1_555
C38P C39P 1_555 1_555
C40P C41P 1_555 1_555
C40P C42P 1_555 1_555
C46P C47P 1_555 1_555
Zn3B Zn4L 1_555 1_555
Zn3B Zn3L 1_555 1_555
Zn3B Zn3M 1_555 1_555
O11B O12B 1_555 1_555
O11B Zn3M 1_555 1_555
O12B C33B 1_555 1_555
O13B C33B 1_555 1_555
O13B Zn4L 1_555 1_555
C38B C39B 1_555 1_555
C47B C41Q 1_555 1_555
O12Q Zn3O_2 1_555 1_555
C38Q C39Q 1_555 1_555
C40Q C41Q 1_555 1_555
C40Q C42Q 1_555 1_555
C46Q C47Q 1_555 1_555
Zn3O Zn3H 1_555 1_555
Zn3O Zn4F_2 1_555 1_555
Zn3P Zn3H 1_555 1_555
Zn3P Zn4F_2 1_555 1_555
Zn3P O10F_2 1_555 1_555
Zn3Q Zn3G 1_555 1_555
Zn3Q Zn4F 1_555 1_555
Zn3F O10F 1_555 1_555
Zn3F O11P_2 1_555 1_555
Zn3F_2 O10F_2 1_555 1_555
Zn3F_2 O11H 1_555 1_555
Zn3F_3 Zn3P_2 1_555 1_555
Zn3F_3 Zn3Q_2 1_555 1_555
Zn3G Zn3O_2 1_555 1_555
Zn3G O10F 1_555 1_555
Zn3G O11F 1_555 1_555
Zn3G_2 O10F_2 1_555 1_555
Zn3G_2 O11Q_2 1_555 1_555
Zn3H O10F_2 1_555 1_555
Zn3H O11G 1_555 1_555
Zn3O_2 Zn4F 1_555 1_555
Zn3O_2 O10F 1_555 1_555
Zn3P_2 Zn4F_3 1_555 1_555
Zn3Q_2 Zn4F_3 1_555 1_555
Zn3L O11N 1_555 1_555
Zn3L O13L 1_555 1_555
Zn3M O11L 1_555 1_555
Zn3M O13M 1_555 1_555
Zn3N O11M 1_555 1_555
Zn3N O13N 1_555 1_555
Zn4F O10F 1_555 1_555
Zn4F_2 O10F_2 1_555 1_555
Zn4F_2 O13P_2 1_555 1_555
O11P_2 O12P_2 1_555 1_555
O11Q_2 O12Q_2 1_555 1_555

#END
