
#######################################################################
#
#                 Cambridge Crystallographic Data Centre
#                                CCDC 
#
#######################################################################
#
# If this CIF has been generated from an entry in the Cambridge 
# Structural Database, then it will include bibliographic, chemical, 
# crystal, experimental, refinement or atomic coordinate data resulting 
# from the CCDC's data processing and validation procedures.
#
#######################################################################

data_HURGEH
_symmetry_cell_setting           monoclinic
_symmetry_space_group_name_H-M   'P 21/n'
_symmetry_Int_Tables_number      14
_space_group_name_Hall           '-P 2yn'
loop_
_symmetry_equiv_pos_site_id
_symmetry_equiv_pos_as_xyz
1 x,y,z
2 1/2-x,1/2+y,1/2-z
3 -x,-y,-z
4 1/2+x,1/2-y,1/2+z
_cell_length_a                   18.0309(9)
_cell_length_b                   14.2780(8)
_cell_length_c                   20.2047(12)
_cell_angle_alpha                90
_cell_angle_beta                 91.406(2)
_cell_angle_gamma                90
_cell_volume                     5200.04
loop_
_atom_site_label
_atom_site_type_symbol
_atom_site_fract_x
_atom_site_fract_y
_atom_site_fract_z
Co1 Co 0.24653(5) 0.05327(7) -0.07512(5)
O1 O 0.2616(3) 0.1906(3) -0.1063(3)
C1 C 0.2565(4) 0.2673(5) -0.0769(4)
O2 O 0.2438(3) 0.2810(3) -0.0165(3)
Co2 Co 0.20150(6) 0.20241(7) 0.05764(6)
O3 O 0.2677(3) 0.0908(3) 0.0279(3)
C2 C 0.3232(4) 0.1120(6) 0.0666(4)
O4 O 0.3219(3) 0.1826(4) 0.1020(3)
C3 C 0.3850(4) 0.0409(5) 0.0710(4)
C4 C 0.4589(4) 0.0691(5) 0.0851(4)
C5 C 0.5152(4) 0.0034(5) 0.0856(4)
C6 C 0.5955(4) 0.0330(5) 0.0911(4)
O5 O 0.6421(3) -0.0289(4) 0.0879(3)
O6 O 0.6072(3) 0.1211(3) 0.0983(3)
Co3 Co 0.70664(5) 0.18049(7) 0.09189(5)
O7 O 0.2339(3) -0.0894(3) -0.0365(3)
C7 C 0.1764(4) -0.1426(5) -0.0270(4)
O8 O 0.1735(3) -0.2213(4) -0.0525(3)
C8 C 0.1185(4) -0.1072(6) 0.0190(4)
C9 C 0.1392(4) -0.0387(6) 0.0663(4)
C10 C 0.0858(5) -0.0024(6) 0.1063(5)
C11 C 0.0114(4) -0.0310(6) 0.0984(5)
C12 C -0.0086(4) -0.0969(5) 0.0496(4)
C13 C 0.0446(4) -0.1359(5) 0.0108(4)
C14 C -0.0895(4) -0.1191(6) 0.0363(5)
O9 O -0.1034(3) -0.1769(4) -0.0085(3)
O10 O -0.1367(3) -0.0733(4) 0.0696(3)
C15 C 0.1083(6) 0.0746(7) 0.1553(6)
O11 O 0.1672(3) 0.1231(4) 0.1411(3)
O12 O 0.0726(4) 0.0843(6) 0.2048(4)
O13 O 0.2488(3) 0.3559(4) -0.3195(3)
C16 C 0.2630(4) 0.4354(5) -0.2944(4)
O14 O 0.2711(3) 0.5096(4) -0.3263(3)
C17 C 0.2717(4) 0.4363(5) -0.2215(4)
C18 C 0.2858(4) 0.5208(5) -0.1883(4)
C19 C 0.2908(4) 0.5217(5) -0.1205(4)
C20 C 0.2829(4) 0.4391(5) -0.0835(4)
C21 C 0.2685(4) 0.3560(5) -0.1160(4)
C22 C 0.2648(4) 0.3532(5) -0.1852(4)
C23 C 0.3082(4) 0.6113(5) -0.0830(5)
O15 O 0.3089(3) 0.6852(3) -0.1166(3)
O16 O 0.3177(4) 0.6069(4) -0.0213(3)
C24 C 0.4983(4) -0.0900(5) 0.0736(4)
C25 C 0.4259(4) -0.1193(5) 0.0610(4)
C26 C 0.3694(4) -0.0524(5) 0.0589(4)
C27 C 0.4108(5) -0.2191(6) 0.0446(5)
O17 O 0.3424(3) -0.2338(3) 0.0202(3)
O18 O 0.4560(4) -0.2805(4) 0.0556(4)
O19 O 0.1728(3) 0.3315(4) 0.1156(3)
H1 H 0.4706 0.1323 0.0931
H2 H 0.1893 -0.0193 0.0705
H3 H -0.0254 -0.0073 0.1263
H4 H 0.0312 -0.1800 -0.0212
H5 H 0.2914 0.5755 -0.2128
H6 H 0.2869 0.4416 -0.0371
H7 H 0.2584 0.2953 -0.2068
H8 H 0.5371 -0.1332 0.0727
H9 H 0.3203 -0.0717 0.0492
H10 H 0.1453 0.3804 0.0934
H11 H 0.1694 0.3261 0.1626
Co1B Co 0.75347(5) -0.05327(7) 0.07512(5)
Co1B_2 Co -0.24653(5) -0.05327(7) 0.07512(5)
Co1A Co 0.25347(5) 0.55327(7) -0.42488(5)
Co2B Co -0.20150(6) -0.20241(7) -0.05764(6)
O5B O 0.3579(3) 0.0289(4) -0.0879(3)
Co3B Co 0.29336(5) -0.18049(7) -0.09189(5)
Co3C Co 0.20664(5) 0.31951(7) -0.40811(5)
Co3B_2 Co 0.29336(5) 0.81951(7) -0.09189(5)
O7B O 0.7661(3) 0.0894(3) 0.0365(3)
O8B O 0.8265(3) 0.2213(4) 0.0525(3)
O9B O 0.1034(3) 0.1769(4) 0.0085(3)
O10B O 0.1367(3) 0.0733(4) -0.0696(3)
O13C O 0.7488(3) 0.1441(4) 0.1805(3)
O14A O 0.2289(3) 0.0096(4) -0.1737(3)
O15B O 0.6911(3) 0.3148(3) 0.1166(3)
O17B O 0.6576(3) 0.2338(3) -0.0202(3)
loop_
_geom_bond_atom_site_label_1
_geom_bond_atom_site_label_2
_geom_bond_site_symmetry_1
_geom_bond_site_symmetry_2
Co1 O1 1_555 1_555
O1 C1 1_555 1_555
C1 O2 1_555 1_555
O2 Co2 1_555 1_555
Co2 O3 1_555 1_555
O3 Co1 1_555 1_555
C2 O3 1_555 1_555
O4 Co2 1_555 1_555
C3 C2 1_555 1_555
C4 C3 1_555 1_555
C5 C4 1_555 1_555
C6 C5 1_555 1_555
O5 C6 1_555 1_555
O6 C6 1_555 1_555
Co3 O6 1_555 1_555
O7 Co1 1_555 1_555
C7 O7 1_555 1_555
O8 C7 1_555 1_555
C8 C7 1_555 1_555
C9 C8 1_555 1_555
C10 C9 1_555 1_555
C11 C10 1_555 1_555
C12 C11 1_555 1_555
C13 C8 1_555 1_555
C14 C12 1_555 1_555
O9 C14 1_555 1_555
O10 C14 1_555 1_555
C15 C10 1_555 1_555
O11 Co2 1_555 1_555
O12 C15 1_555 1_555
O13 C16 1_555 1_555
C16 O14 1_555 1_555
O14 Co1A 1_555 1_555
C17 C16 1_555 1_555
C18 C17 1_555 1_555
C19 C18 1_555 1_555
C20 C19 1_555 1_555
C21 C1 1_555 1_555
C22 C17 1_555 1_555
C23 C19 1_555 1_555
O15 C23 1_555 1_555
O16 C23 1_555 1_555
C24 C5 1_555 1_555
C25 C24 1_555 1_555
C26 C3 1_555 1_555
C27 C25 1_555 1_555
O17 C27 1_555 1_555
O18 C27 1_555 1_555
O19 Co2 1_555 1_555
H1 C4 1_555 1_555
H2 C9 1_555 1_555
H3 C11 1_555 1_555
H4 C13 1_555 1_555
H5 C18 1_555 1_555
H6 C20 1_555 1_555
H7 C22 1_555 1_555
H8 C24 1_555 1_555
H9 C26 1_555 1_555
H10 O19 1_555 1_555
H11 O19 1_555 1_555
Co1B O5 1_555 1_555
Co1B_2 O10 1_555 1_555
Co2B O9 1_555 1_555
O5B Co1 1_555 1_555
Co3B O7 1_555 1_555
Co3C O13 1_555 1_555
Co3B_2 O15 1_555 1_555
O7B Co3 1_555 1_555
O8B Co3 1_555 1_555
O9B Co2 1_555 1_555
O10B Co1 1_555 1_555
O13C Co3 1_555 1_555
O14A Co1 1_555 1_555
O15B Co3 1_555 1_555
O17B Co3 1_555 1_555
C2 O4 1_555 1_555
O8 Co3B 1_555 1_555
C12 C13 1_555 1_555
C15 O11 1_555 1_555
C20 C21 1_555 1_555
C21 C22 1_555 1_555
C25 C26 1_555 1_555
O17 Co3B 1_555 1_555
Co1B O7B 1_555 1_555

#END
