
#######################################################################
#
#                 Cambridge Crystallographic Data Centre
#                                CCDC 
#
#######################################################################
#
# If this CIF has been generated from an entry in the Cambridge 
# Structural Database, then it will include bibliographic, chemical, 
# crystal, experimental, refinement or atomic coordinate data resulting 
# from the CCDC's data processing and validation procedures.
#
#######################################################################

data_HUZFEO
_symmetry_cell_setting           monoclinic
_symmetry_space_group_name_H-M   'P 21/n'
_symmetry_Int_Tables_number      14
_space_group_name_Hall           '-P 2yn'
loop_
_symmetry_equiv_pos_site_id
_symmetry_equiv_pos_as_xyz
1 x,y,z
2 1/2-x,1/2+y,1/2-z
3 -x,-y,-z
4 1/2+x,1/2-y,1/2+z
_cell_length_a                   8.2969(17)
_cell_length_b                   21.756(4)
_cell_length_c                   13.781(3)
_cell_angle_alpha                90
_cell_angle_beta                 103.69(3)
_cell_angle_gamma                90
_cell_volume                     2416.9
loop_
_atom_site_label
_atom_site_type_symbol
_atom_site_fract_x
_atom_site_fract_y
_atom_site_fract_z
C1 C 0.3648(7) 0.1051(2) 1.1371(4)
H1 H 0.4304 0.1348 1.1169
C2 C 0.2424(7) 0.0206(2) 1.1512(4)
H2 H 0.2069 -0.0200 1.1418
C3 C 0.1973(7) 0.0601(2) 1.2147(4)
H3 H 0.1270 0.0521 1.2567
C4 C 0.2662(7) 0.1703(2) 1.2595(4)
C5 C 0.1188(8) 0.1875(3) 1.2801(4)
H4 H 0.0238 0.1642 1.2559
C6 C 0.4061(7) 0.2057(3) 1.2930(4)
H5 H 0.5060 0.1939 1.2791
C7 C 0.2684(6) 0.0063(3) 0.7635(4)
H6 H 0.3312 -0.0253 0.7457
C8 C 0.1807(7) 0.0753(3) 0.8476(4)
H7 H 0.1706 0.1008 0.9000
C9 C 0.0808(7) 0.0770(3) 0.7539(4)
H8 H -0.0081 0.1034 0.7308
C10 C 0.0675(6) 0.0156(2) 0.5986(4)
C11 C -0.0175(7) 0.0589(3) 0.5331(4)
H9 H -0.0295 0.0987 0.5552
C12 C 0.0855(7) -0.0432(2) 0.5660(4)
H10 H 0.1431 -0.0724 0.6102
C13 C 0.1181(6) 0.3665(2) 1.4247(4)
H11 H 0.0170 0.3626 1.3784
C14 C 0.3122(7) 0.3995(3) 1.5420(4)
H12 H 0.3716 0.4237 1.5940
C15 C 0.3727(7) 0.3487(3) 1.5067(4)
H13 H 0.4778 0.3317 1.5287
C16 C 0.2510(7) 0.2745(2) 1.3702(4)
C17 C 0.1108(7) 0.2397(3) 1.3370(4)
H14 H 0.0116 0.2509 1.3525
C18 C 0.3987(7) 0.2585(3) 1.3472(4)
H15 H 0.4922 0.2831 1.3681
Cd1 Cd 0.5000 0.0000 1.0000
N1 N 0.3485(5) 0.04857(18) 1.1018(3)
N2 N 0.2762(5) 0.11490(18) 1.2053(3)
N3 N 0.2978(5) 0.03078(19) 0.8533(3)
N4 N 0.1369(5) 0.03217(19) 0.7003(3)
N5 N 0.1522(5) 0.41078(17) 1.4912(3)
N6 N 0.2454(5) 0.32770(19) 1.4311(3)
C1B C 0.6352(7) -0.1051(2) 0.8629(4)
H1B H 0.5696 -0.1348 0.8831
C2B C 0.7576(7) -0.0206(2) 0.8488(4)
H2B H 0.7931 0.0200 0.8582
C3B C 0.8027(7) -0.0601(2) 0.7853(4)
H3B H 0.8730 -0.0521 0.7433
C4B C 0.7338(7) -0.1703(2) 0.7405(4)
C5B C 0.8812(8) -0.1875(3) 0.7199(4)
H4B H 0.9762 -0.1642 0.7441
C6B C 0.5939(7) -0.2057(3) 0.7070(4)
H5B H 0.4940 -0.1939 0.7209
C7B C -0.2684(6) -0.0063(3) 0.2365(4)
H6B H -0.3312 0.0253 0.2543
C8B C -0.1807(7) -0.0753(3) 0.1524(4)
H7B H -0.1706 -0.1008 0.1000
C9B C -0.0808(7) -0.0770(3) 0.2461(4)
H8B H 0.0081 -0.1034 0.2692
C10B C -0.0675(6) -0.0156(2) 0.4014(4)
C11B C 0.0175(7) -0.0589(3) 0.4669(4)
H9B H 0.0295 -0.0987 0.4448
C12B C -0.0855(7) 0.0432(2) 0.4340(4)
H10B H -0.1431 0.0724 0.3898
C13B C 0.8819(6) -0.3665(2) 0.5753(4)
H11B H 0.9830 -0.3626 0.6216
C14B C 0.6878(7) -0.3995(3) 0.4580(4)
H12B H 0.6284 -0.4237 0.4060
C15B C 0.6273(7) -0.3487(3) 0.4933(4)
H13B H 0.5222 -0.3317 0.4713
C16B C 0.7490(7) -0.2745(2) 0.6298(4)
C17B C 0.8892(7) -0.2397(3) 0.6630(4)
H14B H 0.9884 -0.2509 0.6475
C18B C 0.6013(7) -0.2585(3) 0.6528(4)
H15B H 0.5078 -0.2831 0.6319
Cd1A Cd 0.0000 0.5000 1.5000
Cd1_2 Cd -0.5000 0.0000 0.0000
Cd1A_2 Cd 1.0000 -0.5000 0.5000
N1B N 0.6515(5) -0.04857(18) 0.8982(3)
N2B N 0.7238(5) -0.11490(18) 0.7947(3)
N3B N -0.2978(5) -0.03078(19) 0.1467(3)
N3B_2 N 0.7022(5) -0.03078(19) 1.1467(3)
N4B N -0.1369(5) -0.03217(19) 0.2997(3)
N5B N 0.8478(5) -0.41078(17) 0.5088(3)
N5A N 0.3478(5) -0.08922(17) 1.0088(3)
N5C N 0.6522(5) 0.08922(17) 0.9912(3)
N6B N 0.7546(5) -0.32770(19) 0.5689(3)
B1 B 0.8250(11) 0.2392(5) 0.5154(8)
F1 F 0.7967(6) 0.1910(2) 0.4539(4)
F2 F 0.7006(6) 0.2560(3) 0.5552(4)
F3 F 0.9765(7) 0.2541(4) 0.5580(5)
F4 F 0.8041(9) 0.2877(3) 0.4425(7)
C19 C 0.4894(9) 0.1298(4) 0.5668(6)
H16 H 0.5652 0.1586 0.5455
Cl1 Cl 0.5983(3) 0.08922(15) 0.67078(18)
Cl2 Cl 0.3261(3) 0.17095(12) 0.5942(3)
Cl3 Cl 0.4154(4) 0.07721(13) 0.4706(2)
F5? F 0.873(2) 0.1943(6) 0.6040(10)
loop_
_geom_bond_atom_site_label_1
_geom_bond_atom_site_label_2
_geom_bond_site_symmetry_1
_geom_bond_site_symmetry_2
C1 H1 1_555 1_555
C2 H2 1_555 1_555
C3 C2 1_555 1_555
H3 C3 1_555 1_555
C4 C5 1_555 1_555
C5 H4 1_555 1_555
C6 C4 1_555 1_555
H5 C6 1_555 1_555
C7 H6 1_555 1_555
C8 H7 1_555 1_555
C9 C8 1_555 1_555
H8 C9 1_555 1_555
C10 C11 1_555 1_555
C11 H9 1_555 1_555
C12 C10 1_555 1_555
H10 C12 1_555 1_555
C13 H11 1_555 1_555
C14 H12 1_555 1_555
C15 C14 1_555 1_555
H13 C15 1_555 1_555
C16 C17 1_555 1_555
C17 C5 1_555 1_555
H14 C17 1_555 1_555
C18 C6 1_555 1_555
H15 C18 1_555 1_555
Cd1 N1 1_555 1_555
N1 C1 1_555 1_555
N2 C1 1_555 1_555
N3 C7 1_555 1_555
N4 C7 1_555 1_555
N5 C13 1_555 1_555
N6 C13 1_555 1_555
B1 F1 1_555 1_555
C19 H16 1_555 1_555
Cl1 C19 1_555 1_555
Cl2 C19 1_555 1_555
Cl3 C19 1_555 1_555
F2 B1 1_555 1_555
F3 B1 1_555 1_555
F4 B1 1_555 1_555
C1B H1B 1_555 1_555
C2B H2B 1_555 1_555
C3B C2B 1_555 1_555
H3B C3B 1_555 1_555
C4B C5B 1_555 1_555
C5B H4B 1_555 1_555
C6B C4B 1_555 1_555
H5B C6B 1_555 1_555
C7B H6B 1_555 1_555
C8B H7B 1_555 1_555
C9B C8B 1_555 1_555
H8B C9B 1_555 1_555
C10B C11B 1_555 1_555
C11B C12 1_555 1_555
H9B C11B 1_555 1_555
C12B C11 1_555 1_555
H10B C12B 1_555 1_555
C13B H11B 1_555 1_555
C14B H12B 1_555 1_555
C15B C14B 1_555 1_555
H13B C15B 1_555 1_555
C16B C17B 1_555 1_555
C17B C5B 1_555 1_555
H14B C17B 1_555 1_555
C18B C6B 1_555 1_555
H15B C18B 1_555 1_555
Cd1A N5 1_555 1_555
Cd1_2 N3B 1_555 1_555
Cd1A_2 N5B 1_555 1_555
N1B Cd1 1_555 1_555
N2B C1B 1_555 1_555
N3B C7B 1_555 1_555
N3B_2 Cd1 1_555 1_555
N4B C7B 1_555 1_555
N5B C13B 1_555 1_555
N5A Cd1 1_555 1_555
N5C Cd1 1_555 1_555
N6B C13B 1_555 1_555
C2 N1 1_555 1_555
C3 N2 1_555 1_555
C4 N2 1_555 1_555
C8 N3 1_555 1_555
C9 N4 1_555 1_555
C10 N4 1_555 1_555
C14 N5 1_555 1_555
C15 N6 1_555 1_555
C16 C18 1_555 1_555
C16 N6 1_555 1_555
Cd1 N3 1_555 1_555
C1B N1B 1_555 1_555
C2B N1B 1_555 1_555
C3B N2B 1_555 1_555
C4B N2B 1_555 1_555
C8B N3B 1_555 1_555
C9B N4B 1_555 1_555
C10B C12B 1_555 1_555
C10B N4B 1_555 1_555
C14B N5B 1_555 1_555
C15B N6B 1_555 1_555
C16B C18B 1_555 1_555
C16B N6B 1_555 1_555

#END
