
#######################################################################
#
#                 Cambridge Crystallographic Data Centre
#                                CCDC 
#
#######################################################################
#
# If this CIF has been generated from an entry in the Cambridge 
# Structural Database, then it will include bibliographic, chemical, 
# crystal, experimental, refinement or atomic coordinate data resulting 
# from the CCDC's data processing and validation procedures.
#
#######################################################################

data_IBIRES
_symmetry_cell_setting           monoclinic
_symmetry_space_group_name_H-M   'C 2/c'
_symmetry_Int_Tables_number      15
_space_group_name_Hall           '-C 2yn'
loop_
_symmetry_equiv_pos_site_id
_symmetry_equiv_pos_as_xyz
1 x,y,z
2 -x,y,1/2-z
3 1/2+x,1/2+y,z
4 1/2-x,1/2+y,1/2-z
5 -x,-y,-z
6 x,-y,1/2+z
7 1/2-x,1/2-y,-z
8 1/2+x,1/2-y,1/2+z
_cell_length_a                   21.3111(15)
_cell_length_b                   20.9858(15)
_cell_length_c                   17.9319(13)
_cell_angle_alpha                90
_cell_angle_beta                 96.387(1)
_cell_angle_gamma                90
_cell_volume                     7969.92
loop_
_atom_site_label
_atom_site_type_symbol
_atom_site_fract_x
_atom_site_fract_y
_atom_site_fract_z
W1 W -0.284917(18) 0.019809(16) -0.003257(19)
Cu1 Cu -0.18131(5) 0.08978(5) -0.02638(6)
Cu2 Cu -0.26319(5) 0.04740(5) 0.14348(6)
Cu3 Cu -0.21455(6) -0.08834(5) 0.01649(6)
S1 S -0.25987(11) 0.11735(10) 0.04570(12)
S2 S -0.28647(12) -0.05122(10) 0.09107(12)
S3 S -0.20916(11) -0.01018(10) -0.07361(12)
Br1 Br -0.11697(5) -0.13602(4) 0.07607(5)
C1 C -0.1701(5) 0.2102(4) -0.1185(5)
H1 H -0.1559 0.2295 -0.0718
C2 C -0.1784(5) 0.2476(4) -0.1815(5)
H2 H -0.1706 0.2921 -0.1777
C3 C -0.1981(4) 0.2209(4) -0.2504(5)
C4 C -0.2085(5) 0.1567(4) -0.2524(5)
H3 H -0.2213 0.1363 -0.2989
C5 C -0.2002(5) 0.1214(4) -0.1868(5)
H4 H -0.2083 0.0768 -0.1894
C6 C -0.2114(5) 0.2596(4) -0.3192(5)
C7 C -0.1748(5) 0.3114(4) -0.3348(5)
H5 H -0.1373 0.3214 -0.3032
C8 C -0.1938(5) 0.3485(4) -0.3972(5)
H6 H -0.1681 0.3838 -0.4069
C9 C -0.2787(4) 0.2867(4) -0.4293(5)
H7 H -0.3154 0.2774 -0.4626
C10 C -0.2641(5) 0.2468(4) -0.3701(5)
H8 H -0.2896 0.2105 -0.3635
C11 C 0.1802(4) 0.1033(4) 0.2291(5)
H9 H 0.2131 0.1337 0.2287
C12 C 0.1268(4) 0.1118(4) 0.1797(5)
H10 H 0.1233 0.1474 0.1469
C13 C 0.0780(4) 0.0679(4) 0.1782(5)
C14 C 0.0867(4) 0.0176(4) 0.2272(5)
H11 H 0.0549 -0.0141 0.2273
C15 C 0.1404(4) 0.0125(4) 0.2757(5)
H12 H 0.1438 -0.0223 0.3098
C16 C 0.0201(4) 0.0755(4) 0.1250(5)
C17 C -0.0040(5) 0.1335(4) 0.1015(5)
H13 H 0.0184 0.1712 0.1173
C18 C -0.0601(5) 0.1381(4) 0.0556(5)
H14 H -0.0756 0.1793 0.0416
C19 C -0.0699(5) 0.0313(4) 0.0504(5)
H15 H -0.0926 -0.0055 0.0321
C20 C -0.0129(5) 0.0226(4) 0.0978(5)
H16 H 0.0022 -0.0190 0.1106
C21 C -0.3564(4) 0.0389(4) 0.2598(5)
H17 H -0.3214 0.0230 0.2917
C22 C -0.4161(4) 0.0376(4) 0.2848(5)
H18 H -0.4210 0.0231 0.3340
C23 C -0.4680(4) 0.0575(4) 0.2376(5)
C24 C -0.4581(4) 0.0791(4) 0.1670(5)
H19 H -0.4926 0.0921 0.1322
C25 C -0.3970(5) 0.0816(4) 0.1479(5)
H20 H -0.3905 0.0983 0.1001
N1 N -0.1814(4) 0.1472(3) -0.1203(4)
N2 N -0.2447(4) 0.3383(3) -0.4437(4)
N3 N 0.1890(3) 0.0540(3) 0.2783(4)
N4 N -0.0932(4) 0.0878(3) 0.0300(4)
N5 N -0.3469(3) 0.0618(3) 0.1927(4)
O1 O -0.3577(3) 0.0221(3) -0.0567(3)
W1C W -0.215083(18) -0.480191(16) -0.496743(19)
W1A W 0.284917(18) 0.019809(16) 0.503257(19)
Cu1C Cu -0.31869(5) -0.41022(5) -0.47362(6)
Cu1A Cu 0.18131(5) 0.08978(5) 0.52638(6)
Cu2A Cu 0.26319(5) 0.04740(5) 0.35652(6)
Cu2A_2 Cu -0.73681(5) 0.04740(5) 0.35652(6)
Cu2C Cu -0.23681(5) -0.45260(5) -0.64348(6)
Cu3C Cu -0.28545(6) 0.41166(5) -0.51649(6)
Cu3C_2 Cu -0.28545(6) -0.58834(5) -0.51649(6)
Cu3A Cu 0.21455(6) -0.08834(5) 0.48351(6)
S1C S -0.24013(11) -0.38265(10) -0.54570(12)
S1A S 0.25987(11) 0.11735(10) 0.45430(12)
S2A S 0.28647(12) -0.05122(10) 0.40893(12)
S2C S -0.21353(12) 0.44878(10) -0.59107(12)
S2C_2 S -0.21353(12) -0.55122(10) -0.59107(12)
S3C S -0.29084(11) -0.51018(10) -0.42639(12)
S3C_2 S -0.29084(11) 0.48982(10) -0.42639(12)
Br1C Br -0.38303(5) 0.36398(4) -0.57607(5)
C1C C -0.3299(5) -0.2898(4) -0.3815(5)
H1C H -0.3441 -0.2705 -0.4282
C2C C -0.3216(5) -0.2524(4) -0.3185(5)
H2C H -0.3294 -0.2079 -0.3223
C3C C -0.3019(4) -0.2791(4) -0.2496(5)
C4C C -0.2915(5) -0.3433(4) -0.2476(5)
H3C H -0.2787 -0.3637 -0.2011
C5C C -0.2998(5) -0.3786(4) -0.3132(5)
H4C H -0.2917 -0.4232 -0.3106
C6C C -0.2886(5) -0.2404(4) -0.1808(5)
C7C C -0.3252(5) -0.1886(4) -0.1652(5)
H5C H -0.3627 -0.1786 -0.1968
C8C C -0.3062(5) -0.1515(4) -0.1028(5)
H6C H -0.3319 -0.1162 -0.0931
C9C C -0.2213(4) -0.2133(4) -0.0707(5)
H7C H -0.1846 -0.2226 -0.0374
C10C C -0.2359(5) -0.2532(4) -0.1299(5)
H8C H -0.2104 -0.2895 -0.1365
C11A C -0.1802(4) 0.1033(4) 0.2709(5)
H9A H -0.2131 0.1337 0.2713
C12A C -0.1268(4) 0.1118(4) 0.3203(5)
H10A H -0.1233 0.1474 0.3531
C13A C -0.0780(4) 0.0679(4) 0.3218(5)
C14A C -0.0867(4) 0.0176(4) 0.2728(5)
H11A H -0.0549 -0.0141 0.2727
C15A C -0.1404(4) 0.0125(4) 0.2243(5)
H12A H -0.1438 -0.0223 0.1902
C16A C -0.0201(4) 0.0755(4) 0.3750(5)
C17A C 0.0040(5) 0.1335(4) 0.3985(5)
H13A H -0.0184 0.1712 0.3827
C18A C 0.0601(5) 0.1381(4) 0.4444(5)
H14A H 0.0756 0.1793 0.4584
C19A C 0.0699(5) 0.0313(4) 0.4496(5)
H15A H 0.0926 -0.0055 0.4679
C20A C 0.0129(5) 0.0226(4) 0.4022(5)
H16A H -0.0022 -0.0190 0.3894
C21A C -0.6436(4) 0.0389(4) 0.2402(5)
H17A H -0.6786 0.0230 0.2083
C22A C -0.5839(4) 0.0376(4) 0.2152(5)
H18A H -0.5790 0.0231 0.1660
C23A C -0.5320(4) 0.0575(4) 0.2624(5)
C24A C -0.5419(4) 0.0791(4) 0.3330(5)
H19A H -0.5074 0.0921 0.3678
C25A C -0.6030(5) 0.0816(4) 0.3521(5)
H20A H -0.6095 0.0983 0.3999
N1C N -0.3186(4) -0.3528(3) -0.3797(4)
N2C N -0.2553(4) -0.1617(3) -0.0563(4)
N3A N -0.1890(3) 0.0540(3) 0.2217(4)
N4A N 0.0932(4) 0.0878(3) 0.4700(4)
N4C N -0.4068(4) -0.4122(3) -0.5300(4)
N5A N -0.6531(3) 0.0618(3) 0.3073(4)
N5A_2 N 0.3469(3) 0.0618(3) 0.3073(4)
O1C O -0.1423(3) -0.4779(3) -0.4433(3)
C26 C 0.8850(8) 0.3672(7) 0.2150(9)
H21 H 0.9293 0.3800 0.2248
H22 H 0.8634 0.3762 0.2593
H23 H 0.8647 0.3910 0.1720
C27 C 0.8442(8) 0.2799(7) 0.1330(10)
H24 H 0.8674 0.2870 0.0895
H25 H 0.8047 0.3041 0.1268
H26 H 0.8348 0.2344 0.1371
C28 C 0.9074(12) 0.2569(12) 0.2429(16)
H27 H 0.9044 0.2136 0.2272
N6 N 0.8815(6) 0.3003(7) 0.1989(8)
O2 O 0.9378(8) 0.2706(7) 0.3089(10)
C29 C 1.0434(8) 0.3393(8) 0.4819(7)
H28 H 1.0745 0.3671 0.4661
C30 C 0.9730(8) 0.4220(7) 0.4396(9)
H29 H 1.0135 0.4442 0.4403
H30 H 0.9455 0.4457 0.4700
H31 H 0.9529 0.4190 0.3879
C31 C 0.9305(9) 0.3196(8) 0.4779(10)
H32 H 0.9158 0.3003 0.4294
H33 H 0.8966 0.3458 0.4947
H34 H 0.9420 0.2860 0.5149
N7 N 0.9836(5) 0.3583(6) 0.4704(6)
O3 O 1.0617(5) 0.2888(4) 0.5115(5)
O4? O 0.9716(10) 0.3078(9) 0.6987(11)
N8? N 1.003(8) 0.2082(18) 0.736(5)
C32? C 1.0281(13) 0.1471(12) 0.7188(15)
H35? H 1.0368 0.1464 0.6663
H36? H 0.9972 0.1138 0.7269
H37? H 1.0672 0.1393 0.7516
C33? C 0.9952(16) 0.2553(15) 0.682(2)
H38? H 1.0074 0.2483 0.6332
C34? C 0.985(4) 0.216(3) 0.808(3)
H39? H 0.9811 0.2614 0.8194
H40? H 1.0163 0.1963 0.8452
H41? H 0.9437 0.1952 0.8109
loop_
_geom_bond_atom_site_label_1
_geom_bond_atom_site_label_2
_geom_bond_site_symmetry_1
_geom_bond_site_symmetry_2
W1 S1 1_555 1_555
Cu1 S1 1_555 1_555
Cu2 S1 1_555 1_555
Cu3 S2 1_555 1_555
S2 W1 1_555 1_555
S3 W1 1_555 1_555
Br1 Cu3 1_555 1_555
C1 H1 1_555 1_555
C2 C1 1_555 1_555
H2 C2 1_555 1_555
C3 C2 1_555 1_555
C4 C3 1_555 1_555
H3 C4 1_555 1_555
C5 C4 1_555 1_555
H4 C5 1_555 1_555
C6 C3 1_555 1_555
C7 C6 1_555 1_555
H5 C7 1_555 1_555
C8 C7 1_555 1_555
H6 C8 1_555 1_555
C9 H7 1_555 1_555
C10 C6 1_555 1_555
H8 C10 1_555 1_555
C11 H9 1_555 1_555
C12 C11 1_555 1_555
H10 C12 1_555 1_555
C13 C12 1_555 1_555
C14 C13 1_555 1_555
H11 C14 1_555 1_555
C15 C14 1_555 1_555
H12 C15 1_555 1_555
C16 C13 1_555 1_555
C17 C16 1_555 1_555
H13 C17 1_555 1_555
C18 C17 1_555 1_555
H14 C18 1_555 1_555
C19 H15 1_555 1_555
C20 C16 1_555 1_555
H16 C20 1_555 1_555
C21 H17 1_555 1_555
C22 C21 1_555 1_555
H18 C22 1_555 1_555
C23 C22 1_555 1_555
C24 C23 1_555 1_555
H19 C24 1_555 1_555
C25 C24 1_555 1_555
H20 C25 1_555 1_555
C26 H21 1_555 1_555
H22 C26 1_555 1_555
H23 C26 1_555 1_555
C27 H24 1_555 1_555
H25 C27 1_555 1_555
H26 C27 1_555 1_555
C28 H27 1_555 1_555
C29 H28 1_555 1_555
C30 H29 1_555 1_555
H30 C30 1_555 1_555
H31 C30 1_555 1_555
C31 H32 1_555 1_555
H33 C31 1_555 1_555
H34 C31 1_555 1_555
N1 Cu1 1_555 1_555
N2 C8 1_555 1_555
N3 C11 1_555 1_555
N4 Cu1 1_555 1_555
N5 Cu2 1_555 1_555
N6 C26 1_555 1_555
N7 C29 1_555 1_555
O1 W1 1_555 1_555
O2 C28 1_555 1_555
O3 C29 1_555 1_555
W1C S1C 1_555 1_555
W1A S1A 1_555 1_555
Cu1C S1C 1_555 1_555
Cu1A S1A 1_555 1_555
Cu2A N3 1_555 1_555
Cu2A_2 N5A 1_555 1_555
Cu2C S1C 1_555 1_555
Cu3C N2 1_555 1_555
Cu3C_2 S2C_2 1_555 1_555
Cu3A S2A 1_555 1_555
S1A Cu2A 1_555 1_555
S2A W1A 1_555 1_555
S2C Cu3C 1_555 1_555
S2C_2 W1C 1_555 1_555
S3C W1C 1_555 1_555
S3C_2 Cu3C 1_555 1_555
Br1C Cu3C 1_555 1_555
C1C H1C 1_555 1_555
C2C C1C 1_555 1_555
H2C C2C 1_555 1_555
C3C C2C 1_555 1_555
C4C C3C 1_555 1_555
H3C C4C 1_555 1_555
C5C C4C 1_555 1_555
H4C C5C 1_555 1_555
C6C C3C 1_555 1_555
C7C C6C 1_555 1_555
H5C C7C 1_555 1_555
C8C C7C 1_555 1_555
H6C C8C 1_555 1_555
C9C H7C 1_555 1_555
C10C C6C 1_555 1_555
H8C C10C 1_555 1_555
C11A H9A 1_555 1_555
C12A C11A 1_555 1_555
H10A C12A 1_555 1_555
C13A C12A 1_555 1_555
C14A C13A 1_555 1_555
H11A C14A 1_555 1_555
C15A C14A 1_555 1_555
H12A C15A 1_555 1_555
C16A C13A 1_555 1_555
C17A C16A 1_555 1_555
H13A C17A 1_555 1_555
C18A C17A 1_555 1_555
H14A C18A 1_555 1_555
C19A H15A 1_555 1_555
C20A C16A 1_555 1_555
H16A C20A 1_555 1_555
C21A H17A 1_555 1_555
C22A C21A 1_555 1_555
H18A C22A 1_555 1_555
C23A C23 1_555 1_555
C24A C23A 1_555 1_555
H19A C24A 1_555 1_555
C25A C24A 1_555 1_555
H20A C25A 1_555 1_555
N1C Cu1C 1_555 1_555
N2C Cu3 1_555 1_555
N3A Cu2 1_555 1_555
N4A Cu1A 1_555 1_555
N4C Cu1C 1_555 1_555
N5A C21A 1_555 1_555
N5A_2 Cu2A 1_555 1_555
O1C W1C 1_555 1_555
Cu1 S3 1_555 1_555
Cu2 S2 1_555 1_555
Cu3 S3 1_555 1_555
C1 N1 1_555 1_555
C5 N1 1_555 1_555
C9 C10 1_555 1_555
C9 N2 1_555 1_555
C15 N3 1_555 1_555
C18 N4 1_555 1_555
C19 C20 1_555 1_555
C19 N4 1_555 1_555
C21 N5 1_555 1_555
C25 N5 1_555 1_555
C27 N6 1_555 1_555
C28 N6 1_555 1_555
C30 N7 1_555 1_555
C31 N7 1_555 1_555
Cu1C S3C 1_555 1_555
Cu2A S2A 1_555 1_555
Cu2C S2C_2 1_555 1_555
Cu3C_2 S3C 1_555 1_555
C1C N1C 1_555 1_555
C5C N1C 1_555 1_555
C8C N2C 1_555 1_555
C9C C10C 1_555 1_555
C9C N2C 1_555 1_555
C11A N3A 1_555 1_555
C15A N3A 1_555 1_555
C18A N4A 1_555 1_555
C19A C20A 1_555 1_555
C19A N4A 1_555 1_555
C22A C23A 1_555 1_555
C25A N5A 1_555 1_555

#END
