
#######################################################################
#
#                 Cambridge Crystallographic Data Centre
#                                CCDC 
#
#######################################################################
#
# If this CIF has been generated from an entry in the Cambridge 
# Structural Database, then it will include bibliographic, chemical, 
# crystal, experimental, refinement or atomic coordinate data resulting 
# from the CCDC's data processing and validation procedures.
#
#######################################################################

data_IBOZIK
_symmetry_cell_setting           monoclinic
_symmetry_space_group_name_H-M   'P 2/c'
_symmetry_Int_Tables_number      13
_space_group_name_Hall           '-P 2yc'
loop_
_symmetry_equiv_pos_site_id
_symmetry_equiv_pos_as_xyz
1 x,y,z
2 -x,y,1/2-z
3 -x,-y,-z
4 x,-y,1/2+z
_cell_length_a                   10.0124(6)
_cell_length_b                   14.1908(9)
_cell_length_c                   21.6482(16)
_cell_angle_alpha                90
_cell_angle_beta                 102.265(2)
_cell_angle_gamma                90
_cell_volume                     3005.66
loop_
_atom_site_label
_atom_site_type_symbol
_atom_site_fract_x
_atom_site_fract_y
_atom_site_fract_z
Cu1 Cu -0.06252(5) 0.33362(3) 0.05985(2)
Cu2 Cu 0.12532(4) 0.50551(3) 0.05193(2)
O1 O 0.0123(2) 0.41120(16) 0.00035(11)
H1 H 0.0634 0.3740 -0.0250
O2 O -0.3584(2) 0.09781(17) 0.22533(11)
O3 O -0.5787(3) -0.14794(18) 0.17632(13)
O4 O 0.2650(3) 0.42033(19) 0.09353(13)
C1 C -0.8286(4) -0.3368(3) 0.1429(2)
H2 H -0.9084 -0.3574 0.1542
O5 O -0.0796(3) 0.22412(18) 0.00352(14)
C2 C -0.3027(4) 0.1510(2) 0.18527(17)
N1 N -0.7796(3) -0.3872(2) 0.10113(15)
O6 O -0.0731(3) 0.4528(2) 0.11050(15)
N2 N -0.1688(3) 0.2618(2) 0.11207(15)
C3 C -0.4648(3) 0.0335(2) 0.19729(16)
H3 H -0.4340 -0.0063 0.1667
H4 H -0.5448 0.0681 0.1758
C4 C -0.5000 -0.0265(3) 0.2500
C5 C -0.3393(4) 0.1477(3) 0.12044(17)
H5 H -0.4102 0.1089 0.1003
C6 C -0.6225(3) -0.0891(2) 0.22170(17)
H6 H -0.6492 -0.1269 0.2544
H7 H -0.6999 -0.0508 0.2016
O7 O 0.1383(3) 0.3071(2) 0.12414(15)
C7 C -0.7684(4) -0.2561(3) 0.17052(19)
H8 H -0.8069 -0.2226 0.1993
C8 C 0.2489(4) 0.3440(3) 0.12265(19)
O8 O 0.0927(3) 0.2519(2) -0.04410(17)
C9 C -0.0040(4) 0.2010(3) -0.0334(2)
C10 C -0.1370(4) 0.2666(3) 0.17508(18)
H9 H -0.0689 0.3083 0.1940
C11 C -0.2001(4) 0.2129(3) 0.21329(18)
H10 H -0.1747 0.2179 0.2571
C12 C -0.6499(4) -0.2257(2) 0.15463(18)
O9 O -0.2575(4) 0.4742(3) 0.03829(18)
C13 C -0.2696(4) 0.2025(3) 0.08609(18)
H11 H -0.2933 0.1985 0.0422
C14 C -0.5944(4) -0.2793(3) 0.1124(2)
H12 H -0.5133 -0.2614 0.1012
C15 C -0.1616(7) -0.0367(4) -0.0809(3)
H13 H -0.2295 -0.0749 -0.0710
C16 C -0.0347(5) 0.1076(3) -0.0662(2)
C17 C -0.6618(4) -0.3589(3) 0.0877(2)
H14 H -0.6237 -0.3952 0.0602
C18 C -0.1860(5) 0.4911(3) 0.0913(2)
C19 C -0.1338(5) 0.0494(3) -0.0525(2)
H15 H -0.1836 0.0689 -0.0230
C20 C 0.0384(6) 0.0805(4) -0.1104(3)
H16 H 0.1052 0.1195 -0.1206
C21 C 0.3779(5) 0.2976(4) 0.1572(3)
H17 H 0.3557 0.2411 0.1771
H18 H 0.4266 0.3399 0.1887
H19 H 0.4341 0.2823 0.1278
C22 C -0.0904(8) -0.0649(4) -0.1228(4)
H20 H -0.1077 -0.1241 -0.1410
C23 C 0.0092(8) -0.0087(5) -0.1402(4)
H21 H 0.0557 -0.0289 -0.1707
C24 C -0.2419(8) 0.5649(7) 0.1293(4)
H22 H -0.1796 0.5735 0.1692
H23 H -0.3290 0.5448 0.1363
H24 H -0.2526 0.6234 0.1065
Cu1A Cu -0.93748(5) 0.33362(3) 0.44015(2)
Cu1B Cu 0.06252(5) 0.66638(3) -0.05985(2)
Cu2B Cu -0.12532(4) 0.49449(3) -0.05193(2)
Cu2_2 Cu -0.87468(4) -0.49449(3) 0.05193(2)
Cu2A Cu -0.12532(4) -0.49449(3) 0.44807(2)
Cu2A_2 Cu -1.12532(4) 0.50551(3) 0.44807(2)
O1B O -0.0123(2) 0.58880(16) -0.00035(11)
O1A O -1.0123(2) 0.41120(16) 0.49965(11)
H1B H -0.0634 0.6260 0.0250
H1A H -1.0634 0.3740 0.5250
O2A O -0.6416(2) 0.09781(17) 0.27467(11)
O3A O -0.4213(3) -0.14794(18) 0.32368(13)
O4A O -1.2650(3) 0.42033(19) 0.40647(13)
O4B O -0.2650(3) 0.57967(19) -0.09353(13)
C1A C -0.1714(4) -0.3368(3) 0.3571(2)
H2A H -0.0916 -0.3574 0.3458
O5A O -0.9204(3) 0.22412(18) 0.49648(14)
C2A C -0.6973(4) 0.1510(2) 0.31473(17)
N1A N -0.2204(3) -0.3872(2) 0.39887(15)
N1_2 N 0.2204(3) 0.6128(2) 0.10113(15)
N1B N -0.2204(3) 0.3872(2) -0.10113(15)
O6A O -0.9269(3) 0.4528(2) 0.38950(15)
N2A N -0.8312(3) 0.2618(2) 0.38793(15)
C3A C -0.5352(3) 0.0335(2) 0.30271(16)
H3A H -0.5660 -0.0063 0.3333
H4A H -0.4552 0.0681 0.3242
C5A C -0.6607(4) 0.1477(3) 0.37956(17)
H5A H -0.5898 0.1089 0.3997
C6A C -0.3775(3) -0.0891(2) 0.27830(17)
H6A H -0.3508 -0.1269 0.2456
H7A H -0.3001 -0.0508 0.2984
O7A O -1.1383(3) 0.3071(2) 0.37586(15)
C7A C -0.2316(4) -0.2561(3) 0.32948(19)
H8A H -0.1931 -0.2226 0.3007
C8A C -1.2489(4) 0.3440(3) 0.37735(19)
O8A O -1.0927(3) 0.2519(2) 0.54410(17)
C9A C -0.9960(4) 0.2010(3) 0.5334(2)
C10A C -0.8630(4) 0.2666(3) 0.32492(18)
H9A H -0.9311 0.3083 0.3060
C11A C -0.7999(4) 0.2129(3) 0.28671(18)
H10A H -0.8253 0.2179 0.2429
C12A C -0.3501(4) -0.2257(2) 0.34537(18)
O9A O -0.7425(4) 0.4742(3) 0.46171(18)
C13A C -0.7304(4) 0.2025(3) 0.41391(18)
H11A H -0.7067 0.1985 0.4578
C14A C -0.4056(4) -0.2793(3) 0.3876(2)
H12A H -0.4867 -0.2614 0.3988
C15A C -0.8384(7) -0.0367(4) 0.5809(3)
H13A H -0.7705 -0.0749 0.5710
C16A C -0.9653(5) 0.1076(3) 0.5662(2)
C17A C -0.3382(4) -0.3589(3) 0.4123(2)
H14A H -0.3763 -0.3952 0.4398
C18A C -0.8140(5) 0.4911(3) 0.4087(2)
C19A C -0.8662(5) 0.0494(3) 0.5525(2)
H15A H -0.8164 0.0689 0.5230
C20A C -1.0384(6) 0.0805(4) 0.6104(3)
H16A H -1.1052 0.1195 0.6206
C21A C -1.3779(5) 0.2976(4) 0.3428(3)
H17A H -1.3557 0.2411 0.3229
H18A H -1.4266 0.3399 0.3113
H19A H -1.4341 0.2823 0.3722
C22A C -0.9096(8) -0.0649(4) 0.6228(4)
H20A H -0.8923 -0.1241 0.6410
C23A C -1.0092(8) -0.0087(5) 0.6402(4)
H21A H -1.0557 -0.0289 0.6707
C24A C -0.7581(8) 0.5649(7) 0.3707(4)
H22A H -0.8204 0.5735 0.3308
H23A H -0.6710 0.5448 0.3637
H24A H -0.7474 0.6234 0.3935
O10 O 0.5128(4) 0.6218(4) -0.0263(3)
H25 H 0.6069 0.6216 -0.0030
H26 H 0.4643 0.6774 -0.0170
O11 O 0.6262(5) 0.7949(5) 0.0116(3)
H27 H 0.7203 0.7952 0.0349
H28 H 0.5753 0.8495 0.0206
O12 O 0.4973(12) 0.9482(8) 0.0429(5)
H29 H 0.5902 0.9573 0.0665
H30 H 0.4344 0.9962 0.0511
loop_
_geom_bond_atom_site_label_1
_geom_bond_atom_site_label_2
_geom_bond_site_symmetry_1
_geom_bond_site_symmetry_2
Cu1 O1 1_555 1_555
Cu2 O1 1_555 1_555
O1 H1 1_555 1_555
O2 C2 1_555 1_555
O3 C6 1_555 1_555
O4 Cu2 1_555 1_555
C1 H2 1_555 1_555
O5 Cu1 1_555 1_555
C2 C5 1_555 1_555
N1 C1 1_555 1_555
O6 Cu1 1_555 1_555
N2 Cu1 1_555 1_555
C3 O2 1_555 1_555
H3 C3 1_555 1_555
H4 C3 1_555 1_555
C4 C3 1_555 1_555
C5 H5 1_555 1_555
C6 C4 1_555 1_555
H6 C6 1_555 1_555
H7 C6 1_555 1_555
O7 Cu1 1_555 1_555
C7 C1 1_555 1_555
H8 C7 1_555 1_555
C8 O4 1_555 1_555
O8 C9 1_555 1_555
C9 O5 1_555 1_555
C10 N2 1_555 1_555
H9 C10 1_555 1_555
C11 C2 1_555 1_555
H10 C11 1_555 1_555
C12 O3 1_555 1_555
O9 C18 1_555 1_555
C13 N2 1_555 1_555
H11 C13 1_555 1_555
C14 C12 1_555 1_555
H12 C14 1_555 1_555
C15 H13 1_555 1_555
C16 C9 1_555 1_555
C17 N1 1_555 1_555
H14 C17 1_555 1_555
C18 O6 1_555 1_555
C19 C15 1_555 1_555
H15 C19 1_555 1_555
C20 C16 1_555 1_555
H16 C20 1_555 1_555
C21 C8 1_555 1_555
H17 C21 1_555 1_555
H18 C21 1_555 1_555
H19 C21 1_555 1_555
C22 C15 1_555 1_555
H20 C22 1_555 1_555
C23 C20 1_555 1_555
H21 C23 1_555 1_555
C24 C18 1_555 1_555
H22 C24 1_555 1_555
H23 C24 1_555 1_555
H24 C24 1_555 1_555
O10 H25 1_555 1_555
H26 O10 1_555 1_555
O11 H27 1_555 1_555
H28 O11 1_555 1_555
O12 H29 1_555 1_555
H30 O12 1_555 1_555
Cu1A O1A 1_555 1_555
Cu1B O1B 1_555 1_555
Cu2B O1 1_555 1_555
Cu2_2 N1 1_555 1_555
Cu2A N1A 1_555 1_555
Cu2A_2 O1A 1_555 1_555
O1B Cu2 1_555 1_555
O1A H1A 1_555 1_555
H1B O1B 1_555 1_555
O2A C2A 1_555 1_555
O3A C6A 1_555 1_555
O4A Cu2A_2 1_555 1_555
O4B Cu2B 1_555 1_555
C1A H2A 1_555 1_555
O5A Cu1A 1_555 1_555
C2A C5A 1_555 1_555
N1A C1A 1_555 1_555
N1_2 Cu2 1_555 1_555
N1B Cu2B 1_555 1_555
O6A Cu1A 1_555 1_555
N2A Cu1A 1_555 1_555
C3A C4 1_555 1_555
H3A C3A 1_555 1_555
H4A C3A 1_555 1_555
C5A H5A 1_555 1_555
C6A C4 1_555 1_555
H6A C6A 1_555 1_555
H7A C6A 1_555 1_555
O7A Cu1A 1_555 1_555
C7A C1A 1_555 1_555
H8A C7A 1_555 1_555
C8A O4A 1_555 1_555
O8A C9A 1_555 1_555
C9A O5A 1_555 1_555
C10A N2A 1_555 1_555
H9A C10A 1_555 1_555
C11A C2A 1_555 1_555
H10A C11A 1_555 1_555
C12A O3A 1_555 1_555
O9A C18A 1_555 1_555
C13A N2A 1_555 1_555
H11A C13A 1_555 1_555
C14A C12A 1_555 1_555
H12A C14A 1_555 1_555
C15A H13A 1_555 1_555
C16A C9A 1_555 1_555
C17A N1A 1_555 1_555
H14A C17A 1_555 1_555
C18A O6A 1_555 1_555
C19A C15A 1_555 1_555
H15A C19A 1_555 1_555
C20A C16A 1_555 1_555
H16A C20A 1_555 1_555
C21A C8A 1_555 1_555
H17A C21A 1_555 1_555
H18A C21A 1_555 1_555
H19A C21A 1_555 1_555
C22A C15A 1_555 1_555
H20A C22A 1_555 1_555
C23A C20A 1_555 1_555
H21A C23A 1_555 1_555
C24A C18A 1_555 1_555
H22A C24A 1_555 1_555
H23A C24A 1_555 1_555
H24A C24A 1_555 1_555
C5 C13 1_555 1_555
O7 C8 1_555 1_555
C7 C12 1_555 1_555
C10 C11 1_555 1_555
C14 C17 1_555 1_555
C16 C19 1_555 1_555
C22 C23 1_555 1_555
Cu2B O1B 1_555 1_555
O2A C3A 1_555 1_555
C5A C13A 1_555 1_555
O7A C8A 1_555 1_555
C7A C12A 1_555 1_555
C10A C11A 1_555 1_555
C14A C17A 1_555 1_555
C16A C19A 1_555 1_555
C22A C23A 1_555 1_555

#END
