
#######################################################################
#
#                 Cambridge Crystallographic Data Centre
#                                CCDC 
#
#######################################################################
#
# If this CIF has been generated from an entry in the Cambridge 
# Structural Database, then it will include bibliographic, chemical, 
# crystal, experimental, refinement or atomic coordinate data resulting 
# from the CCDC's data processing and validation procedures.
#
#######################################################################

data_ICARAH
_symmetry_cell_setting           rhombohedral
_symmetry_space_group_name_H-M   'R 3 c'
_symmetry_Int_Tables_number      161
_space_group_name_Hall           "P 3* -2'n"
loop_
_symmetry_equiv_pos_site_id
_symmetry_equiv_pos_as_xyz
1 x,y,z
2 z,x,y
3 y,z,x
4 1/2+y,1/2+x,1/2+z
5 1/2+x,1/2+z,1/2+y
6 1/2+z,1/2+y,1/2+x
_cell_length_a                   27.411(3)
_cell_length_b                   27.411(3)
_cell_length_c                   27.411(3)
_cell_angle_alpha                90.00
_cell_angle_beta                 90.00
_cell_angle_gamma                90.00
_cell_volume                     20595.6
loop_
_atom_site_label
_atom_site_type_symbol
_atom_site_fract_x
_atom_site_fract_y
_atom_site_fract_z
C1 C -0.0255(7) 0.0921(6) 0.4804(5)
C2 C 0.1246(3) -0.0063(3) 0.4092(3)
H1 H 0.1584 -0.0081 0.4084
C3 C 0.0979(5) -0.0112(3) 0.3663(3)
H2 H 0.1139 -0.0162 0.3368
C4 C 0.0473(5) -0.0086(4) 0.3675(3)
H3 H 0.0294 -0.0118 0.3388
C5 C 0.0233(3) -0.0011(4) 0.4116(4)
H4 H -0.0106 0.0006 0.4124
C6 C 0.0500(2) 0.0037(3) 0.4544(3)
C7 C 0.1006(2) 0.0011(2) 0.4532(3)
N1 N 0.1273(2) 0.0060(3) 0.4961(3)
C8 C 0.1033(3) 0.0134(3) 0.5402(3)
H5 H 0.1211 0.0167 0.5688
C9 C 0.0527(3) 0.0161(4) 0.5414(3)
C10 C 0.0260(2) 0.0112(4) 0.4985(4)
C11 C -0.1219(2) -0.0867(3) 0.5127(2)
H6 H -0.1558 -0.0890 0.5118
C12 C -0.0939(2) -0.1284(3) 0.5201(2)
H7 H -0.1091 -0.1585 0.5242
C13 C -0.0434(2) -0.1250(3) 0.5214(2)
H8 H -0.0246 -0.1529 0.5264
C14 C -0.0208(2) -0.0800(3) 0.5154(2)
H9 H 0.0131 -0.0778 0.5162
C15 C -0.0487(2) -0.0384(3) 0.5079(2)
C16 C -0.0993(2) -0.0417(3) 0.5066(2)
N2 N -0.1273(2) -0.0001(3) 0.4992(2)
C17 C -0.1047(2) 0.0449(3) 0.4931(2)
H10 H -0.1234 0.0727 0.4882
C18 C -0.0541(2) 0.0482(3) 0.4945(2)
C19 C -0.0262(2) 0.0066(3) 0.5019(2)
C20 C -0.0926(2) 0.1970(3) 0.4227(2)
H11 H -0.0849 0.2288 0.4101
H12 H -0.1215 0.1989 0.4424
H13 H -0.0981 0.1749 0.3960
C21 C -0.0531(9) 0.1798(11) 0.4516(14)
H14 H -0.0495 0.1997 0.4806
H15 H -0.0229 0.1811 0.4332
C22 C 0.0406(9) 0.0291(7) 0.5889(11)
C23 C 0.0502(8) 0.0461(11) 0.6718(10)
H16 H 0.0244 0.0703 0.6700
H17 H 0.0382 0.0166 0.6872
C24 C 0.0924(7) 0.0640(7) 0.6938(9)
H18 H 0.0850 0.0748 0.7263
H19 H 0.1048 0.0910 0.6752
H20 H 0.1166 0.0387 0.6951
O1 O 0.0101(6) 0.1018(5) 0.4874(6)
O2 O -0.0655(6) 0.1250(8) 0.4662(7)
O3 O 0.0744(7) 0.0365(9) 0.6225(8)
O4 O -0.0074(6) 0.0262(4) 0.5971(5)
Cu1 Cu -0.29766(6) -0.00043(5) 0.50046(6)
Cu2 Cu -0.20159(6) 0.00050(5) 0.49939(5)
C25 C -0.2851(6) -0.2163(6) 0.7470(7)
H21 H -0.3136 -0.1996 0.7397
C26 C -0.2456(7) -0.2123(6) 0.7177(6)
C27 C -0.2572(8) -0.0621(5) 0.5664(5)
C28 C -0.2523(6) -0.1056(5) 0.6009(5)
C29 C -0.2916(6) -0.1253(6) 0.6223(6)
H22 H -0.3221 -0.1146 0.6119
C30 C -0.2903(5) -0.1603(6) 0.6586(6)
H23 H -0.3193 -0.1739 0.6699
C31 C -0.2475(6) -0.1749(4) 0.6779(6)
C32 C -0.2047(5) -0.1536(4) 0.6551(5)
H24 H -0.1748 -0.1651 0.6663
C33 C -0.2028(5) -0.1205(4) 0.6210(4)
H25 H -0.1737 -0.1071 0.6099
O5 O -0.2927(4) -0.0495(4) 0.5472(4)
O6 O -0.2109(4) -0.0509(3) 0.5502(4)
C34 C -0.4363(5) 0.2557(7) 0.0661(5)
C35 C -0.3964(5) 0.2542(6) 0.1038(6)
C36 C -0.3804(6) 0.2095(6) 0.1174(6)
H26 H -0.3957 0.1820 0.1048
C37 C -0.3412(5) 0.2034(4) 0.1502(5)
H27 H -0.3260 0.1734 0.1551
C38 C -0.3273(5) 0.2443(6) 0.1739(5)
C39 C -0.3421(5) 0.2920(6) 0.1584(6)
H28 H -0.3284 0.3186 0.1744
C40 C -0.3741(5) 0.3012(6) 0.1224(6)
H29 H -0.3816 0.3321 0.1106
C41 C -0.0647(5) 0.4318(5) 0.2547(7)
C42 C -0.1058(4) 0.3944(4) 0.2552(6)
C43 C -0.1265(5) 0.3746(5) 0.2937(5)
H30 H -0.1175 0.3864 0.3242
C44 C -0.1610(6) 0.3371(5) 0.2921(6)
H31 H -0.1719 0.3225 0.3208
C45 C -0.1780(5) 0.3226(6) 0.2491(6)
C46 C -0.1538(6) 0.3404(4) 0.2064(6)
H32 H -0.1655 0.3293 0.1766
C47 C -0.1154(5) 0.3719(4) 0.2052(5)
H33 H -0.0973 0.3789 0.1774
C48 C -0.2563(8) 0.0649(6) 0.4351(5)
C49 C -0.2548(6) 0.1057(5) 0.3979(6)
C50 C -0.2961(6) 0.1263(6) 0.3804(6)
H34 H -0.3260 0.1176 0.3937
C51 C -0.2943(5) 0.1610(5) 0.3421(5)
H35 H -0.3230 0.1722 0.3278
C52 C -0.2495(6) 0.1781(6) 0.3263(5)
C53 C -0.2055(5) 0.1552(5) 0.3445(5)
H36 H -0.1759 0.1649 0.3312
C54 C -0.2049(5) 0.1219(5) 0.3785(4)
H37 H -0.1759 0.1088 0.3903
C55 C -0.2847(5) 0.2497(5) 0.2148(6)
C56 C -0.2462(7) 0.2839(6) 0.2147(6)
H38 H -0.2445 0.3058 0.1888
C57 C -0.2175(6) 0.2511(6) 0.2796(6)
H39 H -0.1940 0.2524 0.3041
C58 C -0.2459(7) 0.2148(6) 0.2854(6)
C59 C -0.2853(5) 0.2115(5) 0.2488(5)
H40 H -0.3083 0.1865 0.2484
C60 C -0.2124(7) 0.2868(5) 0.2491(6)
O7 O -0.0529(4) 0.4538(4) 0.2878(4)
O8 O -0.2926(4) 0.0510(5) 0.4528(4)
O9 O -0.4475(3) 0.2886(4) 0.0524(3)
O10 O -0.0498(3) 0.4515(4) 0.2081(4)
O11 O -0.2098(4) 0.0534(3) 0.4491(3)
O12 O -0.4487(4) 0.2061(4) 0.0560(3)
C1A C -0.5196(5) -0.0255(7) 1.0921(6)
C1B C 0.0921(6) -0.5196(5) 0.9745(7)
C2A C -0.5908(3) 0.1246(3) 0.9937(3)
C2B C -0.0063(3) -0.5908(3) 1.1246(3)
H1A H -0.5916 0.1584 0.9919
H1B H -0.0081 -0.5916 1.1584
C3A C -0.6337(3) 0.0979(5) 0.9888(3)
C3B C -0.0112(3) -0.6337(3) 1.0979(5)
H2A H -0.6632 0.1139 0.9838
H2B H -0.0162 -0.6632 1.1139
C4A C -0.6325(3) 0.0473(5) 0.9914(4)
C4B C -0.0086(4) -0.6325(3) 1.0473(5)
H3A H -0.6612 0.0294 0.9882
H3B H -0.0118 -0.6612 1.0294
C5A C -0.5884(4) 0.0233(3) 0.9989(4)
C5B C -0.0011(4) -0.5884(4) 1.0233(3)
H4A H -0.5876 -0.0106 1.0006
H4B H 0.0006 -0.5876 0.9894
C6A C -0.5456(3) 0.0500(2) 1.0037(3)
C6B C 0.0037(3) -0.5456(3) 1.0500(2)
C7A C -0.5468(3) 0.1006(2) 1.0011(2)
C7B C 0.0011(2) -0.5468(3) 1.1006(2)
N1A N -0.5039(3) 0.1273(2) 1.0060(3)
N1B N 0.0060(3) -0.5039(3) 1.1273(2)
N1C N -0.4940(3) -0.3727(2) 0.9961(3)
N1D N -0.3727(2) -0.0039(3) 0.5060(3)
N1E N -0.0039(3) -0.4940(3) 0.6273(2)
C8A C -0.4598(3) 0.1033(3) 1.0134(3)
C8B C 0.0134(3) -0.4598(3) 1.1033(3)
H5A H -0.4312 0.1211 1.0167
H5B H 0.0167 -0.4312 1.1211
C9A C -0.4586(3) 0.0527(3) 1.0161(4)
C9B C 0.0161(4) -0.4586(3) 1.0527(3)
C10A C -0.5015(4) 0.0260(2) 1.0112(4)
C10B C 0.0112(4) -0.5015(4) 1.0260(2)
C11A C -0.4873(2) -0.1219(2) 0.9133(3)
C11B C -0.0867(3) -0.4873(2) 0.8781(2)
H6A H -0.4882 -0.1558 0.9110
H6B H -0.0890 -0.4882 0.8442
C12A C -0.4799(2) -0.0939(2) 0.8716(3)
C12B C -0.1284(3) -0.4799(2) 0.9061(2)
H7A H -0.4758 -0.1091 0.8415
H7B H -0.1585 -0.4758 0.8909
C13A C -0.4786(2) -0.0434(2) 0.8750(3)
C13B C -0.1250(3) -0.4786(2) 0.9566(2)
H8A H -0.4736 -0.0246 0.8471
H8B H -0.1529 -0.4736 0.9754
C14A C -0.4846(2) -0.0208(2) 0.9200(3)
C14B C -0.0800(3) -0.4846(2) 0.9792(2)
H9A H -0.4838 0.0131 0.9222
H9B H -0.0778 -0.4838 1.0131
C15A C -0.4921(2) -0.0487(2) 0.9616(3)
C15B C -0.0384(3) -0.4921(2) 0.9513(2)
C16A C -0.4934(2) -0.0993(2) 0.9583(3)
C16B C -0.0417(3) -0.4934(2) 0.9007(2)
N2A N -0.5008(2) -0.1273(2) 0.9999(3)
N2B N -0.0001(3) -0.5008(2) 0.8727(2)
C17A C -0.5069(2) -0.1047(2) 1.0449(3)
C17B C 0.0449(3) -0.5069(2) 0.8953(2)
H10A H -0.5118 -0.1234 1.0727
H10B H 0.0727 -0.5118 0.8766
C18A C -0.5055(2) -0.0541(2) 1.0482(3)
C18B C 0.0482(3) -0.5055(2) 0.9459(2)
C19A C -0.4981(2) -0.0262(2) 1.0066(3)
C19B C 0.0066(3) -0.4981(2) 0.9738(2)
C20A C -0.5773(2) -0.0926(2) 1.1970(3)
C20B C 0.1970(3) -0.5773(2) 0.9074(2)
H11A H -0.5899 -0.0849 1.2288
H11B H 0.2288 -0.5899 0.9151
H12A H -0.5576 -0.1215 1.1989
H12B H 0.1989 -0.5576 0.8785
H13A H -0.6040 -0.0981 1.1749
H13B H 0.1749 -0.6040 0.9019
C21A C -0.5484(14) -0.0531(9) 1.1798(11)
C21B C 0.1798(11) -0.5484(14) 0.9469(9)
H14A H -0.5194 -0.0495 1.1997
H14B H 0.1997 -0.5194 0.9505
H15A H -0.5668 -0.0229 1.1811
H15B H 0.1811 -0.5668 0.9771
C22A C -0.4111(11) 0.0406(9) 1.0291(7)
C22B C 0.0291(7) -0.4111(11) 1.0406(9)
C23A C -0.3282(10) 0.0502(8) 1.0461(11)
C23B C 0.0461(11) -0.3282(10) 1.0502(8)
H16A H -0.3300 0.0244 1.0703
H16B H 0.0703 -0.3300 1.0244
H17A H -0.3128 0.0382 1.0166
H17B H 0.0166 -0.3128 1.0382
C24A C -0.3062(9) 0.0924(7) 1.0640(7)
C24B C 0.0640(7) -0.3062(9) 1.0924(7)
H18A H -0.2737 0.0850 1.0748
H18B H 0.0748 -0.2737 1.0850
H19A H -0.3248 0.1048 1.0910
H19B H 0.0910 -0.3248 1.1048
H20A H -0.3049 0.1166 1.0387
H20B H 0.0387 -0.3049 1.1166
O1A O -0.5126(6) 0.0101(6) 1.1018(5)
O1B O 0.1018(5) -0.5126(6) 1.0101(6)
O2A O -0.5338(7) -0.0655(6) 1.1250(8)
O2B O 0.1250(8) -0.5338(7) 0.9345(6)
O3A O -0.3775(8) 0.0744(7) 1.0365(9)
O3B O 0.0365(9) -0.3775(8) 1.0744(7)
O4A O -0.4029(5) -0.0074(6) 1.0262(4)
O4B O 0.0262(4) -0.4029(5) 0.9926(6)
Cu1A Cu -0.49954(6) -0.29766(6) 0.99957(5)
Cu1B Cu -0.00043(5) -0.49954(6) 0.70234(6)
Cu1C Cu -0.50043(5) 0.20234(6) 0.00046(6)
Cu1C_2 Cu -0.50043(5) 0.20234(6) 1.00046(6)
Cu1C_3 Cu 0.49957(5) -0.79766(6) 1.00046(6)
Cu1D Cu -0.79766(6) 0.00046(6) 1.49957(5)
Cu1D_2 Cu 0.20234(6) -0.99954(6) 0.49957(5)
Cu1D_3 Cu 0.20234(6) 0.00046(6) 0.49957(5)
Cu1E Cu -0.99954(6) -0.50043(5) 1.20234(6)
Cu1E_2 Cu 0.00046(6) -0.50043(5) 1.20234(6)
Cu1E_3 Cu 0.00046(6) 0.49957(5) 0.20234(6)
Cu2A Cu -0.50061(5) -0.20159(6) 1.00050(5)
Cu2B Cu 0.00050(5) -0.50061(5) 0.79841(6)
Cu2C Cu -0.49950(5) 0.29841(6) -0.00061(5)
Cu2C_2 Cu 0.50050(5) -0.70159(6) 0.99939(5)
Cu2D Cu -0.70159(6) -0.00061(5) 1.50050(5)
Cu2D_2 Cu 0.29841(6) -1.00061(5) 0.50050(5)
Cu2E Cu -1.00061(5) -0.49950(5) 1.29841(6)
Cu2E_2 Cu -0.00061(5) 0.50050(5) 0.29841(6)
C25A C -0.2530(7) -0.2851(6) 0.7837(6)
C25B C -0.2163(6) -0.2530(7) 0.7149(6)
H21A H -0.2603 -0.3136 0.8004
H21B H -0.1996 -0.2603 0.6864
C26A C -0.2823(6) -0.2456(7) 0.7877(6)
C26B C -0.2123(6) -0.2823(6) 0.7544(7)
C27A C -0.4336(5) -0.2572(8) 0.9379(5)
C27B C -0.0621(5) -0.4336(5) 0.7428(8)
C28A C -0.3991(5) -0.2523(6) 0.8944(5)
C28B C -0.1056(5) -0.3991(5) 0.7477(6)
C29A C -0.3777(6) -0.2916(6) 0.8747(6)
C29B C -0.1253(6) -0.3777(6) 0.7084(6)
H22A H -0.3881 -0.3221 0.8854
H22B H -0.1146 -0.3881 0.6779
C30A C -0.3414(6) -0.2903(5) 0.8397(6)
C30B C -0.1603(6) -0.3414(6) 0.7097(5)
H23A H -0.3301 -0.3193 0.8261
H23B H -0.1739 -0.3301 0.6807
C31A C -0.3221(6) -0.2475(6) 0.8251(4)
C31B C -0.1749(4) -0.3221(6) 0.7525(6)
C32A C -0.3449(5) -0.2047(5) 0.8464(4)
C32B C -0.1536(4) -0.3449(5) 0.7953(5)
H24A H -0.3337 -0.1748 0.8349
H24B H -0.1651 -0.3337 0.8252
C33A C -0.3790(4) -0.2028(5) 0.8795(4)
C33B C -0.1205(4) -0.3790(4) 0.7972(5)
H25A H -0.3901 -0.1737 0.8929
H25B H -0.1071 -0.3901 0.8263
O5A O -0.4528(4) -0.2927(4) 0.9505(4)
O5B O -0.0495(4) -0.4528(4) 0.7073(4)
O6A O -0.4498(4) -0.2109(4) 0.9491(3)
O6B O -0.0509(3) -0.4498(4) 0.7891(4)
C34A C -0.9339(5) -0.4363(5) 1.2557(7)
C34B C 0.2557(7) -0.9339(5) 0.5637(5)
C35A C -0.8962(6) -0.3964(5) 1.2542(6)
C35B C 0.2542(6) -0.8962(6) 0.6036(5)
C36A C -0.8826(6) -0.3804(6) 1.2095(6)
C36B C 0.2095(6) -0.8826(6) 0.6196(6)
H26A H -0.8952 -0.3957 1.1820
H26B H 0.1820 -0.8952 0.6043
C37A C -0.8498(5) -0.3412(5) 1.2034(4)
C37B C 0.2034(4) -0.8498(5) 0.6588(5)
H27A H -0.8449 -0.3260 1.1734
H27B H 0.1734 -0.8449 0.6740
C38A C -0.8261(5) -0.3273(5) 1.2443(6)
C38B C 0.2443(6) -0.8261(5) 0.6727(5)
C39A C -0.8416(6) -0.3421(5) 1.2920(6)
C39B C 0.2920(6) -0.8416(6) 0.6579(5)
H28A H -0.8256 -0.3284 1.3186
H28B H 0.3186 -0.8256 0.6716
C40A C -0.8776(6) -0.3741(5) 1.3012(6)
C40B C 0.3012(6) -0.8776(6) 0.6259(5)
H29A H -0.8894 -0.3816 1.3321
H29B H 0.3321 -0.8894 0.6184
C41A C -0.7453(7) -0.0647(5) 1.4318(5)
C41B C 0.4318(5) -0.7453(7) 0.9353(5)
C42A C -0.7448(6) -0.1058(4) 1.3944(4)
C42B C 0.3944(4) -0.7448(6) 0.8942(4)
C43A C -0.7063(5) -0.1265(5) 1.3746(5)
C43B C 0.3746(5) -0.7063(5) 0.8735(5)
H30A H -0.6758 -0.1175 1.3864
H30B H 0.3864 -0.6758 0.8825
C44A C -0.7079(6) -0.1610(6) 1.3371(5)
C44B C 0.3371(5) -0.7079(6) 0.8390(6)
H31A H -0.6792 -0.1719 1.3225
H31B H 0.3225 -0.6792 0.8281
C45A C -0.7509(6) -0.1780(5) 1.3226(6)
C45B C 0.3226(6) -0.7509(6) 0.8220(5)
C46A C -0.7936(6) -0.1538(6) 1.3404(4)
C46B C 0.3404(4) -0.7936(6) 0.8462(6)
H32A H -0.8234 -0.1655 1.3293
H32B H 0.3293 -0.8234 0.8345
C47A C -0.7948(5) -0.1154(5) 1.3719(4)
C47B C 0.3719(4) -0.7948(5) 0.8846(5)
H33A H -0.8226 -0.0973 1.3789
H33B H 0.3789 -0.8226 0.9027
C48A C -0.5649(5) -0.2563(8) 1.0649(6)
C48B C 0.0649(6) -0.5649(5) 0.7437(8)
C49A C -0.6021(6) -0.2548(6) 1.1057(5)
C49B C 0.1057(5) -0.6021(6) 0.7452(6)
C50A C -0.6196(6) -0.2961(6) 1.1263(6)
C50B C 0.1263(6) -0.6196(6) 0.7039(6)
H34A H -0.6063 -0.3260 1.1176
H34B H 0.1176 -0.6063 0.6740
C51A C -0.6579(5) -0.2943(5) 1.1610(5)
C51B C 0.1610(5) -0.6579(5) 0.7057(5)
H35A H -0.6722 -0.3230 1.1722
H35B H 0.1722 -0.6722 0.6770
C52A C -0.6737(5) -0.2495(6) 1.1781(6)
C52B C 0.1781(6) -0.6737(5) 0.7505(6)
C53A C -0.6555(5) -0.2055(5) 1.1552(5)
C53B C 0.1552(5) -0.6555(5) 0.7945(5)
H36A H -0.6688 -0.1759 1.1649
H36B H 0.1649 -0.6688 0.8241
C54A C -0.6215(4) -0.2049(5) 1.1219(5)
C54B C 0.1219(5) -0.6215(4) 0.7951(5)
H37A H -0.6097 -0.1759 1.1088
H37B H 0.1088 -0.6097 0.8241
C55A C -0.7852(6) -0.2847(5) 1.2497(5)
C55B C 0.2497(5) -0.7852(6) 0.7153(5)
C56A C -0.7853(6) -0.2462(7) 1.2839(6)
C56B C 0.2839(6) -0.7853(6) 0.7538(7)
H38A H -0.8112 -0.2445 1.3058
H38B H 0.3058 -0.8112 0.7555
C57A C -0.7204(6) -0.2175(6) 1.2511(6)
C57B C 0.2511(6) -0.7204(6) 0.7825(6)
H39A H -0.6959 -0.1940 1.2524
H39B H 0.2524 -0.6959 0.8060
C58A C -0.7146(6) -0.2459(7) 1.2148(6)
C58B C 0.2148(6) -0.7146(6) 0.7541(7)
C59A C -0.7512(5) -0.2853(5) 1.2115(5)
C59B C 0.2115(5) -0.7512(5) 0.7147(5)
H40A H -0.7516 -0.3083 1.1865
H40B H 0.1865 -0.7516 0.6917
C60A C -0.7509(6) -0.2124(7) 1.2868(5)
C60B C 0.2868(5) -0.7509(6) 0.7876(7)
O7A O -0.7122(4) -0.0529(4) 1.4538(4)
O7B O 0.4538(4) -0.7122(4) 0.9471(4)
O7C O -0.0462(4) -0.5529(4) 0.7878(4)
O7D O -0.5529(4) -0.2122(4) 0.9538(4)
O7E O -0.2122(4) -0.0462(4) 0.4471(4)
O8A O -0.5472(4) -0.2926(4) 1.0510(5)
O8B O 0.0510(5) -0.5472(4) 0.7074(4)
O9A O -0.9476(3) -0.4475(3) 1.2886(4)
O9B O 0.2886(4) -0.9476(3) 0.5525(3)
O9C O -0.2114(4) 0.0525(3) 0.5524(3)
O9D O 0.0525(3) -0.4476(3) 0.7886(4)
O9E O -0.4476(3) -0.2114(4) 1.0525(3)
O10A O -0.7919(4) -0.0498(3) 1.4515(4)
O10B O 0.4515(4) -0.7919(4) 0.9502(3)
O10C O -0.0485(4) -0.5498(3) 0.7081(4)
O10D O -0.5498(3) -0.2919(4) 0.9515(4)
O10E O -0.2919(4) -0.0485(4) 0.4502(3)
O11A O -0.5509(3) -0.2098(4) 1.0534(3)
O11B O 0.0534(3) -0.5509(3) 0.7902(4)
O12A O -0.9440(3) -0.4487(4) 1.2061(4)
O12B O 0.2061(4) -0.9440(3) 0.5513(4)
O12C O -0.2939(4) 0.0513(4) 0.5560(3)
O12D O 0.0513(4) -0.4440(3) 0.7061(4)
O12E O -0.4440(3) -0.2939(4) 1.0513(4)
loop_
_geom_bond_atom_site_label_1
_geom_bond_atom_site_label_2
_geom_bond_site_symmetry_1
_geom_bond_site_symmetry_2
C1 C18 1_555 1_555
C2 H1 1_555 1_555
C3 C2 1_555 1_555
H2 C3 1_555 1_555
C4 C3 1_555 1_555
H3 C4 1_555 1_555
C5 C4 1_555 1_555
H4 C5 1_555 1_555
C6 C5 1_555 1_555
C7 C2 1_555 1_555
N1 C7 1_555 1_555
C8 N1 1_555 1_555
H5 C8 1_555 1_555
C9 C8 1_555 1_555
C10 C6 1_555 1_555
C11 H6 1_555 1_555
C12 C11 1_555 1_555
H7 C12 1_555 1_555
C13 C12 1_555 1_555
H8 C13 1_555 1_555
C14 C13 1_555 1_555
H9 C14 1_555 1_555
C15 C14 1_555 1_555
C16 C11 1_555 1_555
N2 C16 1_555 1_555
C17 N2 1_555 1_555
H10 C17 1_555 1_555
C18 C17 1_555 1_555
C19 C10 1_555 1_555
C20 H11 1_555 1_555
H12 C20 1_555 1_555
H13 C20 1_555 1_555
C21 C20 1_555 1_555
H14 C21 1_555 1_555
H15 C21 1_555 1_555
C22 C9 1_555 1_555
C23 H16 1_555 1_555
H17 C23 1_555 1_555
C24 C23 1_555 1_555
H18 C24 1_555 1_555
H19 C24 1_555 1_555
H20 C24 1_555 1_555
O1 C1 1_555 1_555
O2 C1 1_555 1_555
O3 C22 1_555 1_555
O4 C22 1_555 1_555
Cu1 Cu2 1_555 1_555
Cu2 N2 1_555 1_555
C25 H21 1_555 1_555
C26 C25 1_555 1_555
C27 C28 1_555 1_555
C28 C29 1_555 1_555
C29 H22 1_555 1_555
C30 C29 1_555 1_555
H23 C30 1_555 1_555
C31 C26 1_555 1_555
C32 C31 1_555 1_555
H24 C32 1_555 1_555
C33 C28 1_555 1_555
H25 C33 1_555 1_555
O5 Cu1 1_555 1_555
O6 Cu2 1_555 1_555
C34 C35 1_555 1_555
C35 C36 1_555 1_555
C36 H26 1_555 1_555
C37 C36 1_555 1_555
H27 C37 1_555 1_555
C38 C37 1_555 1_555
C39 C38 1_555 1_555
H28 C39 1_555 1_555
C40 C35 1_555 1_555
H29 C40 1_555 1_555
C41 C42 1_555 1_555
C42 C43 1_555 1_555
C43 H30 1_555 1_555
C44 C43 1_555 1_555
H31 C44 1_555 1_555
C45 C44 1_555 1_555
C46 C45 1_555 1_555
H32 C46 1_555 1_555
C47 C42 1_555 1_555
H33 C47 1_555 1_555
C48 C49 1_555 1_555
C49 C50 1_555 1_555
C50 H34 1_555 1_555
C51 C50 1_555 1_555
H35 C51 1_555 1_555
C52 C51 1_555 1_555
C53 C52 1_555 1_555
H36 C53 1_555 1_555
C54 C49 1_555 1_555
H37 C54 1_555 1_555
C55 C38 1_555 1_555
C56 C55 1_555 1_555
H38 C56 1_555 1_555
C57 H39 1_555 1_555
C58 C52 1_555 1_555
C59 C55 1_555 1_555
H40 C59 1_555 1_555
C60 C45 1_555 1_555
O7 C41 1_555 1_555
O8 Cu1 1_555 1_555
O9 C34 1_555 1_555
O10 C41 1_555 1_555
O11 Cu2 1_555 1_555
O12 C34 1_555 1_555
C1A C18A 1_555 1_555
C1B C18B 1_555 1_555
C2A H1A 1_555 1_555
C2B H1B 1_555 1_555
C3A C2A 1_555 1_555
C3B C2B 1_555 1_555
H2A C3A 1_555 1_555
H2B C3B 1_555 1_555
C4A C3A 1_555 1_555
C4B C3B 1_555 1_555
H3A C4A 1_555 1_555
H3B C4B 1_555 1_555
C5A C4A 1_555 1_555
C5B C4B 1_555 1_555
H4A C5A 1_555 1_555
H4B C5B 1_555 1_555
C6A C5A 1_555 1_555
C6B C5B 1_555 1_555
C7A C2A 1_555 1_555
C7B C2B 1_555 1_555
N1A C7A 1_555 1_555
N1B C7B 1_555 1_555
N1C Cu1A 1_555 1_555
N1D Cu1 1_555 1_555
N1E Cu1B 1_555 1_555
C8A N1A 1_555 1_555
C8B N1B 1_555 1_555
H5A C8A 1_555 1_555
H5B C8B 1_555 1_555
C9A C8A 1_555 1_555
C9B C8B 1_555 1_555
C10A C6A 1_555 1_555
C10B C6B 1_555 1_555
C11A H6A 1_555 1_555
C11B H6B 1_555 1_555
C12A C11A 1_555 1_555
C12B C11B 1_555 1_555
H7A C12A 1_555 1_555
H7B C12B 1_555 1_555
C13A C12A 1_555 1_555
C13B C12B 1_555 1_555
H8A C13A 1_555 1_555
H8B C13B 1_555 1_555
C14A C13A 1_555 1_555
C14B C13B 1_555 1_555
H9A C14A 1_555 1_555
H9B C14B 1_555 1_555
C15A C14A 1_555 1_555
C15B C14B 1_555 1_555
C16A C11A 1_555 1_555
C16B C11B 1_555 1_555
N2A C16A 1_555 1_555
N2B C16B 1_555 1_555
C17A N2A 1_555 1_555
C17B N2B 1_555 1_555
H10A C17A 1_555 1_555
H10B C17B 1_555 1_555
C18A C17A 1_555 1_555
C18B C17B 1_555 1_555
C19A C10A 1_555 1_555
C19B C10B 1_555 1_555
C20A H11A 1_555 1_555
C20B H11B 1_555 1_555
H12A C20A 1_555 1_555
H12B C20B 1_555 1_555
H13A C20A 1_555 1_555
H13B C20B 1_555 1_555
C21A C20A 1_555 1_555
C21B C20B 1_555 1_555
H14A C21A 1_555 1_555
H14B C21B 1_555 1_555
H15A C21A 1_555 1_555
H15B C21B 1_555 1_555
C22A C9A 1_555 1_555
C22B C9B 1_555 1_555
C23A H16A 1_555 1_555
C23B H16B 1_555 1_555
H17A C23A 1_555 1_555
H17B C23B 1_555 1_555
C24A C23A 1_555 1_555
C24B C23B 1_555 1_555
H18A C24A 1_555 1_555
H18B C24B 1_555 1_555
H19A C24A 1_555 1_555
H19B C24B 1_555 1_555
H20A C24A 1_555 1_555
H20B C24B 1_555 1_555
O1A C1A 1_555 1_555
O1B C1B 1_555 1_555
O2A C1A 1_555 1_555
O2B C1B 1_555 1_555
O3A C22A 1_555 1_555
O3B C22B 1_555 1_555
O4A C22A 1_555 1_555
O4B C22B 1_555 1_555
Cu1A Cu2A 1_555 1_555
Cu1B Cu2B 1_555 1_555
Cu1C O12 1_555 1_555
Cu1C_2 N1A 1_555 1_555
Cu1C_3 Cu2C_2 1_555 1_555
Cu1D Cu2D 1_555 1_555
Cu1D_2 Cu2D_2 1_555 1_555
Cu1D_3 N1 1_555 1_555
Cu1E Cu2E 1_555 1_555
Cu1E_2 N1B 1_555 1_555
Cu1E_3 O10 1_555 1_555
Cu2A N2A 1_555 1_555
Cu2B N2B 1_555 1_555
Cu2C O9 1_555 1_555
Cu2C_2 O7B 1_555 1_555
Cu2D O7A 1_555 1_555
Cu2D_2 O9B 1_555 1_555
Cu2E O9A 1_555 1_555
Cu2E_2 O7 1_555 1_555
C25A H21A 1_555 1_555
C25B C26 1_555 1_555
H21B C25B 1_555 1_555
C26A C25 1_555 1_555
C26B C25A 1_555 1_555
C27A C28A 1_555 1_555
C27B C28B 1_555 1_555
C28A C29A 1_555 1_555
C28B C29B 1_555 1_555
C29A H22A 1_555 1_555
C29B H22B 1_555 1_555
C30A C29A 1_555 1_555
C30B C29B 1_555 1_555
H23A C30A 1_555 1_555
H23B C30B 1_555 1_555
C31A C26A 1_555 1_555
C31B C26B 1_555 1_555
C32A C31A 1_555 1_555
C32B C31B 1_555 1_555
H24A C32A 1_555 1_555
H24B C32B 1_555 1_555
C33A C28A 1_555 1_555
C33B C28B 1_555 1_555
H25A C33A 1_555 1_555
H25B C33B 1_555 1_555
O5A Cu1A 1_555 1_555
O5B Cu1B 1_555 1_555
O6A Cu2A 1_555 1_555
O6B Cu2B 1_555 1_555
C34A C35A 1_555 1_555
C34B C35B 1_555 1_555
C35A C36A 1_555 1_555
C35B C36B 1_555 1_555
C36A H26A 1_555 1_555
C36B H26B 1_555 1_555
C37A C36A 1_555 1_555
C37B C36B 1_555 1_555
H27A C37A 1_555 1_555
H27B C37B 1_555 1_555
C38A C37A 1_555 1_555
C38B C37B 1_555 1_555
C39A C38A 1_555 1_555
C39B C38B 1_555 1_555
H28A C39A 1_555 1_555
H28B C39B 1_555 1_555
C40A C35A 1_555 1_555
C40B C35B 1_555 1_555
H29A C40A 1_555 1_555
H29B C40B 1_555 1_555
C41A C42A 1_555 1_555
C41B C42B 1_555 1_555
C42A C43A 1_555 1_555
C42B C43B 1_555 1_555
C43A H30A 1_555 1_555
C43B H30B 1_555 1_555
C44A C43A 1_555 1_555
C44B C43B 1_555 1_555
H31A C44A 1_555 1_555
H31B C44B 1_555 1_555
C45A C44A 1_555 1_555
C45B C44B 1_555 1_555
C46A C45A 1_555 1_555
C46B C45B 1_555 1_555
H32A C46A 1_555 1_555
H32B C46B 1_555 1_555
C47A C42A 1_555 1_555
C47B C42B 1_555 1_555
H33A C47A 1_555 1_555
H33B C47B 1_555 1_555
C48A C49A 1_555 1_555
C48B C49B 1_555 1_555
C49A C50A 1_555 1_555
C49B C50B 1_555 1_555
C50A H34A 1_555 1_555
C50B H34B 1_555 1_555
C51A C50A 1_555 1_555
C51B C50B 1_555 1_555
H35A C51A 1_555 1_555
H35B C51B 1_555 1_555
C52A C51A 1_555 1_555
C52B C51B 1_555 1_555
C53A C52A 1_555 1_555
C53B C52B 1_555 1_555
H36A C53A 1_555 1_555
H36B C53B 1_555 1_555
C54A C49A 1_555 1_555
C54B C49B 1_555 1_555
H37A C54A 1_555 1_555
H37B C54B 1_555 1_555
C55A C38A 1_555 1_555
C55B C38B 1_555 1_555
C56A C55A 1_555 1_555
C56B C55B 1_555 1_555
H38A C56A 1_555 1_555
H38B C56B 1_555 1_555
C57A H39A 1_555 1_555
C57B H39B 1_555 1_555
C58A C52A 1_555 1_555
C58B C52B 1_555 1_555
C59A C55A 1_555 1_555
C59B C55B 1_555 1_555
H40A C59A 1_555 1_555
H40B C59B 1_555 1_555
C60A C45A 1_555 1_555
C60B C45B 1_555 1_555
O7A C41A 1_555 1_555
O7B C41B 1_555 1_555
O7C Cu2B 1_555 1_555
O7D Cu2A 1_555 1_555
O7E Cu2 1_555 1_555
O8A Cu1A 1_555 1_555
O8B Cu1B 1_555 1_555
O9A C34A 1_555 1_555
O9B C34B 1_555 1_555
O9C Cu2 1_555 1_555
O9D Cu2B 1_555 1_555
O9E Cu2A 1_555 1_555
O10A Cu1D 1_555 1_555
O10B Cu1C_3 1_555 1_555
O10C Cu1B 1_555 1_555
O10D Cu1A 1_555 1_555
O10E Cu1 1_555 1_555
O11A Cu2A 1_555 1_555
O11B Cu2B 1_555 1_555
O12A Cu1E 1_555 1_555
O12B Cu1D_2 1_555 1_555
O12C Cu1 1_555 1_555
O12D Cu1B 1_555 1_555
O12E Cu1A 1_555 1_555
C6 C7 1_555 1_555
C9 C10 1_555 1_555
C15 C16 1_555 1_555
C15 C19 1_555 1_555
C18 C19 1_555 1_555
C21 O2 1_555 1_555
C23 O3 1_555 1_555
C27 O5 1_555 1_555
C27 O6 1_555 1_555
C30 C31 1_555 1_555
C32 C33 1_555 1_555
C39 C40 1_555 1_555
C46 C47 1_555 1_555
C48 O8 1_555 1_555
C48 O11 1_555 1_555
C53 C54 1_555 1_555
C56 C60 1_555 1_555
C57 C58 1_555 1_555
C57 C60 1_555 1_555
C58 C59 1_555 1_555
C6A C7A 1_555 1_555
C6B C7B 1_555 1_555
C9A C10A 1_555 1_555
C9B C10B 1_555 1_555
C15A C16A 1_555 1_555
C15A C19A 1_555 1_555
C15B C16B 1_555 1_555
C15B C19B 1_555 1_555
C18A C19A 1_555 1_555
C18B C19B 1_555 1_555
C21A O2A 1_555 1_555
C21B O2B 1_555 1_555
C23A O3A 1_555 1_555
C23B O3B 1_555 1_555
Cu1C Cu2C 1_555 1_555
Cu1E_3 Cu2E_2 1_555 1_555
C25A C26A 1_555 1_555
C25B C26B 1_555 1_555
C27A O5A 1_555 1_555
C27A O6A 1_555 1_555
C27B O5B 1_555 1_555
C27B O6B 1_555 1_555
C30A C31A 1_555 1_555
C30B C31B 1_555 1_555
C32A C33A 1_555 1_555
C32B C33B 1_555 1_555
C34A O12A 1_555 1_555
C34B O12B 1_555 1_555
C39A C40A 1_555 1_555
C39B C40B 1_555 1_555
C41A O10A 1_555 1_555
C41B O10B 1_555 1_555
C46A C47A 1_555 1_555
C46B C47B 1_555 1_555
C48A O8A 1_555 1_555
C48A O11A 1_555 1_555
C48B O8B 1_555 1_555
C48B O11B 1_555 1_555
C53A C54A 1_555 1_555
C53B C54B 1_555 1_555
C56A C60A 1_555 1_555
C56B C60B 1_555 1_555
C57A C58A 1_555 1_555
C57A C60A 1_555 1_555
C57B C58B 1_555 1_555
C57B C60B 1_555 1_555
C58A C59A 1_555 1_555
C58B C59B 1_555 1_555

#END
