
#######################################################################
#
#                 Cambridge Crystallographic Data Centre
#                                CCDC 
#
#######################################################################
#
# If this CIF has been generated from an entry in the Cambridge 
# Structural Database, then it will include bibliographic, chemical, 
# crystal, experimental, refinement or atomic coordinate data resulting 
# from the CCDC's data processing and validation procedures.
#
#######################################################################

data_ICOWON
_symmetry_cell_setting           triclinic
_symmetry_space_group_name_H-M   'P -1'
_symmetry_Int_Tables_number      2
_space_group_name_Hall           '-P 1'
loop_
_symmetry_equiv_pos_site_id
_symmetry_equiv_pos_as_xyz
1 x,y,z
2 -x,-y,-z
_cell_length_a                   8.7544(13)
_cell_length_b                   10.0037(17)
_cell_length_c                   11.7895(18)
_cell_angle_alpha                74.695(19)
_cell_angle_beta                 69.848(17)
_cell_angle_gamma                86.182(19)
_cell_volume                     934.561
loop_
_atom_site_label
_atom_site_type_symbol
_atom_site_fract_x
_atom_site_fract_y
_atom_site_fract_z
La1 La 0.745341(19) 0.477529(17) 0.512395(15)
C1 C 0.4341(3) 0.4119(3) 0.7390(3)
O1 O 0.5728(2) 0.3926(2) 0.7495(2)
O2 O 0.4227(2) 0.4539(2) 0.63000(19)
C2 C 0.2827(4) 0.3881(4) 0.8525(3)
H1 H 0.2333 0.2996 0.8636
H2 H 0.2062 0.4594 0.8375
C3 C 0.3098(4) 0.3888(4) 0.9732(3)
H3 H 0.3735 0.3093 0.9948
H4 H 0.3729 0.4716 0.9587
C4 C 0.1549(4) 0.3848(4) 1.0826(3)
H5 H 0.0870 0.4604 1.0597
H6 H 0.0954 0.2985 1.1022
C5 C 0.1884(4) 0.3965(4) 1.1969(3)
H7 H 0.2435 0.3138 1.2252
H8 H 0.2632 0.4746 1.1722
C6 C 0.0440(3) 0.4145(3) 1.3055(3)
O3 O -0.0986(2) 0.3822(2) 1.3169(2)
O4 O 0.0668(2) 0.4643(2) 1.38822(19)
C7 C 0.7639(4) 0.1678(3) 0.5954(3)
O5 O 0.8627(3) 0.2502(2) 0.6005(2)
O6 O 0.6432(3) 0.2145(2) 0.5624(2)
C8 C 0.7925(5) 0.0140(3) 0.6286(4)
H9 H 0.7244 -0.0330 0.6005
H10 H 0.7598 -0.0199 0.7188
C9 C 0.9680(5) -0.0223(4) 0.5712(4)
H11 H 0.9782 -0.1218 0.5983
H12 H 1.0354 0.0215 0.6023
O9 O 0.8716(3) 0.7064(2) 0.3467(2)
O10 O 0.6223(3) 0.7004(3) 0.5883(3)
H17 H 0.814(4) 0.774(3) 0.347(4)
H18 H 0.650(6) 0.768(4) 0.527(4)
H20 H 0.531(3) 0.703(5) 0.639(4)
H22 H 0.951(4) 0.731(5) 0.358(5)
La1A La 0.254659(19) 0.522471(17) 0.487605(15)
La1_2 La -0.254659(19) 0.477529(17) 1.512395(15)
La1A_2 La 0.254659(19) 0.522471(17) 1.487605(15)
La1A_3 La 1.254659(19) -0.477529(17) 0.487605(15)
La1A_4 La 1.254659(19) 0.522471(17) -0.512395(15)
La1_3 La 0.745341(19) 0.477529(17) -0.487605(15)
C1A C 0.5659(3) 0.5881(3) 0.2610(3)
O1A O 0.4272(2) 0.6074(2) 0.2505(2)
O2A O 0.5773(2) 0.5461(2) 0.37000(19)
C2A C 0.7173(4) 0.6119(4) 0.1475(3)
H1A H 0.7667 0.7004 0.1364
H2A H 0.7938 0.5406 0.1625
C3A C 0.6902(4) 0.6112(4) 0.0268(3)
H3A H 0.6265 0.6907 0.0052
H4A H 0.6271 0.5284 0.0413
C4A C 0.8451(4) 0.6152(4) -0.0826(3)
H5A H 0.9130 0.5396 -0.0597
H6A H 0.9046 0.7015 -0.1022
C5A C 0.8116(4) 0.6035(4) -0.1969(3)
H7A H 0.7565 0.6862 -0.2252
H8A H 0.7368 0.5254 -0.1722
C6A C 0.9560(3) 0.5855(3) -0.3055(3)
O3A O 1.0986(2) 0.6178(2) -0.3169(2)
O3_2 O 0.9014(2) 0.3822(2) 0.3169(2)
O3A_2 O 0.0986(2) 0.6178(2) 0.6831(2)
O4A O 0.9332(2) 0.5357(2) -0.38822(19)
O4_2 O 1.0668(2) 0.4643(2) 0.38822(19)
O4A_2 O 0.9332(2) 0.5357(2) 0.61178(19)
O4_3 O 0.0668(2) 0.4643(2) 0.38822(19)
O4A_3 O -0.0668(2) 0.5357(2) 0.61178(19)
C7A C 1.2361(4) -0.1678(3) 0.4046(3)
O5A O 1.1373(3) -0.2502(2) 0.3995(2)
O5A_2 O 0.1373(3) 0.7498(2) 0.3995(2)
O6A O 1.3568(3) -0.2145(2) 0.4376(2)
O6A_2 O 0.3568(3) 0.7855(2) 0.4376(2)
C8A C 1.2075(5) -0.0140(3) 0.3714(4)
H9A H 1.2756 0.0330 0.3995
H10A H 1.2402 0.0199 0.2812
C9A C 1.0320(5) 0.0223(4) 0.4288(4)
H11A H 1.0218 0.1218 0.4017
H12A H 0.9646 -0.0215 0.3977
O9A O 0.1284(3) 0.2936(2) 0.6533(2)
O10A O 0.3777(3) 0.2996(3) 0.4117(3)
H17A H 0.186(4) 0.226(3) 0.653(4)
H18A H 0.350(6) 0.232(4) 0.473(4)
H20A H 0.469(3) 0.297(5) 0.361(4)
H22A H 0.049(4) 0.269(5) 0.642(5)
C10 C 0.7186(6) 0.1493(5) 0.9769(4)
O7 O 0.6574(4) 0.1547(3) 0.8879(3)
O8 O 0.7344(7) 0.2491(4) 1.0101(4)
C11 C 0.7654(5) 0.0056(5) 1.0313(5)
H13 H 0.7696 -0.0505 0.9746
H14 H 0.6788 -0.0333 1.1092
C12 C 0.9270(7) -0.0103(6) 1.0575(5)
H15 H 0.9322 0.0564 1.1027
H16 H 0.9288 -0.1022 1.1108
H23 H 0.630(6) 0.231(3) 0.857(5)
C10A C 1.2814(6) -0.1493(5) 1.0231(4)
O7A O 1.3426(4) -0.1547(3) 1.1121(3)
O8A O 1.2656(7) -0.2491(4) 0.9899(4)
C11A C 1.2346(5) -0.0056(5) 0.9687(5)
H13A H 1.2304 0.0505 1.0254
H14A H 1.3212 0.0333 0.8908
C12A C 1.0730(7) 0.0103(6) 0.9425(5)
H15A H 1.0678 -0.0564 0.8973
H16A H 1.0712 0.1022 0.8892
H23A H 1.370(6) -0.231(3) 1.143(5)
O11 O -0.3139(4) 0.2225(3) 1.2678(3)
H21 H -0.290(6) 0.243(5) 1.1914(19)
H24 H -0.236(6) 0.249(7) 1.278(7)
O12 O 0.3527(3) 0.0784(3) 0.6284(3)
H19 H 0.448(3) 0.104(4) 0.605(4)
H25 H 0.343(7) -0.006(2) 0.651(5)
loop_
_geom_bond_atom_site_label_1
_geom_bond_atom_site_label_2
_geom_bond_site_symmetry_1
_geom_bond_site_symmetry_2
La1 O1 1_555 1_555
C1 O1 1_555 1_555
O2 La1 1_555 1_555
C2 C1 1_555 1_555
H1 C2 1_555 1_555
H2 C2 1_555 1_555
C3 C2 1_555 1_555
H3 C3 1_555 1_555
H4 C3 1_555 1_555
C4 C3 1_555 1_555
H5 C4 1_555 1_555
H6 C4 1_555 1_555
C5 C4 1_555 1_555
H7 C5 1_555 1_555
H8 C5 1_555 1_555
C6 C5 1_555 1_555
O3 C6 1_555 1_555
O4 C6 1_555 1_555
C7 O5 1_555 1_555
O5 La1 1_555 1_555
O6 La1 1_555 1_555
C8 C7 1_555 1_555
H9 C8 1_555 1_555
H10 C8 1_555 1_555
C9 C8 1_555 1_555
H11 C9 1_555 1_555
H12 C9 1_555 1_555
C10 O7 1_555 1_555
O7 H23 1_555 1_555
O8 C10 1_555 1_555
C11 C10 1_555 1_555
H13 C11 1_555 1_555
H14 C11 1_555 1_555
C12 C11 1_555 1_555
H15 C12 1_555 1_555
H16 C12 1_555 1_555
O9 La1 1_555 1_555
O10 La1 1_555 1_555
O11 H21 1_555 1_555
O12 H19 1_555 1_555
H17 O9 1_555 1_555
H18 O10 1_555 1_555
H20 O10 1_555 1_555
H22 O9 1_555 1_555
H24 O11 1_555 1_555
H25 O12 1_555 1_555
La1A O2 1_555 1_555
La1_2 O3 1_555 1_555
La1A_2 O4 1_555 1_555
La1A_3 O5A 1_555 1_555
La1A_4 O3A 1_555 1_555
La1_3 O4A 1_555 1_555
C1A O1A 1_555 1_555
O1A La1A 1_555 1_555
O2A La1 1_555 1_555
C2A C1A 1_555 1_555
H1A C2A 1_555 1_555
H2A C2A 1_555 1_555
C3A C2A 1_555 1_555
H3A C3A 1_555 1_555
H4A C3A 1_555 1_555
C4A C3A 1_555 1_555
H5A C4A 1_555 1_555
H6A C4A 1_555 1_555
C5A C4A 1_555 1_555
H7A C5A 1_555 1_555
H8A C5A 1_555 1_555
C6A C5A 1_555 1_555
O3A C6A 1_555 1_555
O3_2 La1 1_555 1_555
O3A_2 La1A 1_555 1_555
O4A La1A_4 1_555 1_555
O4_2 La1 1_555 1_555
O4A_2 La1 1_555 1_555
O4_3 La1A 1_555 1_555
O4A_3 La1A 1_555 1_555
C7A O5A 1_555 1_555
O5A_2 La1A 1_555 1_555
O6A La1A_3 1_555 1_555
O6A_2 La1A 1_555 1_555
C8A C7A 1_555 1_555
H9A C8A 1_555 1_555
H10A C8A 1_555 1_555
C9A C9 1_555 1_555
H11A C9A 1_555 1_555
H12A C9A 1_555 1_555
C10A O7A 1_555 1_555
O7A H23A 1_555 1_555
O8A C10A 1_555 1_555
C11A C10A 1_555 1_555
H13A C11A 1_555 1_555
H14A C11A 1_555 1_555
C12A C12 1_555 1_555
H15A C12A 1_555 1_555
H16A C12A 1_555 1_555
O9A La1A 1_555 1_555
O10A La1A 1_555 1_555
H17A O9A 1_555 1_555
H18A O10A 1_555 1_555
H20A O10A 1_555 1_555
H22A O9A 1_555 1_555
C1 O2 1_555 1_555
O4 La1_2 1_555 1_555
C7 O6 1_555 1_555
La1A O2A 1_555 1_555
C1A O2A 1_555 1_555
C6A O4A 1_555 1_555
C7A O6A 1_555 1_555
C8A C9A 1_555 1_555
C11A C12A 1_555 1_555

#END
