
#######################################################################
#
#                 Cambridge Crystallographic Data Centre
#                                CCDC 
#
#######################################################################
#
# If this CIF has been generated from an entry in the Cambridge 
# Structural Database, then it will include bibliographic, chemical, 
# crystal, experimental, refinement or atomic coordinate data resulting 
# from the CCDC's data processing and validation procedures.
#
#######################################################################

data_IDIWOH05
_symmetry_cell_setting           triclinic
_symmetry_space_group_name_H-M   'P 1'
_symmetry_Int_Tables_number      1
_space_group_name_Hall           'P 1'
loop_
_symmetry_equiv_pos_site_id
_symmetry_equiv_pos_as_xyz
1 x,y,z
_cell_length_a                   16.23684
_cell_length_b                   13.96850
_cell_length_c                   6.85483
_cell_angle_alpha                90.00040
_cell_angle_beta                 90.08141
_cell_angle_gamma                90.00001
_cell_volume                     1554.7
loop_
_atom_site_label
_atom_site_type_symbol
_atom_site_fract_x
_atom_site_fract_y
_atom_site_fract_z
V1 V 0.748948 0.739193 0.218591
V2 V 0.748949 0.760763 0.718591
V3 V 0.248951 0.260762 0.218594
V4 V 0.248950 0.239193 0.718594
O1 O 0.662089 0.657299 0.332285
O2 O 1.162091 1.157297 -0.167712
O3 O 0.837322 0.665493 0.665650
O4 O 0.337324 0.165493 0.165653
O5 O 1.162818 0.336896 0.663529
O6 O 0.662818 -0.163102 0.163527
O7 O 0.333567 0.344873 0.335029
O8 O 0.833566 0.844873 -0.164972
O9 O 0.337325 0.334462 0.665652
O10 O 0.837325 0.834460 0.165650
O11 O 1.162092 0.342658 0.332286
O12 O 0.662091 -0.157339 -0.167716
O13 O 0.833564 0.655080 0.335026
O14 O 0.333567 0.155083 -0.164971
O15 O 0.662816 0.663062 0.663529
O16 O 1.162819 1.163058 0.163531
O17 O 0.748817 0.695621 0.994244
O18 O 0.248821 0.195620 0.494247
O19 O 0.248821 0.304334 0.994248
O20 O 0.748819 0.804335 0.494244
C1 C 0.527969 0.536528 0.326722
C2 C 1.027972 1.036523 -0.173278
C3 C 0.969730 0.536452 0.681036
C4 C 0.469731 0.036453 0.181037
C5 C 1.035230 0.472260 0.680522
C6 C 0.535231 -0.027739 0.180523
C7 C 0.462358 0.472866 0.327311
C8 C 0.962361 0.972862 -0.172689
C9 C 0.469732 0.463504 0.681037
C10 C 0.969734 0.963502 0.181037
C11 C 1.027970 0.463428 0.326721
C12 C 0.527974 -0.036565 -0.173280
C13 C 0.962358 0.527089 0.327310
C14 C 0.462362 0.027096 -0.172691
C15 C 0.535232 0.527697 0.680524
C16 C 1.035234 1.027694 0.180523
C17 C 0.564813 0.564421 0.503267
C18 C 0.634863 0.632949 0.499858
C19 C 1.064816 1.064418 0.003268
C20 C 1.134866 1.132946 -0.000140
C21 C 0.932887 0.564176 0.504390
C22 C 0.863008 0.632956 0.501995
C23 C 0.432890 0.064179 0.004390
C24 C 0.363010 0.132958 0.001997
C25 C 1.064814 0.435535 0.503267
C26 C 1.134865 0.367008 0.499859
C27 C 0.564816 -0.064461 0.003266
C28 C 0.634866 -0.132989 -0.000143
C29 C 0.432888 0.435779 0.504391
C30 C 0.363010 0.366998 0.501998
C31 C 0.932890 0.935776 0.004391
C32 C 0.863010 0.866997 0.001996
H1 H 0.551622 0.565893 0.190722
H2 H 1.051626 1.065887 -0.309278
H3 H 0.946195 0.566104 0.816969
H4 H 0.446194 0.066103 0.316970
H5 H 1.064686 0.449981 0.816017
H6 H 0.564685 -0.050021 0.316018
H7 H 0.432822 0.450848 0.191817
H8 H 0.932826 0.950842 -0.308183
H9 H 0.446198 0.433851 0.816970
H10 H 0.946199 0.933850 0.316971
H11 H 1.051624 0.434063 0.190721
H12 H 0.551630 -0.065928 -0.309281
H13 H 0.932824 0.549107 0.191815
H14 H 0.432829 0.049116 -0.308185
H15 H 0.564688 0.549977 0.816018
H16 H 1.064689 1.049975 0.316018
V1_2 V 0.748948 -0.260807 0.218591
V1_3 V 0.748948 0.739193 1.218591
V2_2 V 0.748949 -0.239237 -0.281409
V2_3 V 0.748949 0.760763 -0.281409
V3_2 V 0.248951 0.260762 1.218594
V3_3 V 1.248951 0.260762 0.218594
V3_4 V 1.248951 1.260762 0.218594
V4_2 V 0.248950 0.239193 -0.281406
V4_3 V 1.248950 0.239193 0.718594
V4_4 V 1.248950 1.239193 -0.281406
O2_2 O 0.162091 0.157297 0.832288
O5_2 O 0.162818 0.336896 0.663529
O6_2 O 0.662818 0.836898 0.163527
O8_2 O 0.833566 0.844873 0.835028
O11_2 O 0.162092 0.342658 0.332286
O12_2 O 0.662091 0.842661 0.832284
O14_2 O 0.333567 0.155083 0.835029
O16_2 O 0.162819 0.163058 0.163531
O17_2 O 0.748817 0.695621 -0.005756
O19_2 O 0.248821 0.304334 -0.005752
loop_
_geom_bond_atom_site_label_1
_geom_bond_atom_site_label_2
_geom_bond_site_symmetry_1
_geom_bond_site_symmetry_2
V1 O1 1_555 1_555
V2 O3 1_555 1_555
V3 O4 1_555 1_555
V4 O9 1_555 1_555
O1 C18 1_555 1_555
O2 C20 1_555 1_555
O3 C22 1_555 1_555
O4 C24 1_555 1_555
O5 C26 1_555 1_555
O6 C28 1_555 1_555
O7 V3 1_555 1_555
O8 C32 1_555 1_555
O9 C30 1_555 1_555
O10 V1 1_555 1_555
O11 C26 1_555 1_555
O12 C28 1_555 1_555
O13 V1 1_555 1_555
O14 C24 1_555 1_555
O15 V2 1_555 1_555
O16 C20 1_555 1_555
O17 V2 1_555 1_555
O18 V3 1_555 1_555
O19 V4 1_555 1_555
O20 V1 1_555 1_555
C1 C7 1_555 1_555
C2 C8 1_555 1_555
C3 C5 1_555 1_555
C4 C6 1_555 1_555
C5 C25 1_555 1_555
C6 C27 1_555 1_555
C7 C29 1_555 1_555
C8 C31 1_555 1_555
C9 C15 1_555 1_555
C10 C16 1_555 1_555
C11 C13 1_555 1_555
C12 C14 1_555 1_555
C13 C21 1_555 1_555
C14 C23 1_555 1_555
C15 C17 1_555 1_555
C16 C19 1_555 1_555
C17 C1 1_555 1_555
C18 O15 1_555 1_555
C19 C2 1_555 1_555
C20 C19 1_555 1_555
C21 C3 1_555 1_555
C22 O13 1_555 1_555
C23 C4 1_555 1_555
C24 C23 1_555 1_555
C25 C11 1_555 1_555
C26 C25 1_555 1_555
C27 C12 1_555 1_555
C28 C27 1_555 1_555
C29 C9 1_555 1_555
C30 O7 1_555 1_555
C31 C10 1_555 1_555
C32 O10 1_555 1_555
H1 C1 1_555 1_555
H2 C2 1_555 1_555
H3 C3 1_555 1_555
H4 C4 1_555 1_555
H5 C5 1_555 1_555
H6 C6 1_555 1_555
H7 C7 1_555 1_555
H8 C8 1_555 1_555
H9 C9 1_555 1_555
H10 C10 1_555 1_555
H11 C11 1_555 1_555
H12 C12 1_555 1_555
H13 C13 1_555 1_555
H14 C14 1_555 1_555
H15 C15 1_555 1_555
H16 C16 1_555 1_555
V1_2 O6 1_555 1_555
V1_3 O17 1_555 1_555
V2_2 O12 1_555 1_555
V2_3 O8 1_555 1_555
V3_2 O19 1_555 1_555
V3_3 O11 1_555 1_555
V3_4 O16 1_555 1_555
V4_2 O14 1_555 1_555
V4_3 O5 1_555 1_555
V4_4 O2 1_555 1_555
O2_2 V4 1_555 1_555
O5_2 V4 1_555 1_555
O6_2 V1 1_555 1_555
O8_2 V2 1_555 1_555
O11_2 V3 1_555 1_555
O12_2 V2 1_555 1_555
O14_2 V4 1_555 1_555
O16_2 V3 1_555 1_555
O17_2 V1 1_555 1_555
O19_2 V3 1_555 1_555
V2 O20 1_555 1_555
V4 O18 1_555 1_555
C17 C18 1_555 1_555
C21 C22 1_555 1_555
C29 C30 1_555 1_555
C31 C32 1_555 1_555
V2_3 O17_2 1_555 1_555
V4_2 O19_2 1_555 1_555

#END
