
#######################################################################
#
#                 Cambridge Crystallographic Data Centre
#                                CCDC 
#
#######################################################################
#
# If this CIF has been generated from an entry in the Cambridge 
# Structural Database, then it will include bibliographic, chemical, 
# crystal, experimental, refinement or atomic coordinate data resulting 
# from the CCDC's data processing and validation procedures.
#
#######################################################################

data_IDIWOH02
_symmetry_cell_setting           triclinic
_symmetry_space_group_name_H-M   'P 1'
_symmetry_Int_Tables_number      1
_space_group_name_Hall           'P 1'
loop_
_symmetry_equiv_pos_site_id
_symmetry_equiv_pos_as_xyz
1 x,y,z
_cell_length_a                   16.40819
_cell_length_b                   13.83627
_cell_length_c                   6.84223
_cell_angle_alpha                90.00011
_cell_angle_beta                 90.17879
_cell_angle_gamma                90.00002
_cell_volume                     1553.37
loop_
_atom_site_label
_atom_site_type_symbol
_atom_site_fract_x
_atom_site_fract_y
_atom_site_fract_z
V1 V 0.749009 0.738727 0.218503
V2 V 0.749010 0.761231 0.718503
V3 V 0.249009 0.261230 0.218505
V4 V 0.249009 0.238728 0.718505
O1 O 0.661311 0.656679 0.330495
O2 O 1.161314 1.156676 -0.169503
O3 O 0.838802 0.666154 0.667122
O4 O 0.338804 0.166157 0.167124
O5 O 1.163703 0.338814 0.662583
O6 O 0.663705 -0.161183 0.162582
O7 O 0.331879 0.348165 0.336593
O8 O 0.831882 0.848161 -0.163408
O9 O 0.338802 0.333803 0.667125
O10 O 0.838804 0.833800 0.167124
O11 O 1.161310 0.343278 0.330497
O12 O 0.661314 -0.156717 -0.169504
O13 O 0.831878 0.651791 0.336591
O14 O 0.331881 0.151796 -0.163408
O15 O 0.663704 0.661144 0.662581
O16 O 1.163706 1.161140 0.162582
O17 O 0.748923 0.695474 0.992716
O18 O 0.248925 0.195474 0.492718
O19 O 0.248923 0.304484 0.992718
O20 O 0.748925 0.804484 0.492716
C1 C 0.526308 0.538440 0.326663
C2 C 1.026314 1.038431 -0.173337
C3 C 0.971397 0.538312 0.681284
C4 C 0.471395 0.038308 0.181286
C5 C 1.036994 0.474578 0.680160
C6 C 0.536992 -0.025425 0.180162
C7 C 0.460560 0.475312 0.327914
C8 C 0.960567 0.975304 -0.172087
C9 C 0.471397 0.461648 0.681286
C10 C 0.971399 0.961645 0.181286
C11 C 1.026303 0.461509 0.326665
C12 C 0.526314 -0.038473 -0.173338
C13 C 0.960555 0.524637 0.327915
C14 C 0.460567 0.024654 -0.172088
C15 C 0.536993 0.525381 0.680161
C16 C 1.036995 1.025378 0.180162
C17 C 0.564861 0.563909 0.502728
C18 C 0.635088 0.632069 0.498749
C19 C 1.064865 1.063904 0.002728
C20 C 1.135091 1.132065 -0.001250
C21 C 0.932832 0.563594 0.505128
C22 C 0.862786 0.632042 0.503368
C23 C 0.432836 0.063601 0.005129
C24 C 0.362790 0.132046 0.003369
C25 C 1.064859 0.436045 0.502728
C26 C 1.135087 0.367888 0.498749
C27 C 0.564864 -0.063948 0.002727
C28 C 0.635091 -0.132108 -0.001252
C29 C 0.432834 0.436360 0.505129
C30 C 0.362787 0.367914 0.503369
C31 C 0.932838 0.936355 0.005129
C32 C 0.862791 0.867910 0.003368
H1 H 0.548694 0.569279 0.190595
H2 H 1.048702 1.069269 -0.309406
H3 H 0.949163 0.569501 0.817246
H4 H 0.449155 0.069488 0.317252
H5 H 1.067852 0.454124 0.815186
H6 H 0.567844 -0.045888 0.315190
H7 H 0.429598 0.455177 0.192916
H8 H 0.929605 0.955167 -0.307086
H9 H 0.449159 0.430463 0.817250
H10 H 0.949160 0.930462 0.317251
H11 H 1.048686 0.430666 0.190598
H12 H 0.548704 -0.069309 -0.309408
H13 H 0.929589 0.544767 0.192917
H14 H 0.429607 0.044793 -0.307088
H15 H 0.567848 0.545840 0.815188
H16 H 1.067849 1.045839 0.315189
V1_2 V 0.749009 -0.261273 0.218503
V1_3 V 0.749009 0.738727 1.218503
V2_2 V 0.749010 -0.238769 -0.281497
V2_3 V 0.749010 0.761231 -0.281497
V3_2 V 0.249009 0.261230 1.218505
V3_3 V 1.249009 0.261230 0.218505
V3_4 V 1.249009 1.261230 0.218505
V4_2 V 0.249009 0.238728 -0.281495
V4_3 V 1.249009 0.238728 0.718505
V4_4 V 1.249009 1.238728 -0.281495
O2_2 O 0.161314 0.156676 0.830497
O5_2 O 0.163703 0.338814 0.662583
O6_2 O 0.663705 0.838817 0.162582
O8_2 O 0.831882 0.848161 0.836592
O11_2 O 0.161310 0.343278 0.330497
O12_2 O 0.661314 0.843283 0.830496
O14_2 O 0.331881 0.151796 0.836592
O16_2 O 0.163706 0.161140 0.162582
O17_2 O 0.748923 0.695474 -0.007284
O19_2 O 0.248923 0.304484 -0.007282
loop_
_geom_bond_atom_site_label_1
_geom_bond_atom_site_label_2
_geom_bond_site_symmetry_1
_geom_bond_site_symmetry_2
V1 O1 1_555 1_555
V2 O3 1_555 1_555
V3 O4 1_555 1_555
V4 O9 1_555 1_555
O1 C18 1_555 1_555
O2 C20 1_555 1_555
O3 C22 1_555 1_555
O4 C24 1_555 1_555
O5 C26 1_555 1_555
O6 C28 1_555 1_555
O7 V3 1_555 1_555
O8 C32 1_555 1_555
O9 C30 1_555 1_555
O10 V1 1_555 1_555
O11 C26 1_555 1_555
O12 C28 1_555 1_555
O13 V1 1_555 1_555
O14 C24 1_555 1_555
O15 V2 1_555 1_555
O16 C20 1_555 1_555
O17 V2 1_555 1_555
O18 V3 1_555 1_555
O19 V4 1_555 1_555
O20 V1 1_555 1_555
C1 C7 1_555 1_555
C2 C8 1_555 1_555
C3 C5 1_555 1_555
C4 C6 1_555 1_555
C5 C25 1_555 1_555
C6 C27 1_555 1_555
C7 C29 1_555 1_555
C8 C31 1_555 1_555
C9 C15 1_555 1_555
C10 C16 1_555 1_555
C11 C13 1_555 1_555
C12 C14 1_555 1_555
C13 C21 1_555 1_555
C14 C23 1_555 1_555
C15 C17 1_555 1_555
C16 C19 1_555 1_555
C17 C1 1_555 1_555
C18 O15 1_555 1_555
C19 C2 1_555 1_555
C20 C19 1_555 1_555
C21 C3 1_555 1_555
C22 O13 1_555 1_555
C23 C4 1_555 1_555
C24 C23 1_555 1_555
C25 C11 1_555 1_555
C26 C25 1_555 1_555
C27 C12 1_555 1_555
C28 C27 1_555 1_555
C29 C9 1_555 1_555
C30 O7 1_555 1_555
C31 C10 1_555 1_555
C32 O10 1_555 1_555
H1 C1 1_555 1_555
H2 C2 1_555 1_555
H3 C3 1_555 1_555
H4 C4 1_555 1_555
H5 C5 1_555 1_555
H6 C6 1_555 1_555
H7 C7 1_555 1_555
H8 C8 1_555 1_555
H9 C9 1_555 1_555
H10 C10 1_555 1_555
H11 C11 1_555 1_555
H12 C12 1_555 1_555
H13 C13 1_555 1_555
H14 C14 1_555 1_555
H15 C15 1_555 1_555
H16 C16 1_555 1_555
V1_2 O6 1_555 1_555
V1_3 O17 1_555 1_555
V2_2 O12 1_555 1_555
V2_3 O8 1_555 1_555
V3_2 O19 1_555 1_555
V3_3 O11 1_555 1_555
V3_4 O16 1_555 1_555
V4_2 O14 1_555 1_555
V4_3 O5 1_555 1_555
V4_4 O2 1_555 1_555
O2_2 V4 1_555 1_555
O5_2 V4 1_555 1_555
O6_2 V1 1_555 1_555
O8_2 V2 1_555 1_555
O11_2 V3 1_555 1_555
O12_2 V2 1_555 1_555
O14_2 V4 1_555 1_555
O16_2 V3 1_555 1_555
O17_2 V1 1_555 1_555
O19_2 V3 1_555 1_555
V2 O20 1_555 1_555
V4 O18 1_555 1_555
C17 C18 1_555 1_555
C21 C22 1_555 1_555
C29 C30 1_555 1_555
C31 C32 1_555 1_555
V2_3 O17_2 1_555 1_555
V4_2 O19_2 1_555 1_555

#END
