
#######################################################################
#
#                 Cambridge Crystallographic Data Centre
#                                CCDC 
#
#######################################################################
#
# If this CIF has been generated from an entry in the Cambridge 
# Structural Database, then it will include bibliographic, chemical, 
# crystal, experimental, refinement or atomic coordinate data resulting 
# from the CCDC's data processing and validation procedures.
#
#######################################################################

data_IFAQAI
_symmetry_cell_setting           monoclinic
_symmetry_space_group_name_H-M   'P 21/c'
_symmetry_Int_Tables_number      14
_space_group_name_Hall           '-P 2ybc'
loop_
_symmetry_equiv_pos_site_id
_symmetry_equiv_pos_as_xyz
1 x,y,z
2 -x,1/2+y,1/2-z
3 -x,-y,-z
4 x,1/2-y,1/2+z
_cell_length_a                   17.9266(12)
_cell_length_b                   13.7114(9)
_cell_length_c                   35.321(2)
_cell_angle_alpha                90
_cell_angle_beta                 102.259(2)
_cell_angle_gamma                90
_cell_volume                     8483.89
loop_
_atom_site_label
_atom_site_type_symbol
_atom_site_fract_x
_atom_site_fract_y
_atom_site_fract_z
Mo1 Mo 0.77316(4) 0.95565(5) 0.13510(2)
Mo2 Mo 0.60430(4) 1.06201(5) 0.11332(2)
Mo3 Mo 0.54676(4) 0.70420(5) 0.09757(2)
Mo4 Mo 0.39063(4) 0.80919(5) 0.04554(2)
Mo5 Mo 0.27943(4) 0.90105(5) 0.10095(2)
Mo6 Mo 0.76424(4) 1.03601(5) 0.38552(2)
Mo7 Mo 0.90750(4) 1.12048(5) 0.35021(2)
Mo8 Mo 0.85195(4) 1.21496(5) 0.26199(2)
Mo9 Mo 0.80773(4) 0.85416(5) 0.22310(2)
P1 P 0.62658(12) 0.84353(15) 0.17013(6)
P2 P 0.47442(12) 0.92019(15) 0.13504(7)
P3 P 0.38253(12) 0.68237(15) 0.13177(6)
P4 P 0.26342(12) 0.75224(15) 0.17212(6)
P5 P 0.75586(12) 1.00275(15) 0.28682(6)
P6 P 0.71374(12) 1.08787(15) 0.20699(6)
O1 O 0.8610(3) 1.0073(4) 0.13976(17)
O2 O 0.7971(3) 0.8437(4) 0.16967(15)
O3 O 0.7645(3) 1.0067(4) 0.19647(15)
O4 O 0.7643(3) 0.8884(4) 0.09400(16)
O5 O 0.7119(3) 1.0677(4) 0.11728(16)
O6 O 0.5772(3) 1.1803(4) 0.10377(18)
O7 O 0.5815(3) 1.0072(4) 0.06981(16)
O8 O 0.6438(3) 1.1108(4) 0.17608(16)
O9 O 0.6492(3) 0.9210(4) 0.14273(16)
O10 O 0.6033(3) 0.7604(4) 0.07160(18)
O11 O 0.6121(3) 0.7443(4) 0.14948(17)
O12 O 0.5780(3) 0.5866(4) 0.10033(18)
O13 O 0.4554(3) 0.6965(4) 0.05966(16)
O14 O 0.4832(3) 0.8511(4) 0.10218(16)
O15 O 0.5080(3) 1.0219(4) 0.12983(16)
O16 O 0.4397(3) 0.8694(4) 0.01684(17)
O17 O 0.3173(3) 0.7552(5) 0.01339(18)
O18 O 0.3381(3) 0.9170(4) 0.06296(16)
O19 O 0.3932(3) 0.9298(4) 0.14130(17)
O20 O 0.3446(3) 0.7563(4) 0.10068(16)
O21 O 0.4680(3) 0.6728(4) 0.13722(17)
O22 O 0.2519(3) 1.0180(4) 0.10705(18)
O23 O 0.1996(3) 0.8493(5) 0.07453(17)
O24 O 0.2576(3) 0.8512(4) 0.15193(16)
O25 O 0.7925(3) 1.0940(4) 0.42834(17)
O26 O 0.3443(3) 0.5813(4) 0.12376(15)
O27 O 0.7420(3) 0.9222(4) 0.39908(17)
O28 O 0.2146(3) 0.6749(4) 0.14672(15)
O29 O 0.2462(3) 0.7605(4) 0.21201(15)
O30 O 0.8589(3) 1.0154(4) 0.37159(17)
O31 O 0.7235(3) 0.9889(4) 0.32296(15)
O32 O 0.9481(3) 1.1802(5) 0.39136(17)
O33 O 0.9030(3) 1.2252(4) 0.31518(16)
O34 O 0.8646(3) 1.3291(4) 0.24616(16)
O35 O 0.9802(3) 1.0534(4) 0.33838(19)
O36 O 0.9173(3) 1.1477(4) 0.24554(17)
O37 O 0.8229(3) 1.0742(4) 0.29276(15)
O38 O 0.7617(3) 1.1802(4) 0.21954(15)
O39 O 0.7774(3) 0.9039(4) 0.27161(15)
O40 O 0.8977(3) 0.9021(4) 0.23368(16)
O41 O 0.6828(3) 0.8349(4) 0.20823(15)
O42 O 0.8209(3) 0.7364(4) 0.23759(16)
C49 C 0.5354(4) 0.8780(6) 0.1791(2)
H33 H 0.5421 0.9303 0.1988
H34 H 0.5116 0.8213 0.1892
C50 C 0.3614(4) 0.7180(5) 0.1771(2)
H35 H 0.3730 0.6632 0.1956
H36 H 0.3943 0.7737 0.1878
C51 C 0.6817(5) 1.0486(6) 0.2493(2)
H37 H 0.6569 1.1043 0.2596
H38 H 0.6427 0.9971 0.2418
Mo6A Mo 0.23576(4) 0.53601(5) 0.11448(2)
Mo7A Mo 0.09250(4) 0.62048(5) 0.14979(2)
Mo8A Mo 0.14805(4) 0.71496(5) 0.23801(2)
O26A O 0.6557(3) 1.0813(4) 0.37624(15)
O28A O 0.7854(3) 1.1749(4) 0.35328(15)
O29A O 0.7538(3) 1.2605(4) 0.28799(15)
Co1 Co 0.83969(6) 0.76577(8) 0.00108(3)
N1 N 0.7296(4) 0.8227(6) -0.0161(2)
N2 N 0.8155(4) 0.7546(5) -0.0580(2)
N3 N 0.9430(4) 0.7094(6) -0.0108(2)
N4 N 0.6473(5) 0.6759(6) -0.1674(2)
N5 N 0.7931(4) 0.7577(5) -0.1360(2)
N6 N 0.9211(5) 0.7068(6) -0.1720(3)
N7 N 0.7995(4) 0.6293(5) 0.0169(2)
N8 N 0.8725(4) 0.7649(5) 0.0603(2)
N9 N 0.8864(4) 0.9064(5) 0.0143(2)
N10 N 0.8804(4) 0.5723(5) 0.1712(2)
N11 N 0.9181(4) 0.7603(5) 0.1387(2)
N12 N 0.9892(4) 0.9201(6) 0.1772(2)
C1 C 0.6891(6) 0.8552(9) 0.0090(3)
H1 H 0.7142 0.8609 0.0354
C2 C 0.6130(5) 0.8809(7) -0.0012(3)
H2 H 0.5872 0.9079 0.0172
C3 C 0.5775(7) 0.8664(9) -0.0377(3)
H3 H 0.5247 0.8815 -0.0456
C4 C 0.6163(6) 0.8295(11) -0.0646(3)
H4 H 0.5898 0.8158 -0.0903
C5 C 0.6938(5) 0.8129(7) -0.0538(3)
C6 C 0.7460(5) 0.7783(6) -0.0785(2)
C7 C 0.8723(5) 0.7266(6) -0.0749(2)
C8 C 0.9379(5) 0.6847(6) -0.0482(2)
C9 C 0.9874(6) 0.6197(8) -0.0597(3)
H5 H 0.9800 0.5993 -0.0860
C10 C 1.0480(7) 0.5852(10) -0.0322(3)
H6 H 1.0834 0.5412 -0.0394
C11 C 1.0572(7) 0.6146(11) 0.0060(3)
H7 H 1.0996 0.5934 0.0252
C12 C 1.0027(6) 0.6758(8) 0.0152(3)
H8 H 1.0079 0.6951 0.0415
C13 C 0.5844(6) 0.6573(8) -0.1942(3)
H9 H 0.5797 0.5979 -0.2083
C14 C 0.5246(7) 0.7271(9) -0.2014(4)
H10 H 0.4779 0.7125 -0.2188
C15 C 0.5344(6) 0.8149(8) -0.1831(3)
H11 H 0.4965 0.8642 -0.1888
C16 C 0.6035(7) 0.8308(9) -0.1551(3)
H12 H 0.6109 0.8917 -0.1420
C17 C 0.6583(6) 0.7630(8) -0.1467(3)
C18 C 0.7338(5) 0.7699(6) -0.1190(2)
C19 C 0.8628(5) 0.7423(6) -0.1149(2)
C20 C 0.9288(5) 0.7449(6) -0.1346(2)
C21 C 0.9919(4) 0.7834(6) -0.1146(2)
H13 H 0.9940 0.8081 -0.0892
C22 C 1.0530(6) 0.7873(8) -0.1302(3)
H14 H 1.0988 0.8152 -0.1158
C23 C 1.0513(5) 0.7511(7) -0.1675(3)
H15 H 1.0957 0.7547 -0.1782
C24 C 0.9867(6) 0.7111(8) -0.1883(3)
H16 H 0.9852 0.6862 -0.2136
C25 C 0.7683(6) 0.5595(7) -0.0082(3)
H17 H 0.7607 0.5720 -0.0352
C26 C 0.7467(6) 0.4688(7) 0.0043(3)
H18 H 0.7241 0.4207 -0.0140
C27 C 0.7584(7) 0.4510(8) 0.0428(3)
H19 H 0.7435 0.3905 0.0520
C28 C 0.7926(7) 0.5221(7) 0.0685(3)
H20 H 0.8022 0.5099 0.0955
C29 C 0.8126(5) 0.6097(6) 0.0552(2)
C30 C 0.8517(5) 0.6892(6) 0.0802(2)
C31 C 0.9141(5) 0.8399(6) 0.0780(3)
C32 C 0.9163(5) 0.9243(6) 0.0523(2)
C33 C 0.9385(5) 1.0185(6) 0.0645(2)
H21 H 0.9576 1.0313 0.0912
C34 C 0.9328(5) 1.0927(7) 0.0381(3)
H22 H 0.9491 1.1566 0.0465
C35 C 0.9034(6) 1.0745(7) -0.0006(3)
H23 H 0.8985 1.1251 -0.0193
C36 C 0.8812(5) 0.9792(7) -0.0113(3)
H24 H 0.8615 0.9655 -0.0380
C37 C 0.8526(5) 0.5117(7) 0.1953(3)
H25 H 0.8861 0.4686 0.2119
C38 C 0.7766(5) 0.5127(6) 0.1958(2)
H26 H 0.7572 0.4710 0.2129
C39 C 0.7288(5) 0.5740(6) 0.1715(3)
H27 H 0.6761 0.5759 0.1722
C40 C 0.7563(5) 0.6333(6) 0.1459(3)
H28 H 0.7229 0.6744 0.1284
C41 C 0.8337(5) 0.6313(6) 0.1465(3)
C42 C 0.8692(5) 0.6937(6) 0.1207(3)
C43 C 0.9443(5) 0.8299(6) 0.1183(3)
C44 C 1.0031(5) 0.8935(6) 0.1422(2)
C45 C 1.0696(5) 0.9264(6) 0.1322(2)
H29 H 1.0824 0.9064 0.1086
C46 C 1.1165(5) 0.9888(7) 0.1572(3)
H30 H 1.1623 1.0114 0.1506
C47 C 1.0989(5) 1.0188(7) 0.1909(2)
H31 H 1.1304 1.0642 0.2073
C48 C 1.0339(5) 0.9816(7) 0.2007(3)
H32 H 1.0211 1.0002 0.2244
O43 O 0.6355(5) 0.3258(5) 0.1603(2)
O44 O 0.3493(4) 0.8680(6) 0.2646(2)
O45 O 0.7516(5) 0.2135(6) 0.0677(2)
O46 O 0.3772(6) 0.0112(7) 0.2169(3)
O47 O 0.2630(7) 0.1481(8) 0.2125(3)
O48 O 0.4981(6) 0.5599(8) 0.2168(4)
O49 O 0.7686(9) 0.3517(9) 0.1265(4)
N13 N 0.5397(6) 0.3802(7) 0.0921(3)
C52 C 0.5536(8) 0.3535(9) 0.0574(4)
H39 H 0.5999 0.3204 0.0569
C53 C 0.5060(8) 0.3709(10) 0.0241(4)
H40 H 0.5157 0.3466 0.0005
C54 C 0.4396(8) 0.4274(11) 0.0249(4)
H41 H 0.4057 0.4455 0.0015
C55 C 0.4257(7) 0.4550(9) 0.0598(4)
H42 H 0.3809 0.4913 0.0606
C56 C 0.4749(8) 0.4314(8) 0.0936(4)
H43 H 0.4643 0.4503 0.1178
loop_
_geom_bond_atom_site_label_1
_geom_bond_atom_site_label_2
_geom_bond_site_symmetry_1
_geom_bond_site_symmetry_2
Mo1 O1 1_555 1_555
Mo2 O5 1_555 1_555
Mo3 O10 1_555 1_555
Mo4 O13 1_555 1_555
Mo5 O18 1_555 1_555
Mo6 O25 1_555 1_555
Mo7 O30 1_555 1_555
Mo8 O33 1_555 1_555
Mo9 O2 1_555 1_555
Co1 N1 1_555 1_555
P1 O9 1_555 1_555
P2 O14 1_555 1_555
P3 O20 1_555 1_555
P4 O24 1_555 1_555
P5 O31 1_555 1_555
P6 O3 1_555 1_555
O2 Mo1 1_555 1_555
O3 Mo1 1_555 1_555
O4 Mo1 1_555 1_555
O5 Mo1 1_555 1_555
O6 Mo2 1_555 1_555
O7 Mo2 1_555 1_555
O8 Mo2 1_555 1_555
O9 Mo1 1_555 1_555
O11 Mo3 1_555 1_555
O12 Mo3 1_555 1_555
O13 Mo3 1_555 1_555
O14 Mo3 1_555 1_555
O15 Mo2 1_555 1_555
O16 Mo4 1_555 1_555
O17 Mo4 1_555 1_555
O18 Mo4 1_555 1_555
O19 Mo5 1_555 1_555
O20 Mo4 1_555 1_555
O21 Mo3 1_555 1_555
O22 Mo5 1_555 1_555
O23 Mo5 1_555 1_555
O24 Mo5 1_555 1_555
O26 P3 1_555 1_555
O27 Mo6 1_555 1_555
O28 P4 1_555 1_555
O29 P4 1_555 1_555
O30 Mo6 1_555 1_555
O31 Mo6 1_555 1_555
O32 Mo7 1_555 1_555
O33 Mo7 1_555 1_555
O34 Mo8 1_555 1_555
O35 Mo7 1_555 1_555
O36 Mo8 1_555 1_555
O37 Mo7 1_555 1_555
O38 Mo8 1_555 1_555
O39 Mo9 1_555 1_555
O40 Mo9 1_555 1_555
O41 Mo9 1_555 1_555
O42 Mo9 1_555 1_555
N1 C1 1_555 1_555
N2 Co1 1_555 1_555
N3 Co1 1_555 1_555
N4 C13 1_555 1_555
N5 C18 1_555 1_555
N6 C20 1_555 1_555
N7 Co1 1_555 1_555
N8 Co1 1_555 1_555
N9 Co1 1_555 1_555
N10 C37 1_555 1_555
N11 C42 1_555 1_555
N12 C44 1_555 1_555
N13 C52 1_555 1_555
C1 H1 1_555 1_555
C2 C1 1_555 1_555
H2 C2 1_555 1_555
C3 C2 1_555 1_555
H3 C3 1_555 1_555
C4 C3 1_555 1_555
H4 C4 1_555 1_555
C5 N1 1_555 1_555
C6 N2 1_555 1_555
C7 N2 1_555 1_555
C8 N3 1_555 1_555
C9 C8 1_555 1_555
H5 C9 1_555 1_555
C10 C9 1_555 1_555
H6 C10 1_555 1_555
C11 C10 1_555 1_555
H7 C11 1_555 1_555
C12 N3 1_555 1_555
H8 C12 1_555 1_555
C13 H9 1_555 1_555
C14 C13 1_555 1_555
H10 C14 1_555 1_555
C15 C14 1_555 1_555
H11 C15 1_555 1_555
C16 C15 1_555 1_555
H12 C16 1_555 1_555
C17 N4 1_555 1_555
C18 C6 1_555 1_555
C19 N5 1_555 1_555
C20 C19 1_555 1_555
C21 C20 1_555 1_555
H13 C21 1_555 1_555
C22 C21 1_555 1_555
H14 C22 1_555 1_555
C23 C22 1_555 1_555
H15 C23 1_555 1_555
C24 N6 1_555 1_555
H16 C24 1_555 1_555
C25 N7 1_555 1_555
H17 C25 1_555 1_555
C26 C25 1_555 1_555
H18 C26 1_555 1_555
C27 C26 1_555 1_555
H19 C27 1_555 1_555
C28 C27 1_555 1_555
H20 C28 1_555 1_555
C29 N7 1_555 1_555
C30 N8 1_555 1_555
C31 N8 1_555 1_555
C32 N9 1_555 1_555
C33 C32 1_555 1_555
H21 C33 1_555 1_555
C34 C33 1_555 1_555
H22 C34 1_555 1_555
C35 C34 1_555 1_555
H23 C35 1_555 1_555
C36 N9 1_555 1_555
H24 C36 1_555 1_555
C37 H25 1_555 1_555
C38 C37 1_555 1_555
H26 C38 1_555 1_555
C39 C38 1_555 1_555
H27 C39 1_555 1_555
C40 C39 1_555 1_555
H28 C40 1_555 1_555
C41 N10 1_555 1_555
C42 C30 1_555 1_555
C43 N11 1_555 1_555
C44 C43 1_555 1_555
C45 C44 1_555 1_555
H29 C45 1_555 1_555
C46 C45 1_555 1_555
H30 C46 1_555 1_555
C47 C46 1_555 1_555
H31 C47 1_555 1_555
C48 N12 1_555 1_555
H32 C48 1_555 1_555
C49 P1 1_555 1_555
H33 C49 1_555 1_555
H34 C49 1_555 1_555
C50 P3 1_555 1_555
H35 C50 1_555 1_555
H36 C50 1_555 1_555
C51 P5 1_555 1_555
H37 C51 1_555 1_555
H38 C51 1_555 1_555
C52 H39 1_555 1_555
C53 C52 1_555 1_555
H40 C53 1_555 1_555
C54 C53 1_555 1_555
H41 C54 1_555 1_555
C55 C54 1_555 1_555
H42 C55 1_555 1_555
C56 N13 1_555 1_555
H43 C56 1_555 1_555
Mo6A O26 1_555 1_555
Mo7A O28 1_555 1_555
Mo8A O29 1_555 1_555
O26A Mo6 1_555 1_555
O28A Mo6 1_555 1_555
O29A Mo8 1_555 1_555
Mo2 O9 1_555 1_555
Mo4 O14 1_555 1_555
Mo5 O20 1_555 1_555
Mo7 O28A 1_555 1_555
Mo8 O37 1_555 1_555
Mo9 O3 1_555 1_555
P1 O11 1_555 1_555
P1 O41 1_555 1_555
P2 O15 1_555 1_555
P2 O19 1_555 1_555
P2 C49 1_555 1_555
P3 O21 1_555 1_555
P4 C50 1_555 1_555
P5 O37 1_555 1_555
P5 O39 1_555 1_555
P6 O8 1_555 1_555
P6 O38 1_555 1_555
P6 C51 1_555 1_555
O28 Mo6A 1_555 1_555
C4 C5 1_555 1_555
C5 C6 1_555 1_555
C7 C8 1_555 1_555
C7 C19 1_555 1_555
C11 C12 1_555 1_555
C16 C17 1_555 1_555
C17 C18 1_555 1_555
C23 C24 1_555 1_555
C28 C29 1_555 1_555
C29 C30 1_555 1_555
C31 C32 1_555 1_555
C31 C43 1_555 1_555
C35 C36 1_555 1_555
C40 C41 1_555 1_555
C41 C42 1_555 1_555
C47 C48 1_555 1_555
C55 C56 1_555 1_555

#END
