
#######################################################################
#
#                 Cambridge Crystallographic Data Centre
#                                CCDC 
#
#######################################################################
#
# If this CIF has been generated from an entry in the Cambridge 
# Structural Database, then it will include bibliographic, chemical, 
# crystal, experimental, refinement or atomic coordinate data resulting 
# from the CCDC's data processing and validation procedures.
#
#######################################################################

data_IGAGAA
_symmetry_cell_setting           orthorhombic
_symmetry_space_group_name_H-M   'F d d d'
_symmetry_Int_Tables_number      70
_space_group_name_Hall           '-F 2uv 2vw'
loop_
_symmetry_equiv_pos_site_id
_symmetry_equiv_pos_as_xyz
1 x,y,z
2 1/4-x,1/4-y,z
3 x,1/4-y,1/4-z
4 1/4-x,y,1/4-z
5 x,1/2+y,1/2+z
6 1/4-x,3/4-y,1/2+z
7 x,3/4-y,3/4-z
8 1/4-x,1/2+y,3/4-z
9 1/2+x,y,1/2+z
10 3/4-x,1/4-y,1/2+z
11 1/2+x,1/4-y,3/4-z
12 3/4-x,y,3/4-z
13 1/2+x,1/2+y,z
14 3/4-x,3/4-y,z
15 1/2+x,3/4-y,1/4-z
16 3/4-x,1/2+y,1/4-z
17 -x,-y,-z
18 3/4+x,3/4+y,-z
19 -x,3/4+y,3/4+z
20 3/4+x,-y,3/4+z
21 -x,1/2-y,1/2-z
22 3/4+x,1/4+y,1/2-z
23 -x,1/4+y,1/4+z
24 3/4+x,1/2-y,1/4+z
25 1/2-x,-y,1/2-z
26 1/4+x,3/4+y,1/2-z
27 1/2-x,3/4+y,1/4+z
28 1/4+x,-y,1/4+z
29 1/2-x,1/2-y,-z
30 1/4+x,1/4+y,-z
31 1/2-x,1/4+y,3/4+z
32 1/4+x,1/2-y,3/4+z
_cell_length_a                   15.6139(8)
_cell_length_b                   18.3439(11)
_cell_length_c                   34.336(3)
_cell_angle_alpha                90
_cell_angle_beta                 90
_cell_angle_gamma                90
_cell_volume                     9834.51
loop_
_atom_site_label
_atom_site_type_symbol
_atom_site_fract_x
_atom_site_fract_y
_atom_site_fract_z
Co1 Co 0.50379(5) 0.61040(4) 0.48158(2)
Co2 Co 0.8750 0.3750 0.56079(3)
N1 N 0.6760(3) 0.5568(3) 0.50860(15)
O1 O 0.8323(3) 0.5892(2) 0.52589(14)
C1 C 0.7201(4) 0.5055(3) 0.52759(18)
C2 C 0.8093(4) 0.5272(3) 0.53810(19)
O2 O 0.7407(2) 0.3483(2) 0.56220(13)
O3 O 0.6002(3) 0.3416(2) 0.55570(13)
N2 N 0.5880(3) 0.4692(2) 0.52115(15)
O4 O 0.8543(3) 0.4873(2) 0.55976(14)
C3 C 0.6700(4) 0.3738(3) 0.55281(17)
N3 N 0.5957(3) 0.5348(2) 0.50529(15)
C4 C 0.6645(3) 0.4488(3) 0.53534(18)
N4 N 0.8750 0.3750 0.6209(2)
O5 O 0.8750 0.3750 0.5007(2)
N5 N 0.8310(3) 0.3802(3) 0.68250(15)
C5 C 0.8093(4) 0.3834(3) 0.64594(17)
H1 H 0.7531 0.3909 0.6378
H2 H 0.843(4) 0.353(4) 0.4841(16)
N5M N 0.9190(3) 0.3698(3) 0.68250(15)
C5M C 0.9407(4) 0.3666(3) 0.64594(17)
H1M H 0.9969 0.3591 0.6378
H2M H 0.907(4) 0.397(4) 0.4841(16)
Co1A Co 0.74621(5) 0.63960(4) 0.48158(2)
N1A N 0.5740(3) 0.6932(3) 0.50860(15)
O1A O 0.4177(3) 0.6608(2) 0.52589(14)
C1A C 0.5299(4) 0.7445(3) 0.52759(18)
C2A C 0.4407(4) 0.7228(3) 0.53810(19)
O2A O 0.5093(2) 0.9017(2) 0.56220(13)
O3A O 0.6498(3) 0.9084(2) 0.55570(13)
N2A N 0.6620(3) 0.7808(2) 0.52115(15)
O4A O 0.3957(3) 0.7627(2) 0.55976(14)
C3A C 0.5800(4) 0.8762(3) 0.55281(17)
N3A N 0.6543(3) 0.7152(2) 0.50529(15)
C4A C 0.5855(3) 0.8012(3) 0.53534(18)
Co1P Co 0.49621(5) 0.38960(4) 0.51842(2)
Co1Z Co 0.99621(5) 0.36040(4) 0.73158(2)
Co1AA Co 0.75379(5) 0.38960(4) 0.73158(2)
Co1CA Co 0.75379(5) 0.86040(4) 0.51842(2)
Co2A Co 0.3750 0.8750 0.56079(3)
O2M O 1.0093(2) 0.4017(2) 0.56220(13)
O3P O 0.3998(3) 0.6584(2) 0.44430(13)
O3CA O 0.8502(3) 0.5916(2) 0.44430(13)
N2P N 0.4120(3) 0.5308(2) 0.47885(15)
N2CA N 0.8380(3) 0.7192(2) 0.47885(15)
O4M O 0.8957(3) 0.2627(2) 0.55976(14)
N5S N 0.5810(3) 0.6198(3) 0.43250(15)
N5DA N 0.6690(3) 0.6302(3) 0.43250(15)
O6 O 0.7677(4) 0.3076(3) 0.45192(19)
H3 H 0.7900 0.2670 0.4458
H4 H 0.7251 0.3004 0.4669
O7 O 0.3750 0.7590(4) 0.3750
N6 N 0.7380(8) 0.3750 0.3750
H5 H 0.7718 0.3533 0.3928
C6 C 0.6830(8) 0.4309(8) 0.3945(4)
H6 H 0.6566 0.4612 0.3751
H7 H 0.7176 0.4604 0.4114
H8 H 0.6395 0.4069 0.4095
H5F H 0.7718 0.3967 0.3572
C6F C 0.6830(8) 0.3191(8) 0.3555(4)
H6F H 0.6566 0.2888 0.3749
H7F H 0.7176 0.2896 0.3386
H8F H 0.6395 0.3431 0.3405
O8 O 0.6250 0.4722(15) 0.6250
H9? H 0.7718 0.3533 0.3928
O9? O 0.6250 0.5988(14) 0.6250
loop_
_geom_bond_atom_site_label_1
_geom_bond_atom_site_label_2
_geom_bond_site_symmetry_1
_geom_bond_site_symmetry_2
Co1 N3 1_555 1_555
Co2 O2 1_555 1_555
N1 C1 1_555 1_555
O1 C2 1_555 1_555
C1 C2 1_555 1_555
C2 O4 1_555 1_555
O2 C3 1_555 1_555
O3 C3 1_555 1_555
N2 N3 1_555 1_555
O4 Co2 1_555 1_555
C3 C4 1_555 1_555
N3 N1 1_555 1_555
C4 C1 1_555 1_555
N4 Co2 1_555 1_555
O5 Co2 1_555 1_555
N5 C5 1_555 1_555
C5 N4 1_555 1_555
H1 C5 1_555 1_555
H2 O5 1_555 1_555
O6 H3 1_555 1_555
H4 O6 1_555 1_555
N6 H5 1_555 1_555
C6 N6 1_555 1_555
H6 C6 1_555 1_555
H7 C6 1_555 1_555
H8 C6 1_555 1_555
N5M N5 1_555 1_555
C5M N4 1_555 1_555
H1M C5M 1_555 1_555
H2M O5 1_555 1_555
Co1A N1 1_555 1_555
N1A Co1 1_555 1_555
O1A Co1 1_555 1_555
C1A N1A 1_555 1_555
C2A O1A 1_555 1_555
O2A C3A 1_555 1_555
O3A C3A 1_555 1_555
N2A N3A 1_555 1_555
O4A C2A 1_555 1_555
C3A C4A 1_555 1_555
N3A Co1A 1_555 1_555
C4A C1A 1_555 1_555
Co1P O3 1_555 1_555
Co1Z N5M 1_555 1_555
Co1AA N5 1_555 1_555
Co1CA O3A 1_555 1_555
Co2A O2A 1_555 1_555
O2M Co2 1_555 1_555
O3P Co1 1_555 1_555
O3CA Co1A 1_555 1_555
N2P Co1 1_555 1_555
N2CA Co1A 1_555 1_555
O4M Co2 1_555 1_555
N5S Co1 1_555 1_555
N5DA Co1A 1_555 1_555
H5F N6 1_555 1_555
C6F N6 1_555 1_555
H6F C6F 1_555 1_555
H7F C6F 1_555 1_555
H8F C6F 1_555 1_555
O1 Co1A 1_555 1_555
N2 C4 1_555 1_555
N2 Co1P 1_555 1_555
N5M C5M 1_555 1_555
N1A N3A 1_555 1_555
C1A C2A 1_555 1_555
N2A C4A 1_555 1_555
N2A Co1CA 1_555 1_555
O4A Co2A 1_555 1_555
N5S N5DA 1_555 1_555

#END
