
#######################################################################
#
#                 Cambridge Crystallographic Data Centre
#                                CCDC 
#
#######################################################################
#
# If this CIF has been generated from an entry in the Cambridge 
# Structural Database, then it will include bibliographic, chemical, 
# crystal, experimental, refinement or atomic coordinate data resulting 
# from the CCDC's data processing and validation procedures.
#
#######################################################################

data_IGOCUD
_symmetry_cell_setting           cubic
_symmetry_space_group_name_H-M   'F m -3 m'
_symmetry_Int_Tables_number      225
_space_group_name_Hall           '-F 4 2 3'
loop_
_symmetry_equiv_pos_site_id
_symmetry_equiv_pos_as_xyz
1 x,y,z
2 -y,x,z
3 x,-y,-z
4 z,x,y
5 -x,-y,z
6 y,x,-z
7 -x,z,y
8 y,-x,z
9 -x,y,-z
10 -z,-x,y
11 -y,-x,-z
12 x,-z,y
13 z,-x,-y
14 x,z,-y
15 -z,x,-y
16 -x,-z,-y
17 z,-y,x
18 y,z,x
19 -z,y,x
20 -y,-z,x
21 z,y,-x
22 -y,z,-x
23 -z,-y,-x
24 y,-z,-x
25 x,1/2+y,1/2+z
26 -y,1/2+x,1/2+z
27 x,1/2-y,1/2-z
28 z,1/2+x,1/2+y
29 -x,1/2-y,1/2+z
30 y,1/2+x,1/2-z
31 -x,1/2+z,1/2+y
32 y,1/2-x,1/2+z
33 -x,1/2+y,1/2-z
34 -z,1/2-x,1/2+y
35 -y,1/2-x,1/2-z
36 x,1/2-z,1/2+y
37 z,1/2-x,1/2-y
38 x,1/2+z,1/2-y
39 -z,1/2+x,1/2-y
40 -x,1/2-z,1/2-y
41 z,1/2-y,1/2+x
42 y,1/2+z,1/2+x
43 -z,1/2+y,1/2+x
44 -y,1/2-z,1/2+x
45 z,1/2+y,1/2-x
46 -y,1/2+z,1/2-x
47 -z,1/2-y,1/2-x
48 y,1/2-z,1/2-x
49 1/2+x,y,1/2+z
50 1/2-y,x,1/2+z
51 1/2+x,-y,1/2-z
52 1/2+z,x,1/2+y
53 1/2-x,-y,1/2+z
54 1/2+y,x,1/2-z
55 1/2-x,z,1/2+y
56 1/2+y,-x,1/2+z
57 1/2-x,y,1/2-z
58 1/2-z,-x,1/2+y
59 1/2-y,-x,1/2-z
60 1/2+x,-z,1/2+y
61 1/2+z,-x,1/2-y
62 1/2+x,z,1/2-y
63 1/2-z,x,1/2-y
64 1/2-x,-z,1/2-y
65 1/2+z,-y,1/2+x
66 1/2+y,z,1/2+x
67 1/2-z,y,1/2+x
68 1/2-y,-z,1/2+x
69 1/2+z,y,1/2-x
70 1/2-y,z,1/2-x
71 1/2-z,-y,1/2-x
72 1/2+y,-z,1/2-x
73 1/2+x,1/2+y,z
74 1/2-y,1/2+x,z
75 1/2+x,1/2-y,-z
76 1/2+z,1/2+x,y
77 1/2-x,1/2-y,z
78 1/2+y,1/2+x,-z
79 1/2-x,1/2+z,y
80 1/2+y,1/2-x,z
81 1/2-x,1/2+y,-z
82 1/2-z,1/2-x,y
83 1/2-y,1/2-x,-z
84 1/2+x,1/2-z,y
85 1/2+z,1/2-x,-y
86 1/2+x,1/2+z,-y
87 1/2-z,1/2+x,-y
88 1/2-x,1/2-z,-y
89 1/2+z,1/2-y,x
90 1/2+y,1/2+z,x
91 1/2-z,1/2+y,x
92 1/2-y,1/2-z,x
93 1/2+z,1/2+y,-x
94 1/2-y,1/2+z,-x
95 1/2-z,1/2-y,-x
96 1/2+y,1/2-z,-x
97 -x,-y,-z
98 y,-x,-z
99 -x,y,z
100 -z,-x,-y
101 x,y,-z
102 -y,-x,z
103 x,-z,-y
104 -y,x,-z
105 x,-y,z
106 z,x,-y
107 y,x,z
108 -x,z,-y
109 -z,x,y
110 -x,-z,y
111 z,-x,y
112 x,z,y
113 -z,y,-x
114 -y,-z,-x
115 z,-y,-x
116 y,z,-x
117 -z,-y,x
118 y,-z,x
119 z,y,x
120 -y,z,x
121 -x,1/2-y,1/2-z
122 y,1/2-x,1/2-z
123 -x,1/2+y,1/2+z
124 -z,1/2-x,1/2-y
125 x,1/2+y,1/2-z
126 -y,1/2-x,1/2+z
127 x,1/2-z,1/2-y
128 -y,1/2+x,1/2-z
129 x,1/2-y,1/2+z
130 z,1/2+x,1/2-y
131 y,1/2+x,1/2+z
132 -x,1/2+z,1/2-y
133 -z,1/2+x,1/2+y
134 -x,1/2-z,1/2+y
135 z,1/2-x,1/2+y
136 x,1/2+z,1/2+y
137 -z,1/2+y,1/2-x
138 -y,1/2-z,1/2-x
139 z,1/2-y,1/2-x
140 y,1/2+z,1/2-x
141 -z,1/2-y,1/2+x
142 y,1/2-z,1/2+x
143 z,1/2+y,1/2+x
144 -y,1/2+z,1/2+x
145 1/2-x,-y,1/2-z
146 1/2+y,-x,1/2-z
147 1/2-x,y,1/2+z
148 1/2-z,-x,1/2-y
149 1/2+x,y,1/2-z
150 1/2-y,-x,1/2+z
151 1/2+x,-z,1/2-y
152 1/2-y,x,1/2-z
153 1/2+x,-y,1/2+z
154 1/2+z,x,1/2-y
155 1/2+y,x,1/2+z
156 1/2-x,z,1/2-y
157 1/2-z,x,1/2+y
158 1/2-x,-z,1/2+y
159 1/2+z,-x,1/2+y
160 1/2+x,z,1/2+y
161 1/2-z,y,1/2-x
162 1/2-y,-z,1/2-x
163 1/2+z,-y,1/2-x
164 1/2+y,z,1/2-x
165 1/2-z,-y,1/2+x
166 1/2+y,-z,1/2+x
167 1/2+z,y,1/2+x
168 1/2-y,z,1/2+x
169 1/2-x,1/2-y,-z
170 1/2+y,1/2-x,-z
171 1/2-x,1/2+y,z
172 1/2-z,1/2-x,-y
173 1/2+x,1/2+y,-z
174 1/2-y,1/2-x,z
175 1/2+x,1/2-z,-y
176 1/2-y,1/2+x,-z
177 1/2+x,1/2-y,z
178 1/2+z,1/2+x,-y
179 1/2+y,1/2+x,z
180 1/2-x,1/2+z,-y
181 1/2-z,1/2+x,y
182 1/2-x,1/2-z,y
183 1/2+z,1/2-x,y
184 1/2+x,1/2+z,y
185 1/2-z,1/2+y,-x
186 1/2-y,1/2-z,-x
187 1/2+z,1/2-y,-x
188 1/2+y,1/2+z,-x
189 1/2-z,1/2-y,x
190 1/2+y,1/2-z,x
191 1/2+z,1/2+y,x
192 1/2-y,1/2+z,x
_cell_length_a                   21.6265(9)
_cell_length_b                   21.6265(9)
_cell_length_c                   21.6265(9)
_cell_angle_alpha                90
_cell_angle_beta                 90
_cell_angle_gamma                90
_cell_volume                     10114.8
loop_
_atom_site_label
_atom_site_type_symbol
_atom_site_fract_x
_atom_site_fract_y
_atom_site_fract_z
Zn1 Zn 0.7500 0.7500 0.7500
Zn2 Zn 0.6557(2) 0.6557(2) 0.6557(2)
Cl1 Cl 0.5938(4) 0.5938(4) 0.5938(4)
N1 N 0.7119(7) 0.6184(5) 0.7119(5)
N2 N 0.7500(9) 0.6441 0.7500
C1 C 0.7002 0.5000(10) 0.7002(10)
C2 C 0.7248(8) 0.5539(8) 0.7248(8)
Zn1G Zn 0.7500 0.2500 0.7500
Zn1A Zn 0.2500 0.7500 0.7500
Zn1E Zn 0.7500 0.7500 1.2500
Zn2DB Zn 0.8443(2) 0.6557(2) 0.8443(2)
Zn2FB Zn 0.8443(2) 0.3443(2) 0.8443(2)
Zn2G Zn 0.6557(2) 0.3443(2) 0.6557(2)
Zn2Z Zn 0.6557(2) 0.8443(2) 0.8443(2)
Zn2HA Zn 0.3443(2) 0.8443(2) 0.8443(2)
Zn2A Zn 0.3443(2) 0.6557(2) 0.6557(2)
Zn2WA Zn 0.8443(2) 0.6557(2) 1.1557(2)
Zn2EA Zn 0.6557(2) 0.8443(2) 1.1557(2)
Cl1Z Cl 0.5938(4) 0.9062(4) 0.9062(4)
Cl1HA Cl 0.4062(4) 0.9062(4) 0.9062(4)
Cl1A Cl 0.4062(4) 0.5938(4) 0.5938(4)
N1DB N 0.7881(7) 0.6184(5) 0.7881(5)
N1RB N 0.7881(5) 0.3816(5) 0.7881(7)
N1P N 0.7119(5) 0.3816(5) 0.7119(7)
N1Q N 0.6184(5) 0.7119(5) 0.7119(7)
N1UA N 0.6184(5) 0.7881(5) 0.7881(7)
N1HA N 0.3816(5) 0.7881(7) 0.7881(5)
N1A N 0.3816(5) 0.7119(7) 0.7119(5)
N1C N 0.7119(5) 0.7119(7) 0.6184(5)
N1JB N 0.7881(5) 0.7119(7) 0.8816(5)
N1Z N 0.7119(7) 0.8816(5) 0.7881(5)
N1JA N 0.7119(5) 0.7881(7) 0.8816(5)
N1MA N 0.2881(7) 0.7881(5) 0.8816(5)
N1TA N 0.2881(5) 0.8816(5) 0.7881(7)
N1F N 0.2881(7) 0.7119(5) 0.6184(5)
N1R N 0.2881(5) 0.6184(5) 0.7119(7)
N1BB N 0.7881(7) 0.7119(5) 1.1184(5)
N1IA N 0.7119(7) 0.7881(5) 1.1184(5)
N2P N 0.7500 0.3559 0.7500(9)
N2Q N 0.6441 0.7500 0.7500(9)
N2A N 0.3559 0.7500(9) 0.7500
N2C N 0.7500 0.7500(9) 0.6441
N2Z N 0.7500(9) 0.8559 0.7500
N2JA N 0.7500 0.7500(9) 0.8559
N2QB N 0.8559 0.7500 0.7500(9)
N2IA N 0.7500(9) 0.7500 1.1441
C1DB C 0.7998 0.5000(10) 0.7998(10)
C1A C 0.5000(10) 0.7002 0.7002(10)
C1HA C 0.5000(10) 0.7998 0.7998(10)
C1BB C 0.7998 0.7002(10) 1.0000(10)
C1IA C 0.7002 0.7998(10) 1.0000(10)
C2DB C 0.7752(8) 0.5539(8) 0.7752(8)
C2RB C 0.7752(8) 0.4461(8) 0.7752(8)
C2P C 0.7248(8) 0.4461(8) 0.7248(8)
C2Q C 0.5539(8) 0.7248(8) 0.7248(8)
C2UA C 0.5539(8) 0.7752(8) 0.7752(8)
C2HA C 0.4461(8) 0.7752(8) 0.7752(8)
C2A C 0.4461(8) 0.7248(8) 0.7248(8)
C2JB C 0.7752(8) 0.7248(8) 0.9461(8)
C2JA C 0.7248(8) 0.7752(8) 0.9461(8)
C2BB C 0.7752(8) 0.7248(8) 1.0539(8)
C2IA C 0.7248(8) 0.7752(8) 1.0539(8)
loop_
_geom_bond_atom_site_label_1
_geom_bond_atom_site_label_2
_geom_bond_site_symmetry_1
_geom_bond_site_symmetry_2
Zn1 N2 1_555 1_555
Zn2 Cl1 1_555 1_555
N1 Zn2 1_555 1_555
N2 N1 1_555 1_555
C1 C2 1_555 1_555
C2 N1 1_555 1_555
Zn1G N2P 1_555 1_555
Zn1A N2A 1_555 1_555
Zn1E N2IA 1_555 1_555
Zn2DB N1DB 1_555 1_555
Zn2FB N1RB 1_555 1_555
Zn2G N1P 1_555 1_555
Zn2Z Cl1Z 1_555 1_555
Zn2HA Cl1HA 1_555 1_555
Zn2A Cl1A 1_555 1_555
Zn2WA N1BB 1_555 1_555
Zn2EA N1IA 1_555 1_555
N1DB N2 1_555 1_555
N1RB N2P 1_555 1_555
N1P N2P 1_555 1_555
N1Q Zn2 1_555 1_555
N1UA Zn2Z 1_555 1_555
N1HA Zn2HA 1_555 1_555
N1A Zn2A 1_555 1_555
N1C Zn2 1_555 1_555
N1JB Zn2DB 1_555 1_555
N1Z Zn2Z 1_555 1_555
N1JA Zn2Z 1_555 1_555
N1MA Zn2HA 1_555 1_555
N1TA Zn2HA 1_555 1_555
N1F Zn2A 1_555 1_555
N1R Zn2A 1_555 1_555
N1BB N2IA 1_555 1_555
N1IA N2IA 1_555 1_555
N2Q Zn1 1_555 1_555
N2A N1HA 1_555 1_555
N2C Zn1 1_555 1_555
N2Z Zn1 1_555 1_555
N2JA Zn1 1_555 1_555
N2QB Zn1 1_555 1_555
C1DB C2DB 1_555 1_555
C1A C2Q 1_555 1_555
C1HA C2UA 1_555 1_555
C1BB C2JB 1_555 1_555
C1IA C2JA 1_555 1_555
C2DB C2 1_555 1_555
C2RB N1RB 1_555 1_555
C2P C1 1_555 1_555
C2Q N1Q 1_555 1_555
C2UA N1UA 1_555 1_555
C2HA N1HA 1_555 1_555
C2A N1A 1_555 1_555
C2JB N1JB 1_555 1_555
C2JA N1JA 1_555 1_555
C2BB N1BB 1_555 1_555
C2IA N1IA 1_555 1_555
N1DB C2DB 1_555 1_555
N1P C2P 1_555 1_555
N1Q N2Q 1_555 1_555
N1UA N2Q 1_555 1_555
N1A N2A 1_555 1_555
N1C N2C 1_555 1_555
N1JB N2JA 1_555 1_555
N1Z N2Z 1_555 1_555
N1JA N2JA 1_555 1_555
C1DB C2RB 1_555 1_555
C1A C2A 1_555 1_555
C1HA C2HA 1_555 1_555
C1BB C2BB 1_555 1_555
C1IA C2IA 1_555 1_555
C2RB C2P 1_555 1_555
C2Q C2UA 1_555 1_555
C2HA C2A 1_555 1_555
C2JB C2JA 1_555 1_555
C2BB C2IA 1_555 1_555

#END
