
#######################################################################
#
#                 Cambridge Crystallographic Data Centre
#                                CCDC 
#
#######################################################################
#
# If this CIF has been generated from an entry in the Cambridge 
# Structural Database, then it will include bibliographic, chemical, 
# crystal, experimental, refinement or atomic coordinate data resulting 
# from the CCDC's data processing and validation procedures.
#
#######################################################################

data_IHERIY
_symmetry_cell_setting           triclinic
_symmetry_space_group_name_H-M   'P -1'
_symmetry_Int_Tables_number      2
_space_group_name_Hall           '-P 1'
loop_
_symmetry_equiv_pos_site_id
_symmetry_equiv_pos_as_xyz
1 x,y,z
2 -x,-y,-z
_cell_length_a                   11.862(2)
_cell_length_b                   12.013(2)
_cell_length_c                   13.685(3)
_cell_angle_alpha                102.81(3)
_cell_angle_beta                 100.06(3)
_cell_angle_gamma                98.87(3)
_cell_volume                     1834.13
loop_
_atom_site_label
_atom_site_type_symbol
_atom_site_fract_x
_atom_site_fract_y
_atom_site_fract_z
Co1 Co 0.25342(3) -0.02701(3) 0.10743(2)
Co2 Co 0.13028(3) 0.27979(3) 0.18220(2)
O1 O 0.38679(15) 0.09596(15) 0.08828(13)
O2 O 0.38818(15) 0.08860(15) 0.24694(13)
O3 O 0.38129(19) 0.48739(18) 0.2545(2)
O4 O 0.30757(14) 0.29832(14) 0.20359(13)
N1 N 0.14436(18) 0.28661(18) 0.34280(15)
N2 N 0.32615(18) -0.17488(17) 0.08310(16)
O5 O 0.15040(16) 0.46737(15) 0.21733(14)
H1 H 0.2200 0.4974 0.2295
H2 H 0.1321 0.5087 0.2688
O6 O 0.94748(15) 0.23491(16) 0.13894(14)
O7 O 0.85099(18) 0.0661(2) 0.02981(15)
O8 O 1.12829(14) 0.09808(14) 0.15271(12)
O9 O 1.13646(15) -0.06494(15) 0.19704(14)
N3 N 0.12486(18) 0.28565(18) 1.02652(15)
S1 S 0.65748(6) 0.07569(6) 0.17563(6)
C1 C 0.4253(2) -0.1781(2) 0.0491(2)
H3 H 0.4668 -0.1092 0.0419
C2 C 0.4689(2) -0.2777(2) 0.0244(2)
H4 H 0.5383 -0.2752 0.0014
C3 C 0.4088(2) -0.3824(2) 0.0339(2)
C4 C 0.3043(3) -0.3795(2) 0.0660(3)
H5 H 0.2594 -0.4477 0.0713
C5 C 0.2671(2) -0.2761(2) 0.0899(2)
H6 H 0.1972 -0.2764 0.1119
C6 C 0.4504(3) -0.4922(2) 0.0123(2)
H7 H 0.4007 -0.5581 0.0165
C7 C 0.4266(2) 0.1367(2) 0.18378(19)
C8 C 0.6404(2) 0.2194(2) 0.2259(2)
C9 C 0.5274(2) 0.2402(2) 0.22051(18)
C10 C 0.5117(2) 0.3552(2) 0.2488(2)
C11 C 0.3913(2) 0.3836(2) 0.2357(2)
C12 C 0.6089(3) 0.4449(3) 0.2867(3)
H8 H 0.5990 0.5213 0.3066
C13 C 0.7200(3) 0.4223(3) 0.2954(3)
H9 H 0.7844 0.4830 0.3233
C14 C 0.7359(2) 0.3104(3) 0.2630(3)
H10 H 0.8110 0.2959 0.2660
C15 C 0.7946(2) 0.0653(2) 0.2472(2)
C16 C 0.7974(3) 0.0306(2) 0.3377(2)
H11 H 0.7322 0.0282 0.3669
C17 C 0.8964(3) -0.0001(3) 0.3843(2)
H12 H 0.9000 -0.0181 0.4473
C18 C 0.9904(2) -0.0042(2) 0.3373(2)
H13 H 1.0538 -0.0326 0.3651
C19 C 0.9903(2) 0.03410(19) 0.24878(18)
C20 C 0.8943(2) 0.0747(2) 0.20556(18)
C21 C 1.09078(19) 0.0228(2) 0.19680(17)
C22 C 0.8981(2) 0.1298(2) 0.11670(18)
C23 C 0.0667(2) 0.3239(2) 0.3956(2)
H14 H 0.0056 0.3510 0.3622
C24 C 0.0727(3) 0.3240(3) 0.4976(2)
H15 H 0.0161 0.3501 0.5309
C25 C 0.1640(2) 0.2849(2) 0.55002(19)
C26 C 0.2440(3) 0.2472(3) 0.4954(2)
H16 H 0.3067 0.2207 0.5272
C27 C 0.2316(2) 0.2484(2) 0.3937(2)
H17 H 0.2864 0.2215 0.3585
C28 C 0.1778(3) 0.2801(2) 0.6582(2)
H18 H 0.2404 0.2500 0.6853
C29 C 0.1091(3) 0.3147(2) 0.7195(2)
H19 H 0.0487 0.3481 0.6933
C30 C 0.1194(2) 0.3053(2) 0.82569(19)
C31 C 0.0501(2) 0.3587(2) 0.8848(2)
H20 H 0.0004 0.4027 0.8583
C32 C 0.0548(2) 0.3467(2) 0.9832(2)
H21 H 0.0068 0.3828 1.0214
C33 C 0.1924(2) 0.2334(2) 0.96974(19)
H22 H 0.2415 0.1903 0.9984
C34 C 0.1922(2) 0.2409(2) 0.8704(2)
H23 H 0.2403 0.2033 0.8335
N2A N 0.67385(18) -0.82512(17) -0.08310(16)
C1A C 0.5747(2) -0.8219(2) -0.0491(2)
H3A H 0.5332 -0.8908 -0.0419
C2A C 0.5311(2) -0.7223(2) -0.0244(2)
H4A H 0.4617 -0.7248 -0.0014
C3A C 0.5912(2) -0.6176(2) -0.0339(2)
C4A C 0.6957(3) -0.6205(2) -0.0660(3)
H5A H 0.7406 -0.5523 -0.0713
C5A C 0.7329(2) -0.7239(2) -0.0899(2)
H6A H 0.8028 -0.7236 -0.1119
C6A C 0.5496(3) -0.5078(2) -0.0123(2)
H7A H 0.5993 -0.4419 -0.0165
Co1A Co 0.74658(3) -0.97299(3) -0.10743(2)
Co2A Co 0.86972(3) -1.27979(3) -0.18220(2)
O1A O 0.61321(15) -1.09596(15) -0.08828(13)
O2A O 0.61182(15) -1.08860(15) -0.24694(13)
O3A O 0.61871(19) -1.48739(18) -0.2545(2)
O4A O 0.69243(14) -1.29832(14) -0.20359(13)
N1A N 0.85564(18) -1.28661(18) -0.34280(15)
O5A O 0.84960(16) -1.46737(15) -0.21733(14)
H1A H 0.7800 -1.4974 -0.2295
H2A H 0.8679 -1.5087 -0.2688
O6A O 0.05252(15) -1.23491(16) -0.13894(14)
O7A O 0.14901(18) -1.0661(2) -0.02981(15)
O8A O -0.12829(14) -1.09808(14) -0.15271(12)
O9A O -0.13646(15) -0.93506(15) -0.19704(14)
N3A N 0.87514(18) -1.28565(18) -1.02652(15)
S1A S 0.34252(6) -1.07569(6) -0.17563(6)
C7A C 0.5734(2) -1.1367(2) -0.18378(19)
C8A C 0.3596(2) -1.2194(2) -0.2259(2)
C9A C 0.4726(2) -1.2402(2) -0.22051(18)
C10A C 0.4883(2) -1.3552(2) -0.2488(2)
C11A C 0.6087(2) -1.3836(2) -0.2357(2)
C12A C 0.3911(3) -1.4449(3) -0.2867(3)
H8A H 0.4010 -1.5213 -0.3066
C13A C 0.2800(3) -1.4223(3) -0.2954(3)
H9A H 0.2156 -1.4830 -0.3233
C14A C 0.2641(2) -1.3104(3) -0.2630(3)
H10A H 0.1890 -1.2959 -0.2660
C15A C 0.2054(2) -1.0653(2) -0.2472(2)
C16A C 0.2026(3) -1.0306(2) -0.3377(2)
H11A H 0.2678 -1.0282 -0.3669
C17A C 0.1036(3) -0.9999(3) -0.3843(2)
H12A H 0.1000 -0.9819 -0.4473
C18A C 0.0096(2) -0.9958(2) -0.3373(2)
H13A H -0.0538 -0.9674 -0.3651
C19A C 0.0097(2) -1.03410(19) -0.24878(18)
C20A C 0.1057(2) -1.0747(2) -0.20556(18)
C21A C -0.09078(19) -1.0228(2) -0.19680(17)
C22A C 0.1019(2) -1.1298(2) -0.11670(18)
C23A C 0.9333(2) -1.3239(2) -0.3956(2)
H14A H 0.9944 -1.3510 -0.3622
C24A C 0.9273(3) -1.3240(3) -0.4976(2)
H15A H 0.9839 -1.3501 -0.5309
C25A C 0.8360(2) -1.2849(2) -0.55002(19)
C26A C 0.7560(3) -1.2472(3) -0.4954(2)
H16A H 0.6933 -1.2207 -0.5272
C27A C 0.7684(2) -1.2484(2) -0.3937(2)
H17A H 0.7136 -1.2215 -0.3585
C28A C 0.8222(3) -1.2801(2) -0.6582(2)
H18A H 0.7596 -1.2500 -0.6853
C29A C 0.8909(3) -1.3147(2) -0.7195(2)
H19A H 0.9513 -1.3481 -0.6933
C30A C 0.8806(2) -1.3053(2) -0.82569(19)
C31A C 0.9499(2) -1.3587(2) -0.8848(2)
H20A H 0.9996 -1.4027 -0.8583
C32A C 0.9452(2) -1.3467(2) -0.9832(2)
H21A H 0.9932 -1.3828 -1.0214
C33A C 0.8076(2) -1.2334(2) -0.96974(19)
H22A H 0.7585 -1.1903 -0.9984
C34A C 0.8078(2) -1.2409(2) -0.8704(2)
H23A H 0.7597 -1.2033 -0.8335
Co1_2 Co 0.25342(3) -1.02701(3) 0.10743(2)
Co1_3 Co 1.25342(3) -0.02701(3) 0.10743(2)
Co1A_2 Co -0.25342(3) -0.97299(3) -0.10743(2)
Co1A_3 Co 0.74658(3) 0.02701(3) -0.10743(2)
Co2_2 Co 0.13028(3) 0.27979(3) 1.18220(2)
Co2_3 Co 1.13028(3) 0.27979(3) 0.18220(2)
Co2A_2 Co -0.13028(3) -1.27979(3) -0.18220(2)
Co2A_3 Co 0.86972(3) -1.27979(3) -1.18220(2)
O6_2 O -0.05252(15) 0.23491(16) 0.13894(14)
O6A_2 O 1.05252(15) -1.23491(16) -0.13894(14)
O7_2 O 0.85099(18) -0.9339(2) 0.02981(15)
O7A_2 O 0.14901(18) -0.0661(2) -0.02981(15)
O8_2 O 0.12829(14) 0.09808(14) 0.15271(12)
O8A_2 O 0.87171(14) -1.09808(14) -0.15271(12)
O9_2 O 0.13646(15) -0.06494(15) 0.19704(14)
O9A_2 O 0.86354(15) -0.93506(15) -0.19704(14)
N3_2 N 0.12486(18) 0.28565(18) 0.02652(15)
N3A_2 N 0.87514(18) -1.28565(18) -0.02652(15)
O10 O 0.5285(3) 0.7238(3) 0.2969(3)
H24 H 0.5460 0.7943 0.2942
H25 H 0.4719 0.6655 0.2744
N4 N 0.1901(3) 0.6729(2) 0.3851(2)
C35 C 0.2036(3) 0.7705(3) 0.3514(3)
H26 H 0.1464 0.7753 0.2974
C36 C 0.2948(3) 0.8622(3) 0.3906(2)
H27 H 0.2981 0.9270 0.3637
C37 C 0.3835(3) 0.8596(3) 0.4710(2)
C38 C 0.4852(3) 0.9544(3) 0.5182(2)
H28 H 0.5326 0.9503 0.5785
C39 C 0.3711(3) 0.7593(3) 0.5066(3)
H29 H 0.4270 0.7526 0.5607
C40 C 0.2755(3) 0.6699(3) 0.4612(3)
H30 H 0.2705 0.6033 0.4855
N4A N 0.8099(3) 1.3271(2) 0.6149(2)
C35A C 0.7964(3) 1.2295(3) 0.6486(3)
H26A H 0.8536 1.2247 0.7026
C36A C 0.7052(3) 1.1378(3) 0.6094(2)
H27A H 0.7019 1.0730 0.6363
C37A C 0.6165(3) 1.1404(3) 0.5290(2)
C38A C 0.5148(3) 1.0456(3) 0.4818(2)
H28A H 0.4674 1.0497 0.4215
C39A C 0.6289(3) 1.2407(3) 0.4934(3)
H29A H 0.5730 1.2474 0.4393
C40A C 0.7245(3) 1.3301(3) 0.5388(3)
H30A H 0.7295 1.3967 0.5145
loop_
_geom_bond_atom_site_label_1
_geom_bond_atom_site_label_2
_geom_bond_site_symmetry_1
_geom_bond_site_symmetry_2
Co1 O1 1_555 1_555
Co2 O4 1_555 1_555
O1 C7 1_555 1_555
O2 Co1 1_555 1_555
O3 C11 1_555 1_555
O4 C11 1_555 1_555
N1 Co2 1_555 1_555
N2 Co1 1_555 1_555
O5 Co2 1_555 1_555
H1 O5 1_555 1_555
H2 O5 1_555 1_555
O6 C22 1_555 1_555
O7 C22 1_555 1_555
O8 C21 1_555 1_555
O9 C21 1_555 1_555
N3 C32 1_555 1_555
S1 C8 1_555 1_555
C1 N2 1_555 1_555
H3 C1 1_555 1_555
C2 C1 1_555 1_555
H4 C2 1_555 1_555
C3 C2 1_555 1_555
C4 C3 1_555 1_555
H5 C4 1_555 1_555
C5 N2 1_555 1_555
H6 C5 1_555 1_555
C6 C3 1_555 1_555
H7 C6 1_555 1_555
C7 O2 1_555 1_555
C8 C9 1_555 1_555
C9 C7 1_555 1_555
C10 C9 1_555 1_555
C11 C10 1_555 1_555
C12 C10 1_555 1_555
H8 C12 1_555 1_555
C13 C12 1_555 1_555
H9 C13 1_555 1_555
C14 C8 1_555 1_555
H10 C14 1_555 1_555
C15 S1 1_555 1_555
C16 C15 1_555 1_555
H11 C16 1_555 1_555
C17 C16 1_555 1_555
H12 C17 1_555 1_555
C18 C17 1_555 1_555
H13 C18 1_555 1_555
C19 C18 1_555 1_555
C20 C15 1_555 1_555
C21 C19 1_555 1_555
C22 C20 1_555 1_555
C23 N1 1_555 1_555
H14 C23 1_555 1_555
C24 C23 1_555 1_555
H15 C24 1_555 1_555
C25 C24 1_555 1_555
C26 C25 1_555 1_555
H16 C26 1_555 1_555
C27 N1 1_555 1_555
H17 C27 1_555 1_555
C28 C25 1_555 1_555
H18 C28 1_555 1_555
C29 C28 1_555 1_555
H19 C29 1_555 1_555
C30 C29 1_555 1_555
C31 C30 1_555 1_555
H20 C31 1_555 1_555
C32 C31 1_555 1_555
H21 C32 1_555 1_555
C33 N3 1_555 1_555
H22 C33 1_555 1_555
C34 C30 1_555 1_555
H23 C34 1_555 1_555
O10 H24 1_555 1_555
H25 O10 1_555 1_555
N4 C35 1_555 1_555
C35 H26 1_555 1_555
C36 C35 1_555 1_555
H27 C36 1_555 1_555
C37 C36 1_555 1_555
C38 C37 1_555 1_555
H28 C38 1_555 1_555
C39 C37 1_555 1_555
H29 C39 1_555 1_555
C40 N4 1_555 1_555
H30 C40 1_555 1_555
N2A C1A 1_555 1_555
C1A H3A 1_555 1_555
C2A C1A 1_555 1_555
H4A C2A 1_555 1_555
C3A C2A 1_555 1_555
C4A C3A 1_555 1_555
H5A C4A 1_555 1_555
C5A N2A 1_555 1_555
H6A C5A 1_555 1_555
C6A C6 1_555 1_555
H7A C6A 1_555 1_555
Co1A N2A 1_555 1_555
Co2A O4A 1_555 1_555
O1A Co1A 1_555 1_555
O2A Co1A 1_555 1_555
O3A C11A 1_555 1_555
O4A C11A 1_555 1_555
N1A Co2A 1_555 1_555
O5A Co2A 1_555 1_555
H1A O5A 1_555 1_555
H2A O5A 1_555 1_555
O6A C22A 1_555 1_555
O7A C22A 1_555 1_555
O8A C21A 1_555 1_555
O9A C21A 1_555 1_555
N3A C32A 1_555 1_555
S1A C8A 1_555 1_555
C7A O1A 1_555 1_555
C8A C9A 1_555 1_555
C9A C7A 1_555 1_555
C10A C9A 1_555 1_555
C11A C10A 1_555 1_555
C12A C10A 1_555 1_555
H8A C12A 1_555 1_555
C13A C12A 1_555 1_555
H9A C13A 1_555 1_555
C14A C8A 1_555 1_555
H10A C14A 1_555 1_555
C15A S1A 1_555 1_555
C16A C15A 1_555 1_555
H11A C16A 1_555 1_555
C17A C16A 1_555 1_555
H12A C17A 1_555 1_555
C18A C17A 1_555 1_555
H13A C18A 1_555 1_555
C19A C18A 1_555 1_555
C20A C15A 1_555 1_555
C21A C19A 1_555 1_555
C22A C20A 1_555 1_555
C23A N1A 1_555 1_555
H14A C23A 1_555 1_555
C24A C23A 1_555 1_555
H15A C24A 1_555 1_555
C25A C24A 1_555 1_555
C26A C25A 1_555 1_555
H16A C26A 1_555 1_555
C27A N1A 1_555 1_555
H17A C27A 1_555 1_555
C28A C25A 1_555 1_555
H18A C28A 1_555 1_555
C29A C28A 1_555 1_555
H19A C29A 1_555 1_555
C30A C29A 1_555 1_555
C31A C30A 1_555 1_555
H20A C31A 1_555 1_555
C32A C31A 1_555 1_555
H21A C32A 1_555 1_555
C33A N3A 1_555 1_555
H22A C33A 1_555 1_555
C34A C30A 1_555 1_555
H23A C34A 1_555 1_555
Co1_2 O7A 1_555 1_555
Co1_3 O8 1_555 1_555
Co1A_2 O8A 1_555 1_555
Co1A_3 O7 1_555 1_555
Co2_2 N3 1_555 1_555
Co2_3 O6 1_555 1_555
Co2A_2 O6A 1_555 1_555
Co2A_3 N3A 1_555 1_555
O6_2 Co2 1_555 1_555
O6A_2 Co2A 1_555 1_555
O7_2 Co1A 1_555 1_555
O7A_2 Co1 1_555 1_555
O8_2 Co1 1_555 1_555
O8A_2 Co1A 1_555 1_555
O9_2 Co1 1_555 1_555
O9A_2 Co1A 1_555 1_555
N3_2 Co2 1_555 1_555
N3A_2 Co2A 1_555 1_555
N4A C35A 1_555 1_555
C35A H26A 1_555 1_555
C36A C35A 1_555 1_555
H27A C36A 1_555 1_555
C37A C36A 1_555 1_555
C38A C38 1_555 1_555
H28A C38A 1_555 1_555
C39A C37A 1_555 1_555
H29A C39A 1_555 1_555
C40A N4A 1_555 1_555
H30A C40A 1_555 1_555
Co2 O8_2 1_555 1_555
O8 Co2_3 1_555 1_555
O9 Co1_3 1_555 1_555
C4 C5 1_555 1_555
C13 C14 1_555 1_555
C19 C20 1_555 1_555
C26 C27 1_555 1_555
C33 C34 1_555 1_555
C39 C40 1_555 1_555
C3A C6A 1_555 1_555
C4A C5A 1_555 1_555
Co2A O8A_2 1_555 1_555
O2A C7A 1_555 1_555
O8A Co2A_2 1_555 1_555
O9A Co1A_2 1_555 1_555
C13A C14A 1_555 1_555
C19A C20A 1_555 1_555
C26A C27A 1_555 1_555
C33A C34A 1_555 1_555
C37A C38A 1_555 1_555
C39A C40A 1_555 1_555

#END
