
#######################################################################
#
#                 Cambridge Crystallographic Data Centre
#                                CCDC 
#
#######################################################################
#
# If this CIF has been generated from an entry in the Cambridge 
# Structural Database, then it will include bibliographic, chemical, 
# crystal, experimental, refinement or atomic coordinate data resulting 
# from the CCDC's data processing and validation procedures.
#
#######################################################################

data_IHIMAP
_symmetry_cell_setting           triclinic
_symmetry_space_group_name_H-M   'P -1'
_symmetry_Int_Tables_number      2
_space_group_name_Hall           '-P 1'
loop_
_symmetry_equiv_pos_site_id
_symmetry_equiv_pos_as_xyz
1 x,y,z
2 -x,-y,-z
_cell_length_a                   7.976(8)
_cell_length_b                   12.006(14)
_cell_length_c                   12.284(10)
_cell_angle_alpha                112.01(2)
_cell_angle_beta                 90.05(3)
_cell_angle_gamma                100.58(5)
_cell_volume                     1068.9
loop_
_atom_site_label
_atom_site_type_symbol
_atom_site_fract_x
_atom_site_fract_y
_atom_site_fract_z
C1 C 0.6352(11) 0.1398(8) 1.0223(8)
C2 C 0.6153(11) 0.1731(9) 1.1520(8)
H1 H 0.5345 0.1075 1.1624
H2 H 0.5672 0.2465 1.1817
C3 C 0.7854(11) 0.1959(8) 1.2270(8)
H3 H 0.8699 0.2564 1.2117
H4 H 0.7652 0.2291 1.3098
C4 C 0.8556(10) 0.0818(8) 1.2010(7)
C5 C 0.6443(11) -0.0822(9) 0.6388(8)
C6 C 0.7134(11) -0.1979(9) 0.5807(8)
H5 H 0.7326 -0.2317 0.6389
H6 H 0.6290 -0.2579 0.5205
C7 C 0.7601(12) 0.5262(8) 1.1466(9)
H7 H 0.8829 0.5541 1.1631
H8 H 0.7203 0.4745 1.1897
C8 C 0.6729(11) 0.6329(8) 1.1817(8)
C9 C 0.8619(11) -0.1431(8) 0.4187(7)
C10 C 0.8774(11) -0.1756(9) 0.5258(7)
H9 H 0.9570 -0.1095 0.5849
H10 H 0.9263 -0.2486 0.5033
C11 C 0.7158(12) 0.4555(9) 1.0150(9)
H11 H 0.7321 0.5133 0.9762
H12 H 0.5955 0.4170 1.0026
C12 C 0.8197(11) 0.3569(8) 0.9560(9)
La1 La 0.99112(6) 0.14308(5) 0.85318(4)
La2 La 0.49133(6) 0.14293(5) 0.75029(4)
O1 O 0.7714(7) 0.2779(5) 0.8504(5)
O2 O 0.9490(8) 0.3551(6) 1.0106(5)
O3 O 0.7665(7) -0.0128(6) 1.2087(5)
O4 O 1.0099(7) 0.0791(6) 1.1755(6)
O5 O 0.5477(8) 0.6395(6) 1.2439(6)
O6 O 0.7272(7) 0.7217(5) 1.1445(5)
O7 O 0.5158(7) 0.1498(6) 0.9618(5)
O8 O 0.7677(7) 0.1014(6) 0.9798(5)
O9 O 0.9828(7) -0.1527(6) 0.3502(5)
O10 O 0.7310(7) -0.1037(6) 0.4051(5)
O11 O 0.7352(7) 0.0138(6) 0.7162(5)
O12 O 0.4888(7) -0.0804(6) 0.6162(5)
O13 O 0.6812(8) 0.1835(6) 0.5976(5)
H13 H 0.6414 0.1324 0.5190
H14 H 0.7926 0.1703 0.6057
O14 O 1.1810(8) 0.1812(6) 1.0352(6)
H15 H 1.2799 0.1550 1.0159
H16 H 1.1294 0.1416 1.0794
La1A La 1.00888(6) -0.14308(5) 0.14682(4)
La1A_2 La 1.00888(6) -0.14308(5) 1.14682(4)
La1A_3 La 1.00888(6) 0.85692(5) 1.14682(4)
La2A La 0.50867(6) -0.14293(5) 0.24971(4)
La2A_2 La 0.50867(6) -0.14293(5) 1.24971(4)
La2A_3 La 0.50867(6) 0.85707(5) 1.24971(4)
O3A O 0.2335(7) 0.0128(6) 0.7913(5)
O3A_2 O 1.2335(7) 0.0128(6) 0.7913(5)
O4A O 0.9901(7) -0.0791(6) 0.8245(6)
O5A O 0.4523(8) 0.3605(6) 0.7561(6)
O6A O 0.2728(7) 0.2783(5) 0.8555(5)
O6A_2 O 1.2728(7) 0.2783(5) 0.8555(5)
O9A O 1.0172(7) 0.1527(6) 0.6498(5)
O10A O 0.2690(7) 0.1037(6) 0.5949(5)
loop_
_geom_bond_atom_site_label_1
_geom_bond_atom_site_label_2
_geom_bond_site_symmetry_1
_geom_bond_site_symmetry_2
C1 C2 1_555 1_555
C2 H1 1_555 1_555
H2 C2 1_555 1_555
C3 C2 1_555 1_555
H3 C3 1_555 1_555
H4 C3 1_555 1_555
C4 C3 1_555 1_555
C5 C6 1_555 1_555
C6 H5 1_555 1_555
H6 C6 1_555 1_555
C7 H7 1_555 1_555
H8 C7 1_555 1_555
C8 C7 1_555 1_555
C9 C10 1_555 1_555
C10 C6 1_555 1_555
H9 C10 1_555 1_555
H10 C10 1_555 1_555
C11 C7 1_555 1_555
H11 C11 1_555 1_555
H12 C11 1_555 1_555
C12 C11 1_555 1_555
La1 O1 1_555 1_555
La2 O1 1_555 1_555
O1 C12 1_555 1_555
O2 C12 1_555 1_555
O3 C4 1_555 1_555
O4 C4 1_555 1_555
O5 C8 1_555 1_555
O6 C8 1_555 1_555
O7 C1 1_555 1_555
O8 C1 1_555 1_555
O9 C9 1_555 1_555
O10 C9 1_555 1_555
O11 C5 1_555 1_555
O12 C5 1_555 1_555
O13 La2 1_555 1_555
H13 O13 1_555 1_555
H14 O13 1_555 1_555
O14 La1 1_555 1_555
H15 O14 1_555 1_555
H16 O14 1_555 1_555
La1A O9 1_555 1_555
La1A_2 O3 1_555 1_555
La1A_3 O6 1_555 1_555
La2A O10 1_555 1_555
La2A_2 O3 1_555 1_555
La2A_3 O5 1_555 1_555
O3A La2 1_555 1_555
O3A_2 La1 1_555 1_555
O4A La1 1_555 1_555
O5A La2 1_555 1_555
O6A La2 1_555 1_555
O6A_2 La1 1_555 1_555
O9A La1 1_555 1_555
O10A La2 1_555 1_555
La1 O2 1_555 1_555
La1 O8 1_555 1_555
La1 O11 1_555 1_555
La2 O7 1_555 1_555
La2 O11 1_555 1_555
La2 O12 1_555 1_555
O4 La1A_2 1_555 1_555
O6 La2A_3 1_555 1_555

#END
