
#######################################################################
#
#                 Cambridge Crystallographic Data Centre
#                                CCDC 
#
#######################################################################
#
# If this CIF has been generated from an entry in the Cambridge 
# Structural Database, then it will include bibliographic, chemical, 
# crystal, experimental, refinement or atomic coordinate data resulting 
# from the CCDC's data processing and validation procedures.
#
#######################################################################

data_IHIMAP01
_symmetry_cell_setting           triclinic
_symmetry_space_group_name_H-M   'P -1'
_symmetry_Int_Tables_number      2
_space_group_name_Hall           '-P 1'
loop_
_symmetry_equiv_pos_site_id
_symmetry_equiv_pos_as_xyz
1 x,y,z
2 -x,-y,-z
_cell_length_a                   7.979(2)
_cell_length_b                   12.095(3)
_cell_length_c                   12.297(4)
_cell_angle_alpha                111.681(11)
_cell_angle_beta                 89.932(16)
_cell_angle_gamma                100.158(12)
_cell_volume                     1082.84
loop_
_atom_site_label
_atom_site_type_symbol
_atom_site_fract_x
_atom_site_fract_y
_atom_site_fract_z
C1 C 0.6461(9) 0.4243(7) 0.1435(6)
C2 C 0.7181(9) 0.3110(7) 0.0855(7)
H1 H 0.7390 0.2776 0.1437
H2 H 0.6344 0.2514 0.0262
C3 C 0.8857(9) 0.3337(7) 0.0277(6)
H3 H 0.9625 0.4025 0.0839
H4 H 0.9394 0.2636 0.0093
C4 C 0.8631(9) 0.3581(6) -0.0828(7)
C5 C 0.1436(9) 0.4235(7) 0.3019(6)
C6 C 0.2160(9) 0.3079(6) 0.2755(6)
C7 C 0.3841(9) 0.3303(7) 0.3488(6)
C8 C 0.3652(9) 0.3606(7) 0.4781(7)
C9 C 0.3259(9) 0.8653(7) 0.3208(7)
C10 C 0.2449(10) 0.9741(6) 0.3641(7)
H5 H 0.2861 1.0271 0.3229
H6 H 0.1222 0.9492 0.3474
C11 C 0.2836(10) 1.0422(7) 0.4935(7)
H7 H 0.4041 1.0784 0.5080
H8 H 0.2618 0.9852 0.5327
C12 C 0.1809(9) 1.1410(6) 0.5471(7)
La1 La -0.00938(5) 0.64541(4) 0.35392(4)
La2 La 0.49033(5) 0.64508(4) 0.25104(4)
O1 O 0.7365(6) 0.5157(4) 0.2174(4)
O2 O 0.4924(6) 0.4246(5) 0.1191(4)
O3 O 0.2334(6) 0.5154(5) 0.2938(4)
O4 O -0.0081(6) 0.4260(5) 0.3272(4)
O5 O 0.2722(6) 0.7796(4) 0.3567(4)
O6 O 0.4458(7) 0.8578(5) 0.2569(5)
O7 O 0.7318(6) 0.3935(5) -0.0968(4)
O8 O 0.9852(5) 0.3457(4) -0.1500(4)
O9 O 0.2307(6) 1.2196(4) 0.6499(4)
O10 O 0.6758(6) 0.6776(5) 0.0957(4)
H9 H 0.6240 0.6305 0.0114
H10 H 0.7950 0.6517 0.0904
O11 O 0.1780(6) 0.6776(5) 0.5343(4)
H11 H 0.2844 0.6485 0.5177
H12 H 0.1229 0.6376 0.5822
O12 O 0.0536(6) 1.1465(4) 0.4938(4)
O13 O 0.4870(6) 0.3491(4) 0.5377(4)
O14 O 0.2317(6) 0.3972(5) 0.5202(4)
La1_2 La 0.99062(5) 0.64541(4) 0.35392(4)
La1A La 0.00938(5) 0.35459(4) 0.64608(4)
La1A_2 La 0.00938(5) 1.35459(4) 0.64608(4)
La1A_3 La 1.00938(5) 0.35459(4) -0.35392(4)
La2A La 0.50967(5) 0.35492(4) -0.25104(4)
La2A_2 La 0.50967(5) 0.35492(4) 0.74896(4)
La2A_3 La 0.50967(5) 1.35492(4) 0.74896(4)
O1_2 O -0.2635(6) 0.5157(4) 0.2174(4)
O7A O 0.2682(6) 0.6065(5) 0.0968(4)
O8A O 0.0148(5) 0.6543(4) 0.1500(4)
O9A O -0.2307(6) 0.7804(4) 0.3501(4)
O9A_2 O 0.7693(6) 0.7804(4) 0.3501(4)
O12A O -0.0536(6) 0.8535(4) 0.5062(4)
O13A O 0.5130(6) 0.6509(4) 0.4623(4)
O14A O -0.2317(6) 0.6028(5) 0.4798(4)
loop_
_geom_bond_atom_site_label_1
_geom_bond_atom_site_label_2
_geom_bond_site_symmetry_1
_geom_bond_site_symmetry_2
C1 C2 1_555 1_555
C2 H1 1_555 1_555
H2 C2 1_555 1_555
C3 C2 1_555 1_555
H3 C3 1_555 1_555
H4 C3 1_555 1_555
C4 C3 1_555 1_555
C5 C6 1_555 1_555
C6 C7 1_555 1_555
C7 C8 1_555 1_555
C8 O13 1_555 1_555
C9 C10 1_555 1_555
C10 H5 1_555 1_555
H6 C10 1_555 1_555
C11 C10 1_555 1_555
H7 C11 1_555 1_555
H8 C11 1_555 1_555
C12 C11 1_555 1_555
La1 O3 1_555 1_555
La2 O1 1_555 1_555
O1 C1 1_555 1_555
O2 C1 1_555 1_555
O3 C5 1_555 1_555
O4 C5 1_555 1_555
O5 C9 1_555 1_555
O6 C9 1_555 1_555
O7 C4 1_555 1_555
O8 C4 1_555 1_555
O9 C12 1_555 1_555
O10 La2 1_555 1_555
H9 O10 1_555 1_555
H10 O10 1_555 1_555
O11 La1 1_555 1_555
H11 O11 1_555 1_555
H12 O11 1_555 1_555
O12 C12 1_555 1_555
O13 La2A_2 1_555 1_555
O14 C8 1_555 1_555
La1_2 O1 1_555 1_555
La1A O14 1_555 1_555
La1A_2 O9 1_555 1_555
La1A_3 O8 1_555 1_555
La2A O7 1_555 1_555
La2A_3 O9 1_555 1_555
O1_2 La1 1_555 1_555
O7A La2 1_555 1_555
O8A La1 1_555 1_555
O9A La1 1_555 1_555
O9A_2 La2 1_555 1_555
O12A La1 1_555 1_555
O13A La2 1_555 1_555
O14A La1 1_555 1_555
La1 O4 1_555 1_555
La1 O5 1_555 1_555
La2 O2 1_555 1_555
La2 O3 1_555 1_555
La2 O5 1_555 1_555
La2 O6 1_555 1_555
O12 La1A_2 1_555 1_555
La1_2 O9A_2 1_555 1_555

#END
