
#######################################################################
#
#                 Cambridge Crystallographic Data Centre
#                                CCDC 
#
#######################################################################
#
# If this CIF has been generated from an entry in the Cambridge 
# Structural Database, then it will include bibliographic, chemical, 
# crystal, experimental, refinement or atomic coordinate data resulting 
# from the CCDC's data processing and validation procedures.
#
#######################################################################

data_IJASOC
_symmetry_cell_setting           triclinic
_symmetry_space_group_name_H-M   'P -1'
_symmetry_Int_Tables_number      2
_space_group_name_Hall           '-P 1'
loop_
_symmetry_equiv_pos_site_id
_symmetry_equiv_pos_as_xyz
1 x,y,z
2 -x,-y,-z
_cell_length_a                   9.955(3)
_cell_length_b                   12.795(3)
_cell_length_c                   13.801(4)
_cell_angle_alpha                69.415(4)
_cell_angle_beta                 82.562(4)
_cell_angle_gamma                83.117(4)
_cell_volume                     1626.57
loop_
_atom_site_label
_atom_site_type_symbol
_atom_site_fract_x
_atom_site_fract_y
_atom_site_fract_z
Tm1 Tm 0.469822(18) 0.359646(14) 0.625217(14)
O1 O 0.4709(4) 0.2847(3) 0.5054(3)
O2 O 0.5881(7) 0.2846(4) 0.3607(4)
O3 O 0.7099(4) 0.3359(3) 0.6177(3)
O4 O 0.6331(3) 0.4867(3) 0.5032(2)
O5 O 0.4922(4) 0.1636(3) 0.7236(3)
O6 O 0.4952(5) 0.2801(3) 0.8039(3)
O7 O 0.2499(4) 0.3204(3) 0.6725(3)
O8 O 0.4401(5) 0.4965(3) 0.6957(3)
H1 H 0.4030 0.4817 0.7576
H2 H 0.4646 0.5629 0.6716
N1 N 0.0691(5) 0.2240(5) 0.6880(5)
C1 C 0.5253(6) 0.2355(4) 0.4440(4)
C2 C 0.5114(6) 0.1117(4) 0.4738(4)
C3 C 0.6117(6) 0.0375(4) 0.5265(4)
C4 C 0.7295(7) 0.0806(5) 0.5529(6)
H3 H 0.7898 0.0186 0.5889
H4 H 0.6978 0.1244 0.5965
H5 H 0.7771 0.1264 0.4901
C5 C 0.3999(6) 0.0762(4) 0.4467(4)
C6 C 0.2938(8) 0.1598(6) 0.3873(6)
H6 H 0.2892 0.1494 0.3222
H7 H 0.3175 0.2343 0.3745
H8 H 0.2070 0.1488 0.4273
C7 C 0.7311(4) 0.4268(4) 0.5484(4)
C8 C 0.8717(4) 0.4656(4) 0.5220(4)
C9 C 0.9148(5) 0.5198(4) 0.5817(4)
C10 C 0.8207(6) 0.5384(5) 0.6690(5)
H9 H 0.8654 0.5769 0.7026
H10 H 0.7963 0.4675 0.7183
H11 H 0.7403 0.5827 0.6420
C11 C 0.9540(5) 0.4447(4) 0.4401(4)
C12 C 0.9026(6) 0.3856(6) 0.3776(5)
H12 H 0.9050 0.4331 0.3060
H13 H 0.8109 0.3677 0.4034
H14 H 0.9593 0.3178 0.3833
C13 C 0.4951(6) 0.1829(5) 0.8057(4)
C14 C 0.4979(6) 0.0868(4) 0.9080(4)
C15 C 0.6133(6) 0.0145(5) 0.9266(4)
C16 C 0.7361(7) 0.0314(7) 0.8501(6)
H15 H 0.7551 -0.0329 0.8285
H16 H 0.8126 0.0401 0.8817
H17 H 0.7197 0.0970 0.7908
C17 C 0.3854(6) 0.0743(5) 0.9789(4)
C18 C 0.2591(8) 0.1531(7) 0.9556(6)
H18 H 0.1911 0.1317 1.0135
H19 H 0.2251 0.1495 0.8949
H20 H 0.2806 0.2282 0.9430
C19 C 0.1903(6) 0.2603(6) 0.6463(5)
H21 H 0.2323 0.2370 0.5923
C20 C -0.0028(7) 0.2559(7) 0.7679(6)
H22 H 0.0016 0.1945 0.8324
H23 H -0.0960 0.2767 0.7536
H24 H 0.0364 0.3186 0.7730
C21 C 0.0063(9) 0.1536(9) 0.6504(9)
H25 H 0.0691 0.1315 0.6008
H26 H -0.0729 0.1935 0.6175
H27 H -0.0197 0.0882 0.7074
Tm1A Tm 0.530178(18) -0.359646(14) 0.374783(14)
Tm1_2 Tm 1.469822(18) 0.359646(14) 0.625217(14)
Tm1A_2 Tm 0.530178(18) -0.359646(14) 1.374783(14)
Tm1A_3 Tm 0.530178(18) 0.640354(14) 0.374783(14)
Tm1A_4 Tm 1.530178(18) 0.640354(14) 0.374783(14)
O1A O 0.5291(4) -0.2847(3) 0.4946(3)
O2A O 0.4119(7) -0.2846(4) 0.6393(4)
O3A O 1.2901(4) 0.6641(3) 0.3823(3)
O3A_2 O 0.2901(4) -0.3359(3) 0.3823(3)
O4A O 1.3669(3) 0.5133(3) 0.4968(2)
O4_2 O 0.6331(3) -0.5133(3) 0.5032(2)
O4A_2 O 0.3669(3) 0.5133(3) 0.4968(2)
O4A_3 O 0.3669(3) -0.4867(3) 0.4968(2)
O5A O 0.5078(4) -0.1636(3) 1.2764(3)
O5A_2 O 0.5078(4) -0.1636(3) 0.2764(3)
O6A O 0.5048(5) -0.2801(3) 1.1961(3)
O6A_2 O 0.5048(5) -0.2801(3) 0.1961(3)
O7A O 0.7501(4) -0.3204(3) 0.3275(3)
O8A O 0.5599(5) -0.4965(3) 0.3043(3)
H1A H 0.5970 -0.4817 0.2424
H2A H 0.5354 -0.5629 0.3284
N1A N 0.9309(5) -0.2240(5) 0.3120(5)
C1A C 0.4747(6) -0.2355(4) 0.5560(4)
C2A C 0.4886(6) -0.1117(4) 0.5262(4)
C3A C 0.3883(6) -0.0375(4) 0.4735(4)
C4A C 0.2705(7) -0.0806(5) 0.4471(6)
H3A H 0.2102 -0.0186 0.4111
H4A H 0.3022 -0.1244 0.4035
H5A H 0.2229 -0.1264 0.5099
C5A C 0.6001(6) -0.0762(4) 0.5533(4)
C6A C 0.7062(8) -0.1598(6) 0.6127(6)
H6A H 0.7108 -0.1494 0.6778
H7A H 0.6825 -0.2343 0.6255
H8A H 0.7930 -0.1488 0.5727
C7A C 1.2689(4) 0.5732(4) 0.4516(4)
C7A_2 C 0.2689(4) -0.4268(4) 0.4516(4)
C8A C 1.1283(4) 0.5344(4) 0.4780(4)
C9A C 1.0852(5) 0.4802(4) 0.4183(4)
C10A C 1.1793(6) 0.4616(5) 0.3310(5)
H9A H 1.1346 0.4231 0.2974
H10A H 1.2037 0.5325 0.2817
H11A H 1.2597 0.4173 0.3580
C11A C 1.0460(5) 0.5553(4) 0.5599(4)
C12A C 1.0974(6) 0.6144(6) 0.6224(5)
H12A H 1.0950 0.5669 0.6940
H13A H 1.1891 0.6323 0.5966
H14A H 1.0407 0.6822 0.6167
C13A C 0.5049(6) -0.1829(5) 1.1943(4)
C13A_2 C 0.5049(6) -0.1829(5) 0.1943(4)
C14A C 0.5021(6) -0.0868(4) 1.0920(4)
C15A C 0.3867(6) -0.0145(5) 1.0734(4)
C16A C 0.2639(7) -0.0314(7) 1.1499(6)
H15A H 0.2449 0.0329 1.1715
H16A H 0.1874 -0.0401 1.1183
H17A H 0.2803 -0.0970 1.2092
C17A C 0.6146(6) -0.0743(5) 1.0211(4)
C18A C 0.7409(8) -0.1531(7) 1.0444(6)
H18A H 0.8089 -0.1317 0.9865
H19A H 0.7749 -0.1495 1.1051
H20A H 0.7194 -0.2282 1.0570
C19A C 0.8097(6) -0.2603(6) 0.3537(5)
H21A H 0.7677 -0.2370 0.4077
C20A C 1.0028(7) -0.2559(7) 0.2321(6)
H22A H 0.9984 -0.1945 0.1676
H23A H 1.0960 -0.2767 0.2464
H24A H 0.9636 -0.3186 0.2270
C21A C 0.9937(9) -0.1536(9) 0.3496(9)
H25A H 0.9309 -0.1315 0.3992
H26A H 1.0729 -0.1935 0.3825
H27A H 1.0197 -0.0882 0.2926
O9 O 0.062(3) -0.106(2) 0.9473(17)
N2 N 0.2019(14) -0.1060(10) 0.8065(10)
C22 C 0.161(2) -0.0799(16) 0.8937(13)
H28 H 0.2169 -0.0379 0.9119
C23 C 0.125(2) -0.1672(19) 0.7740(17)
H29 H 0.0931 -0.1244 0.7078
H30 H 0.0495 -0.1898 0.8249
H31 H 0.1803 -0.2324 0.7689
C24 C 0.3274(19) -0.064(2) 0.7537(17)
H32 H 0.3160 0.0157 0.7236
H33 H 0.3526 -0.0958 0.6995
H34 H 0.3975 -0.0853 0.8003
O10 O 0.357(3) 0.498(2) 0.8824(19)
H35 H 0.3716 0.5643 0.8758
H36 H 0.2740 0.4855 0.8997
loop_
_geom_bond_atom_site_label_1
_geom_bond_atom_site_label_2
_geom_bond_site_symmetry_1
_geom_bond_site_symmetry_2
Tm1 O1 1_555 1_555
O1 C1 1_555 1_555
O2 C1 1_555 1_555
O3 Tm1 1_555 1_555
O4 Tm1 1_555 1_555
O5 Tm1 1_555 1_555
O6 Tm1 1_555 1_555
O7 Tm1 1_555 1_555
O8 Tm1 1_555 1_555
H1 O8 1_555 1_555
H2 O8 1_555 1_555
N1 C19 1_555 1_555
C1 C2 1_555 1_555
C2 C3 1_555 1_555
C3 C4 1_555 1_555
C4 H3 1_555 1_555
H4 C4 1_555 1_555
H5 C4 1_555 1_555
C5 C2 1_555 1_555
C6 C5 1_555 1_555
H6 C6 1_555 1_555
H7 C6 1_555 1_555
H8 C6 1_555 1_555
C7 O3 1_555 1_555
C8 C7 1_555 1_555
C9 C8 1_555 1_555
C10 C9 1_555 1_555
H9 C10 1_555 1_555
H10 C10 1_555 1_555
H11 C10 1_555 1_555
C11 C8 1_555 1_555
C12 C11 1_555 1_555
H12 C12 1_555 1_555
H13 C12 1_555 1_555
H14 C12 1_555 1_555
C13 O5 1_555 1_555
C14 C13 1_555 1_555
C15 C14 1_555 1_555
C16 C15 1_555 1_555
H15 C16 1_555 1_555
H16 C16 1_555 1_555
H17 C16 1_555 1_555
C17 C14 1_555 1_555
C18 C17 1_555 1_555
H18 C18 1_555 1_555
H19 C18 1_555 1_555
H20 C18 1_555 1_555
C19 O7 1_555 1_555
H21 C19 1_555 1_555
C20 N1 1_555 1_555
H22 C20 1_555 1_555
H23 C20 1_555 1_555
H24 C20 1_555 1_555
C21 N1 1_555 1_555
H25 C21 1_555 1_555
H26 C21 1_555 1_555
H27 C21 1_555 1_555
O9 C22 1_555 1_555
N2 C22 1_555 1_555
C22 H28 1_555 1_555
C23 N2 1_555 1_555
H29 C23 1_555 1_555
H30 C23 1_555 1_555
H31 C23 1_555 1_555
C24 N2 1_555 1_555
H32 C24 1_555 1_555
H33 C24 1_555 1_555
H34 C24 1_555 1_555
O10 H35 1_555 1_555
H36 O10 1_555 1_555
Tm1A O1A 1_555 1_555
Tm1_2 O4A 1_555 1_555
Tm1A_2 O5A 1_555 1_555
Tm1A_3 O4 1_555 1_555
Tm1A_4 O3A 1_555 1_555
O1A C1A 1_555 1_555
O2A C1A 1_555 1_555
O3A C7A 1_555 1_555
O3A_2 Tm1A 1_555 1_555
O4A Tm1A_4 1_555 1_555
O4_2 Tm1A 1_555 1_555
O4A_2 Tm1 1_555 1_555
O4A_3 Tm1A 1_555 1_555
O5A C13A 1_555 1_555
O5A_2 Tm1A 1_555 1_555
O6A Tm1A_2 1_555 1_555
O6A_2 Tm1A 1_555 1_555
O7A Tm1A 1_555 1_555
O8A Tm1A 1_555 1_555
H1A O8A 1_555 1_555
H2A O8A 1_555 1_555
N1A C19A 1_555 1_555
C1A C2A 1_555 1_555
C2A C3A 1_555 1_555
C3A C5 1_555 1_555
C4A C3A 1_555 1_555
H3A C4A 1_555 1_555
H4A C4A 1_555 1_555
H5A C4A 1_555 1_555
C5A C3 1_555 1_555
C6A C5A 1_555 1_555
H6A C6A 1_555 1_555
H7A C6A 1_555 1_555
H8A C6A 1_555 1_555
C7A O4A 1_555 1_555
C7A_2 O3A_2 1_555 1_555
C8A C7A 1_555 1_555
C9A C11 1_555 1_555
C10A C9A 1_555 1_555
H9A C10A 1_555 1_555
H10A C10A 1_555 1_555
H11A C10A 1_555 1_555
C11A C9 1_555 1_555
C12A C11A 1_555 1_555
H12A C12A 1_555 1_555
H13A C12A 1_555 1_555
H14A C12A 1_555 1_555
C13A O6A 1_555 1_555
C13A_2 O5A_2 1_555 1_555
C14A C13A 1_555 1_555
C15A C17 1_555 1_555
C16A C15A 1_555 1_555
H15A C16A 1_555 1_555
H16A C16A 1_555 1_555
H17A C16A 1_555 1_555
C17A C15 1_555 1_555
C18A C17A 1_555 1_555
H18A C18A 1_555 1_555
H19A C18A 1_555 1_555
H20A C18A 1_555 1_555
C19A O7A 1_555 1_555
H21A C19A 1_555 1_555
C20A N1A 1_555 1_555
H22A C20A 1_555 1_555
H23A C20A 1_555 1_555
H24A C20A 1_555 1_555
C21A N1A 1_555 1_555
H25A C21A 1_555 1_555
H26A C21A 1_555 1_555
H27A C21A 1_555 1_555
O4 C7 1_555 1_555
O6 C13 1_555 1_555
Tm1A_3 O4A_2 1_555 1_555
O4A_3 C7A_2 1_555 1_555
O6A_2 C13A_2 1_555 1_555
C2A C5A 1_555 1_555
C8A C9A 1_555 1_555
C8A C11A 1_555 1_555
C14A C15A 1_555 1_555
C14A C17A 1_555 1_555

#END
