
#######################################################################
#
#                 Cambridge Crystallographic Data Centre
#                                CCDC 
#
#######################################################################
#
# If this CIF has been generated from an entry in the Cambridge 
# Structural Database, then it will include bibliographic, chemical, 
# crystal, experimental, refinement or atomic coordinate data resulting 
# from the CCDC's data processing and validation procedures.
#
#######################################################################

data_IJASAO01
_symmetry_cell_setting           triclinic
_symmetry_space_group_name_H-M   'P -1'
_symmetry_Int_Tables_number      2
_space_group_name_Hall           '-P 1'
loop_
_symmetry_equiv_pos_site_id
_symmetry_equiv_pos_as_xyz
1 x,y,z
2 -x,-y,-z
_cell_length_a                   9.493(7)
_cell_length_b                   13.225(10)
_cell_length_c                   16.232(12)
_cell_angle_alpha                111.729(13)
_cell_angle_beta                 100.554(12)
_cell_angle_gamma                91.879(12)
_cell_volume                     1849.7
loop_
_atom_site_label
_atom_site_type_symbol
_atom_site_fract_x
_atom_site_fract_y
_atom_site_fract_z
Er1 Er 0.08228(5) 0.45611(4) 0.15518(3)
C1 C 0.1910(9) 0.4731(8) -0.0315(6)
C2 C 0.3520(9) 0.4858(9) -0.0147(6)
C3 C 0.4233(10) 0.3948(9) -0.0418(6)
C4 C 0.3413(11) 0.2856(9) -0.0853(7)
H1 H 0.3371 0.2551 -0.0404
H2 H 0.3880 0.2388 -0.1306
H3 H 0.2453 0.2915 -0.1131
C5 C 0.4237(10) 0.5914(9) 0.0274(6)
C6 C 0.3442(10) 0.6902(8) 0.0557(7)
H4 H 0.3379 0.7232 0.0117
H5 H 0.3947 0.7419 0.1138
H6 H 0.2489 0.6689 0.0599
C7 C 0.0436(13) 0.2305(9) 0.0840(7)
C8 C 0.0215(10) 0.1113(9) 0.0402(7)
C9 C 0.0452(10) 0.0467(9) 0.0937(6)
C10 C 0.0937(12) 0.1018(10) 0.1952(7)
H7 H 0.1144 0.1792 0.2119
H8 H 0.1790 0.0727 0.2148
H9 H 0.0187 0.0885 0.2236
C11 C -0.0236(10) 0.0629(9) -0.0519(6)
C12 C -0.0419(13) 0.1355(9) -0.1086(7)
H10 H -0.0086 0.2103 -0.0697
H11 H -0.1418 0.1299 -0.1363
H12 H 0.0134 0.1112 -0.1550
C13 C 0.0407(10) 0.4738(9) 0.3223(6)
C14 C 0.0207(10) 0.4884(9) 0.4157(6)
C15 C -0.0696(10) 0.4069(9) 0.4246(6)
C16 C -0.1455(13) 0.3118(10) 0.3412(7)
H13 H -0.1418 0.3274 0.2884
H14 H -0.2443 0.2998 0.3444
H15 H -0.0991 0.2473 0.3374
C17 C 0.0920(10) 0.5780(9) 0.4898(7)
C18 C 0.1868(13) 0.6605(10) 0.4767(7)
H16 H 0.2830 0.6398 0.4795
H17 H 0.1876 0.7311 0.5236
H18 H 0.1507 0.6637 0.4186
C19 C 0.4440(10) 0.4465(9) 0.1822(6)
H19 H 0.4130 0.3727 0.1486
C20 C 0.5955(12) 0.4802(13) 0.2094(8)
H20 H 0.6613 0.4296 0.1932
C21 C 0.6401(12) 0.5846(14) 0.2579(9)
H21 H 0.7387 0.6066 0.2766
C22 C 0.5438(13) 0.6637(12) 0.2822(8)
C23 C 0.5780(15) 0.7752(14) 0.3322(11)
H22 H 0.6750 0.8023 0.3534
C24 C 0.4837(17) 0.8437(13) 0.3511(10)
H23 H 0.5141 0.9183 0.3804
C25 C 0.3307(13) 0.8059(11) 0.3272(8)
C26 C 0.2253(16) 0.8727(12) 0.3479(9)
H24 H 0.2501 0.9463 0.3848
C27 C 0.0851(16) 0.8328(12) 0.3153(8)
H25 H 0.0126 0.8778 0.3293
C28 C 0.0521(13) 0.7216(11) 0.2596(7)
H26 H -0.0447 0.6956 0.2353
C29 C 0.2845(12) 0.6967(11) 0.2738(7)
C30 C 0.3928(11) 0.6215(11) 0.2515(7)
N1 N 0.3468(8) 0.5145(9) 0.2024(5)
N2 N 0.1450(9) 0.6525(7) 0.2393(5)
O1 O 0.1324(6) 0.4493(6) 0.0244(4)
O2 O 0.1234(6) 0.4850(6) -0.0986(4)
O3 O 0.1726(7) 0.2839(6) 0.1049(5)
O4 O -0.0575(7) 0.2876(6) 0.1027(5)
O5 O -0.0520(6) 0.5017(6) 0.2723(4)
O6 O 0.1524(7) 0.4392(6) 0.2969(4)
C1A C 0.8090(9) 0.5269(8) 0.0315(6)
C2A C 0.6480(9) 0.5142(9) 0.0147(6)
C3A C 0.5767(10) 0.6052(9) 0.0418(6)
C4A C 0.6587(11) 0.7144(9) 0.0853(7)
H1A H 0.6629 0.7449 0.0404
H2A H 0.6120 0.7612 0.1306
H3A H 0.7547 0.7085 0.1131
C5A C 0.5763(10) 0.4086(9) -0.0274(6)
C6A C 0.6558(10) 0.3098(8) -0.0557(7)
H4A H 0.6621 0.2768 -0.0117
H5A H 0.6053 0.2581 -0.1138
H6A H 0.7511 0.3311 -0.0599
O1A O 0.8676(6) 0.5507(6) -0.0244(4)
O2A O 0.8766(6) 0.5150(6) 0.0986(4)
C7A C -0.0436(13) -0.2305(9) -0.0840(7)
C8A C -0.0215(10) -0.1113(9) -0.0402(7)
C9A C -0.0452(10) -0.0467(9) -0.0937(6)
C10A C -0.0937(12) -0.1018(10) -0.1952(7)
H7A H -0.1144 -0.1792 -0.2119
H8A H -0.1790 -0.0727 -0.2148
H9A H -0.0187 -0.0885 -0.2236
C11A C 0.0236(10) -0.0629(9) 0.0519(6)
C12A C 0.0419(13) -0.1355(9) 0.1086(7)
H10A H 0.0086 -0.2103 0.0697
H11A H 0.1418 -0.1299 0.1363
H12A H -0.0134 -0.1112 0.1550
O3A O -0.1726(7) -0.2839(6) -0.1049(5)
O4A O 0.0575(7) -0.2876(6) -0.1027(5)
C13A C -0.0407(10) 0.5262(9) 0.6777(6)
C14A C -0.0207(10) 0.5116(9) 0.5843(6)
C15A C 0.0696(10) 0.5931(9) 0.5754(6)
C16A C 0.1455(13) 0.6882(10) 0.6588(7)
H13A H 0.1418 0.6726 0.7116
H14A H 0.2443 0.7002 0.6556
H15A H 0.0991 0.7527 0.6626
C17A C -0.0920(10) 0.4220(9) 0.5102(7)
C18A C -0.1868(13) 0.3395(10) 0.5233(7)
H16A H -0.2830 0.3602 0.5205
H17A H -0.1876 0.2689 0.4764
H18A H -0.1507 0.3363 0.5814
O5A O 0.0520(6) 0.4983(6) 0.7277(4)
O6A O -0.1524(7) 0.5608(6) 0.7031(4)
Er1A Er -0.08228(5) -0.45611(4) -0.15518(3)
C19A C -0.4440(10) -0.4465(9) -0.1822(6)
H19A H -0.4130 -0.3727 -0.1486
C20A C -0.5955(12) -0.4802(13) -0.2094(8)
H20A H -0.6613 -0.4296 -0.1932
C21A C -0.6401(12) -0.5846(14) -0.2579(9)
H21A H -0.7387 -0.6066 -0.2766
C22A C -0.5438(13) -0.6637(12) -0.2822(8)
C23A C -0.5780(15) -0.7752(14) -0.3322(11)
H22A H -0.6750 -0.8023 -0.3534
C24A C -0.4837(17) -0.8437(13) -0.3511(10)
H23A H -0.5141 -0.9183 -0.3804
C25A C -0.3307(13) -0.8059(11) -0.3272(8)
C26A C -0.2253(16) -0.8727(12) -0.3479(9)
H24A H -0.2501 -0.9463 -0.3848
C27A C -0.0851(16) -0.8328(12) -0.3153(8)
H25A H -0.0126 -0.8778 -0.3293
C28A C -0.0521(13) -0.7216(11) -0.2596(7)
H26A H 0.0447 -0.6956 -0.2353
C29A C -0.2845(12) -0.6967(11) -0.2738(7)
C30A C -0.3928(11) -0.6215(11) -0.2515(7)
N1A N -0.3468(8) -0.5145(9) -0.2024(5)
N2A N -0.1450(9) -0.6525(7) -0.2393(5)
Er1_2 Er 1.08228(5) 0.45611(4) 0.15518(3)
Er1A_2 Er -0.08228(5) 0.54389(4) -0.15518(3)
Er1A_3 Er -0.08228(5) 0.54389(4) 0.84482(3)
Er1A_4 Er 0.91772(5) 0.54389(4) -0.15518(3)
O1A_2 O -0.1324(6) -0.4493(6) -0.0244(4)
O2_2 O 0.1234(6) -0.5150(6) -0.0986(4)
O2A_2 O -0.1234(6) 0.5150(6) 0.0986(4)
O5A_2 O 0.0520(6) -0.5017(6) -0.2723(4)
O6A_2 O -0.1524(7) -0.4392(6) -0.2969(4)
loop_
_geom_bond_atom_site_label_1
_geom_bond_atom_site_label_2
_geom_bond_site_symmetry_1
_geom_bond_site_symmetry_2
Er1 N1 1_555 1_555
C1 C2 1_555 1_555
C2 C3 1_555 1_555
C3 C4 1_555 1_555
C4 H1 1_555 1_555
H2 C4 1_555 1_555
H3 C4 1_555 1_555
C5 C2 1_555 1_555
C6 C5 1_555 1_555
H4 C6 1_555 1_555
H5 C6 1_555 1_555
H6 C6 1_555 1_555
C7 C8 1_555 1_555
C8 C9 1_555 1_555
C9 C10 1_555 1_555
C10 H7 1_555 1_555
H8 C10 1_555 1_555
H9 C10 1_555 1_555
C11 C8 1_555 1_555
C12 C11 1_555 1_555
H10 C12 1_555 1_555
H11 C12 1_555 1_555
H12 C12 1_555 1_555
C13 C14 1_555 1_555
C14 C15 1_555 1_555
C15 C16 1_555 1_555
C16 H13 1_555 1_555
H14 C16 1_555 1_555
H15 C16 1_555 1_555
C17 C14 1_555 1_555
C18 C17 1_555 1_555
H16 C18 1_555 1_555
H17 C18 1_555 1_555
H18 C18 1_555 1_555
C19 H19 1_555 1_555
C20 C19 1_555 1_555
H20 C20 1_555 1_555
C21 C20 1_555 1_555
H21 C21 1_555 1_555
C22 C21 1_555 1_555
C23 C22 1_555 1_555
H22 C23 1_555 1_555
C24 C23 1_555 1_555
H23 C24 1_555 1_555
C25 C24 1_555 1_555
C26 C25 1_555 1_555
H24 C26 1_555 1_555
C27 C26 1_555 1_555
H25 C27 1_555 1_555
C28 C27 1_555 1_555
H26 C28 1_555 1_555
C29 C25 1_555 1_555
C30 C22 1_555 1_555
N1 C19 1_555 1_555
N2 Er1 1_555 1_555
O1 Er1 1_555 1_555
O2 C1 1_555 1_555
O3 Er1 1_555 1_555
O4 Er1 1_555 1_555
O5 Er1 1_555 1_555
O6 Er1 1_555 1_555
C1A C2A 1_555 1_555
C2A C3A 1_555 1_555
C3A C5 1_555 1_555
C4A C3A 1_555 1_555
H1A C4A 1_555 1_555
H2A C4A 1_555 1_555
H3A C4A 1_555 1_555
C5A C3 1_555 1_555
C6A C5A 1_555 1_555
H4A C6A 1_555 1_555
H5A C6A 1_555 1_555
H6A C6A 1_555 1_555
O1A C1A 1_555 1_555
O2A C1A 1_555 1_555
C7A C8A 1_555 1_555
C8A C9A 1_555 1_555
C9A C11 1_555 1_555
C10A C9A 1_555 1_555
H7A C10A 1_555 1_555
H8A C10A 1_555 1_555
H9A C10A 1_555 1_555
C11A C9 1_555 1_555
C12A C11A 1_555 1_555
H10A C12A 1_555 1_555
H11A C12A 1_555 1_555
H12A C12A 1_555 1_555
O3A C7A 1_555 1_555
O4A C7A 1_555 1_555
C13A C14A 1_555 1_555
C14A C15A 1_555 1_555
C15A C17 1_555 1_555
C16A C15A 1_555 1_555
H13A C16A 1_555 1_555
H14A C16A 1_555 1_555
H15A C16A 1_555 1_555
C17A C15 1_555 1_555
C18A C17A 1_555 1_555
H16A C18A 1_555 1_555
H17A C18A 1_555 1_555
H18A C18A 1_555 1_555
O5A C13A 1_555 1_555
O6A C13A 1_555 1_555
Er1A O3A 1_555 1_555
C19A H19A 1_555 1_555
C20A C19A 1_555 1_555
H20A C20A 1_555 1_555
C21A C20A 1_555 1_555
H21A C21A 1_555 1_555
C22A C21A 1_555 1_555
C23A C22A 1_555 1_555
H22A C23A 1_555 1_555
C24A C23A 1_555 1_555
H23A C24A 1_555 1_555
C25A C24A 1_555 1_555
C26A C25A 1_555 1_555
H24A C26A 1_555 1_555
C27A C26A 1_555 1_555
H25A C27A 1_555 1_555
C28A C27A 1_555 1_555
H26A C28A 1_555 1_555
C29A C25A 1_555 1_555
C30A C22A 1_555 1_555
N1A Er1A 1_555 1_555
N2A Er1A 1_555 1_555
Er1_2 O2A 1_555 1_555
Er1A_2 O2 1_555 1_555
Er1A_3 O5A 1_555 1_555
Er1A_4 O1A 1_555 1_555
O1A_2 Er1A 1_555 1_555
O2_2 Er1A 1_555 1_555
O2A_2 Er1 1_555 1_555
O5A_2 Er1A 1_555 1_555
O6A_2 Er1A 1_555 1_555
C1 O1 1_555 1_555
C7 O3 1_555 1_555
C7 O4 1_555 1_555
C13 O5 1_555 1_555
C13 O6 1_555 1_555
C28 N2 1_555 1_555
C29 C30 1_555 1_555
C29 N2 1_555 1_555
C30 N1 1_555 1_555
C2A C5A 1_555 1_555
C8A C11A 1_555 1_555
O4A Er1A 1_555 1_555
C14A C17A 1_555 1_555
O6A Er1A_3 1_555 1_555
C19A N1A 1_555 1_555
C28A N2A 1_555 1_555
C29A C30A 1_555 1_555
C29A N2A 1_555 1_555
C30A N1A 1_555 1_555

#END
