
#######################################################################
#
#                 Cambridge Crystallographic Data Centre
#                                CCDC 
#
#######################################################################
#
# If this CIF has been generated from an entry in the Cambridge 
# Structural Database, then it will include bibliographic, chemical, 
# crystal, experimental, refinement or atomic coordinate data resulting 
# from the CCDC's data processing and validation procedures.
#
#######################################################################

data_IKETUO
_symmetry_cell_setting           triclinic
_symmetry_space_group_name_H-M   'P -1'
_symmetry_Int_Tables_number      2
_space_group_name_Hall           '-P 1'
loop_
_symmetry_equiv_pos_site_id
_symmetry_equiv_pos_as_xyz
1 x,y,z
2 -x,-y,-z
_cell_length_a                   6.078(3)
_cell_length_b                   9.950(5)
_cell_length_c                   13.337(7)
_cell_angle_alpha                68.823(6)
_cell_angle_beta                 81.142(7)
_cell_angle_gamma                76.813(7)
_cell_volume                     729.99
loop_
_atom_site_label
_atom_site_type_symbol
_atom_site_fract_x
_atom_site_fract_y
_atom_site_fract_z
Tb1 Tb 1.16637(10) 1.38607(6) -0.19546(4)
C1 C 0.711(2) 1.2351(14) -0.1408(9)
C2 C 0.8652(18) 1.1072(13) -0.0697(8)
C3 C 0.811(2) 0.9704(13) -0.0150(9)
H1 H 0.6749 0.9537 -0.0279
C4 C 1.050(2) 1.6160(14) -0.4395(10)
C5 C 1.287(2) 1.5574(13) -0.4735(10)
C6 C 1.379(2) 1.6032(14) -0.5770(9)
H2 H 1.2913 1.6749 -0.6294
C7 C 0.911(2) 1.5595(13) -0.0333(10)
N1 N 1.0622(17) 1.1376(11) -0.0541(8)
N2 N 1.4046(18) 1.4519(11) -0.3932(8)
O1 O 0.7848(15) 1.3525(9) -0.1835(8)
O2 O 0.5203(14) 1.2179(9) -0.1527(7)
O3 O 0.9844(15) 1.5679(10) -0.3410(6)
O4 O 0.9298(17) 1.7118(11) -0.5105(7)
O5 O 0.9172(16) 1.5698(10) -0.1301(7)
O6 O 0.7763(14) 1.6380(9) 0.0127(7)
O7 O 1.1690(17) 1.2122(10) -0.2826(7)
H3 H 1.1280 1.2221 -0.3434
H4 H 1.2867 1.1453 -0.2799
O8 O 1.4010(16) 1.5636(10) -0.2194(7)
H5 H 1.5362 1.5144 -0.2113
H6 H 1.4265 1.6364 -0.2708
Tb1A Tb 0.83363(10) 0.61393(6) 0.19546(4)
Tb1_2 Tb 0.16637(10) 1.38607(6) -0.19546(4)
Tb1A_2 Tb 0.83363(10) 1.61393(6) 0.19546(4)
Tb1A_3 Tb 1.83363(10) 0.61393(6) 0.19546(4)
Tb1A_4 Tb 1.83363(10) 1.61393(6) -0.80454(4)
C1A C 1.289(2) 0.7649(14) 0.1408(9)
C2A C 1.1348(18) 0.8928(13) 0.0697(8)
C3A C 1.189(2) 1.0296(13) 0.0150(9)
H1A H 1.3251 1.0463 0.0279
C4A C 1.950(2) 1.3840(14) -0.5605(10)
C5A C 1.713(2) 1.4426(13) -0.5265(10)
C6A C 1.621(2) 1.3968(14) -0.4230(9)
H2A H 1.7087 1.3251 -0.3706
C7A C 1.089(2) 1.4405(13) 0.0333(10)
N1A N 0.9378(17) 0.8624(11) 0.0541(8)
N2A N 1.5954(18) 1.5481(11) -0.6068(8)
N2A_2 N 0.5954(18) 0.5481(11) 0.3932(8)
O1A O 1.2152(15) 0.6475(9) 0.1835(8)
O2A O 1.4797(14) 0.7821(9) 0.1527(7)
O2_2 O 1.5203(14) 1.2179(9) -0.1527(7)
O2A_2 O 0.4797(14) 0.7821(9) 0.1527(7)
O3A O 2.0156(15) 1.4321(10) -0.6590(6)
O3A_2 O 1.0156(15) 0.4321(10) 0.3410(6)
O4A O 2.0702(17) 1.2882(11) -0.4895(7)
O5A O 1.0828(16) 1.4302(10) 0.1301(7)
O5A_2 O 1.0828(16) 0.4302(10) 0.1301(7)
O6A O 1.2237(14) 1.3620(9) -0.0127(7)
O6_2 O 0.7763(14) 0.6380(9) 0.0127(7)
O7A O 0.8310(17) 0.7878(10) 0.2826(7)
H3A H 0.8720 0.7779 0.3434
H4A H 0.7133 0.8547 0.2799
O8A O 0.5990(16) 0.4364(10) 0.2194(7)
H5A H 0.4638 0.4856 0.2113
H6A H 0.5735 0.3636 0.2708
O9 O 0.640(2) 0.2809(19) 0.0850(12)
H7 H 0.6272 0.2003 0.1365
H8 H 0.6921 0.2449 0.0346
O10 O 0.515(3) 0.1926(18) 0.4138(12)
H9 H 0.4563 0.1309 0.4608
H10 H 0.6330 0.1579 0.3939
O11 O 0.536(4) 0.039(2) 0.2631(19)
H11 H 0.4802 -0.0169 0.3220
H12 H 0.4152 0.1024 0.2436
O12 O 0.060(5) 0.116(2) 0.268(2)
H13 H -0.0600 0.1252 0.2384
H14 H 0.0630 0.2080 0.2490
O13? O 0.087(7) -0.016(5) 0.513(6)
H15? H -0.0758 -0.0046 0.5546
H16? H 0.1733 0.0454 0.5060
loop_
_geom_bond_atom_site_label_1
_geom_bond_atom_site_label_2
_geom_bond_site_symmetry_1
_geom_bond_site_symmetry_2
Tb1 N1 1_555 1_555
C1 C2 1_555 1_555
C2 C3 1_555 1_555
C3 H1 1_555 1_555
C4 C5 1_555 1_555
C5 C6 1_555 1_555
C6 H2 1_555 1_555
C7 O5 1_555 1_555
N1 C2 1_555 1_555
N2 Tb1 1_555 1_555
O1 Tb1 1_555 1_555
O2 C1 1_555 1_555
O3 Tb1 1_555 1_555
O4 C4 1_555 1_555
O5 Tb1 1_555 1_555
O6 C7 1_555 1_555
O7 Tb1 1_555 1_555
H3 O7 1_555 1_555
H4 O7 1_555 1_555
O8 Tb1 1_555 1_555
H5 O8 1_555 1_555
H6 O8 1_555 1_555
O9 H7 1_555 1_555
H8 O9 1_555 1_555
O10 H9 1_555 1_555
H10 O10 1_555 1_555
O11 H11 1_555 1_555
H12 O11 1_555 1_555
O12 H13 1_555 1_555
H14 O12 1_555 1_555
Tb1A N1A 1_555 1_555
Tb1_2 O2 1_555 1_555
Tb1A_2 O6 1_555 1_555
Tb1A_3 O2A 1_555 1_555
Tb1A_4 N2A 1_555 1_555
C1A C2A 1_555 1_555
C2A C3A 1_555 1_555
C3A N1 1_555 1_555
H1A C3A 1_555 1_555
C4A C5A 1_555 1_555
C5A C6A 1_555 1_555
C6A N2 1_555 1_555
H2A C6A 1_555 1_555
C7A C7 1_555 1_555
N1A C3 1_555 1_555
N2A C6 1_555 1_555
N2A_2 Tb1A 1_555 1_555
O1A Tb1A 1_555 1_555
O2A C1A 1_555 1_555
O2_2 Tb1 1_555 1_555
O2A_2 Tb1A 1_555 1_555
O3A Tb1A_4 1_555 1_555
O3A_2 Tb1A 1_555 1_555
O4A C4A 1_555 1_555
O5A Tb1A_2 1_555 1_555
O5A_2 Tb1A 1_555 1_555
O6A Tb1 1_555 1_555
O6_2 Tb1A 1_555 1_555
O7A Tb1A 1_555 1_555
H3A O7A 1_555 1_555
H4A O7A 1_555 1_555
O8A Tb1A 1_555 1_555
H5A O8A 1_555 1_555
H6A O8A 1_555 1_555
C1 O1 1_555 1_555
C4 O3 1_555 1_555
C5 N2 1_555 1_555
C1A O1A 1_555 1_555
C2A N1A 1_555 1_555
C4A O3A 1_555 1_555
C5A N2A 1_555 1_555
C7A O5A 1_555 1_555
C7A O6A 1_555 1_555

#END
