
#######################################################################
#
#                 Cambridge Crystallographic Data Centre
#                                CCDC 
#
#######################################################################
#
# If this CIF has been generated from an entry in the Cambridge 
# Structural Database, then it will include bibliographic, chemical, 
# crystal, experimental, refinement or atomic coordinate data resulting 
# from the CCDC's data processing and validation procedures.
#
#######################################################################

data_IKEVAW
_symmetry_cell_setting           triclinic
_symmetry_space_group_name_H-M   'P -1'
_symmetry_Int_Tables_number      2
_space_group_name_Hall           '-P 1'
loop_
_symmetry_equiv_pos_site_id
_symmetry_equiv_pos_as_xyz
1 x,y,z
2 -x,-y,-z
_cell_length_a                   6.0535(6)
_cell_length_b                   9.9159(9)
_cell_length_c                   13.2903(12)
_cell_angle_alpha                68.8320(10)
_cell_angle_beta                 81.2730(10)
_cell_angle_gamma                76.8750(10)
_cell_volume                     722.361
loop_
_atom_site_label
_atom_site_type_symbol
_atom_site_fract_x
_atom_site_fract_y
_atom_site_fract_z
Dy1 Dy 1.16536(5) 1.38618(3) -0.19511(2)
C1 C 0.7106(10) 1.2353(7) -0.1417(5)
C2 C 0.8634(10) 1.1071(7) -0.0696(5)
C3 C 0.8084(10) 0.9704(6) -0.0158(5)
H1 H 0.6734 0.9524 -0.0292
C4 C 1.0492(11) 1.6183(7) -0.4387(5)
C5 C 1.2892(10) 1.5552(7) -0.4719(5)
C6 C 1.3818(11) 1.6040(7) -0.5769(5)
H2 H 1.2945 1.6786 -0.6286
C7 C 0.9108(10) 1.5610(7) -0.0343(5)
N1 N 1.0611(8) 1.1361(5) -0.0539(4)
N2 N 1.4070(9) 1.4521(5) -0.3930(4)
O1 O 0.7838(7) 1.3531(5) -0.1840(4)
O2 O 0.5166(7) 1.2189(5) -0.1525(3)
O3 O 0.9844(8) 1.5675(5) -0.3406(4)
O4 O 0.9282(8) 1.7106(5) -0.5093(4)
O5 O 0.9157(7) 1.5707(5) -0.1308(4)
O6 O 0.7743(7) 1.6388(5) 0.0132(4)
O7 O 1.1668(8) 1.2134(5) -0.2825(4)
H3 H 1.1258 1.2233 -0.3433
H4 H 1.2845 1.1465 -0.2798
O8 O 1.4010(7) 1.5632(5) -0.2192(4)
H5 H 1.5328 1.5143 -0.2112
H6 H 1.4230 1.6364 -0.2708
Dy1A Dy 0.83464(5) 0.61382(3) 0.19511(2)
Dy1_2 Dy 0.16536(5) 1.38618(3) -0.19511(2)
Dy1A_2 Dy 0.83464(5) 1.61382(3) 0.19511(2)
Dy1A_3 Dy 1.83464(5) 0.61382(3) 0.19511(2)
Dy1A_4 Dy 1.83464(5) 1.61382(3) -0.80489(2)
C1A C 1.2894(10) 0.7647(7) 0.1417(5)
C2A C 1.1366(10) 0.8929(7) 0.0696(5)
C3A C 1.1916(10) 1.0296(6) 0.0158(5)
H1A H 1.3266 1.0476 0.0292
C4A C 1.9508(11) 1.3817(7) -0.5613(5)
C5A C 1.7108(10) 1.4448(7) -0.5281(5)
C6A C 1.6182(11) 1.3960(7) -0.4231(5)
H2A H 1.7055 1.3214 -0.3714
C7A C 1.0892(10) 1.4390(7) 0.0343(5)
N1A N 0.9389(8) 0.8639(5) 0.0539(4)
N2A N 1.5930(9) 1.5479(5) -0.6070(4)
N2A_2 N 0.5930(9) 0.5479(5) 0.3930(4)
O1A O 1.2162(7) 0.6469(5) 0.1840(4)
O2A O 1.4834(7) 0.7811(5) 0.1525(3)
O2_2 O 1.5166(7) 1.2189(5) -0.1525(3)
O2A_2 O 0.4834(7) 0.7811(5) 0.1525(3)
O3A O 2.0156(8) 1.4325(5) -0.6594(4)
O3A_2 O 1.0156(8) 0.4325(5) 0.3406(4)
O4A O 2.0718(8) 1.2894(5) -0.4907(4)
O5A O 1.0843(7) 1.4293(5) 0.1308(4)
O5A_2 O 1.0843(7) 0.4293(5) 0.1308(4)
O6A O 1.2257(7) 1.3612(5) -0.0132(4)
O6_2 O 0.7743(7) 0.6388(5) 0.0132(4)
O7A O 0.8332(8) 0.7866(5) 0.2825(4)
H3A H 0.8742 0.7767 0.3433
H4A H 0.7155 0.8535 0.2798
O8A O 0.5990(7) 0.4368(5) 0.2192(4)
H5A H 0.4672 0.4857 0.2112
H6A H 0.5770 0.3636 0.2708
O9 O 0.6392(10) 0.2767(9) 0.0873(6)
H7 H 0.6266 0.1961 0.1388
H8 H 0.6915 0.2407 0.0369
O10 O 0.5173(13) 0.1974(9) 0.4139(6)
H9 H 0.4686 0.1238 0.4625
H10 H 0.6453 0.1508 0.3957
O11 O 0.5316(18) 0.0344(9) 0.2672(9)
H11 H 0.4753 -0.0220 0.3261
H12 H 0.4103 0.0974 0.2476
O12 O 0.0703(19) 0.1166(11) 0.2707(9)
H13 H -0.0495 0.1254 0.2409
H14 H 0.0735 0.2082 0.2515
O13? O 0.084(3) -0.022(2) 0.513(3)
H15? H -0.0287 -0.0709 0.5039
H16? H 0.1954 -0.0141 0.4633
loop_
_geom_bond_atom_site_label_1
_geom_bond_atom_site_label_2
_geom_bond_site_symmetry_1
_geom_bond_site_symmetry_2
Dy1 N1 1_555 1_555
C1 C2 1_555 1_555
C2 C3 1_555 1_555
C3 H1 1_555 1_555
C4 C5 1_555 1_555
C5 C6 1_555 1_555
C6 H2 1_555 1_555
C7 O5 1_555 1_555
N1 C2 1_555 1_555
N2 Dy1 1_555 1_555
O1 Dy1 1_555 1_555
O2 C1 1_555 1_555
O3 Dy1 1_555 1_555
O4 C4 1_555 1_555
O5 Dy1 1_555 1_555
O6 C7 1_555 1_555
O7 Dy1 1_555 1_555
H3 O7 1_555 1_555
H4 O7 1_555 1_555
O8 Dy1 1_555 1_555
H5 O8 1_555 1_555
H6 O8 1_555 1_555
O9 H7 1_555 1_555
H8 O9 1_555 1_555
O10 H9 1_555 1_555
H10 O10 1_555 1_555
O11 H11 1_555 1_555
H12 O11 1_555 1_555
O12 H13 1_555 1_555
H14 O12 1_555 1_555
Dy1A N1A 1_555 1_555
Dy1_2 O2 1_555 1_555
Dy1A_2 O6 1_555 1_555
Dy1A_3 O2A 1_555 1_555
Dy1A_4 N2A 1_555 1_555
C1A C2A 1_555 1_555
C2A C3A 1_555 1_555
C3A N1 1_555 1_555
H1A C3A 1_555 1_555
C4A C5A 1_555 1_555
C5A C6A 1_555 1_555
C6A N2 1_555 1_555
H2A C6A 1_555 1_555
C7A C7 1_555 1_555
N1A C3 1_555 1_555
N2A C6 1_555 1_555
N2A_2 Dy1A 1_555 1_555
O1A Dy1A 1_555 1_555
O2A C1A 1_555 1_555
O2_2 Dy1 1_555 1_555
O2A_2 Dy1A 1_555 1_555
O3A Dy1A_4 1_555 1_555
O3A_2 Dy1A 1_555 1_555
O4A C4A 1_555 1_555
O5A Dy1A_2 1_555 1_555
O5A_2 Dy1A 1_555 1_555
O6A Dy1 1_555 1_555
O6_2 Dy1A 1_555 1_555
O7A Dy1A 1_555 1_555
H3A O7A 1_555 1_555
H4A O7A 1_555 1_555
O8A Dy1A 1_555 1_555
H5A O8A 1_555 1_555
H6A O8A 1_555 1_555
C1 O1 1_555 1_555
C4 O3 1_555 1_555
C5 N2 1_555 1_555
C1A O1A 1_555 1_555
C2A N1A 1_555 1_555
C4A O3A 1_555 1_555
C5A N2A 1_555 1_555
C7A O5A 1_555 1_555
C7A O6A 1_555 1_555

#END
