
#######################################################################
#
#                 Cambridge Crystallographic Data Centre
#                                CCDC 
#
#######################################################################
#
# If this CIF has been generated from an entry in the Cambridge 
# Structural Database, then it will include bibliographic, chemical, 
# crystal, experimental, refinement or atomic coordinate data resulting 
# from the CCDC's data processing and validation procedures.
#
#######################################################################

data_IKOQII
_symmetry_cell_setting           cubic
_symmetry_space_group_name_H-M   'I 21 3'
_symmetry_Int_Tables_number      199
_space_group_name_Hall           'I 2b 2c 3'
loop_
_symmetry_equiv_pos_site_id
_symmetry_equiv_pos_as_xyz
1 x,y,z
2 z,x,y
3 y,z,x
4 1/2+x,1/2-y,-z
5 1/2+z,1/2-x,-y
6 1/2+y,1/2-z,-x
7 -x,1/2+y,1/2-z
8 -z,1/2+x,1/2-y
9 -y,1/2+z,1/2-x
10 1/2-x,-y,1/2+z
11 1/2-z,-x,1/2+y
12 1/2-y,-z,1/2+x
13 1/2+x,1/2+y,1/2+z
14 1/2+z,1/2+x,1/2+y
15 1/2+y,1/2+z,1/2+x
16 x,-y,1/2-z
17 z,-x,1/2-y
18 y,-z,1/2-x
19 1/2-x,y,-z
20 1/2-z,x,-y
21 1/2-y,z,-x
22 -x,1/2-y,z
23 -z,1/2-x,y
24 -y,1/2-z,x
_cell_length_a                   16.8048(7)
_cell_length_b                   16.8048(7)
_cell_length_c                   16.8048(7)
_cell_angle_alpha                90
_cell_angle_beta                 90
_cell_angle_gamma                90
_cell_volume                     4745.7
loop_
_atom_site_label
_atom_site_type_symbol
_atom_site_fract_x
_atom_site_fract_y
_atom_site_fract_z
Ag1 Ag 0.25000(5) 0.6249 -0.5000
N1 N 0.3994(4) 0.3285(4) -0.4367(4)
N2 N 0.1861(4) 0.9210(4) -0.3480(4)
C1 C 0.4277(5) 0.3936(5) -0.4869(4)
C2 C 0.3615(4) 0.4457(4) -0.5200(4)
C3 C 0.2352(4) 0.8558(4) -0.3203(4)
C4 C 0.2693(4) 0.8027(4) -0.3876(4)
H1 H -0.0311 0.3680 -0.2941
H2 H -0.1050 0.3661 -0.3494
H3 H -0.0466 0.4614 -0.4279
H4 H 0.0856 0.4494 -0.3287
H5 H 0.0311 0.5237 -0.3332
H6 H 0.1002 0.8815 -0.8533
H7 H 0.0445 0.8795 -0.7797
H8 H 0.2134 0.7043 -0.6761
H9 H 0.1971 0.8350 -0.5771
H10 H 0.2726 0.7820 -0.5804
Ag1A Ag 0.5000 0.25000(5) -0.3751
C1B C 0.3936(5) 0.5131(4) -0.5723(5)
N1B N 0.3285(4) 0.5633(4) -0.6006(4)
N1T N 0.1715(4) 0.5633(4) -0.3994(4)
C1T C 0.1064(5) 0.5131(4) -0.4277(5)
C2T C 0.0543(4) 0.4800(4) -0.3615(4)
C1S C -0.0131(4) 0.4277(5) -0.3936(5)
N1S N -0.0633(4) 0.3994(4) -0.3285(4)
Ag1K Ag -0.1249 0.5000 -0.25000(5)
N1D N 0.0633(4) 1.1006(4) -0.3285(4)
Ag1E Ag 0.1249 1.0000 -0.25000(5)
N1M N 0.0633(4) 0.8994(4) -0.1715(4)
H1F H 0.0311 0.8680 -0.2059
H2F H 0.1050 0.8661 -0.1506
C3G C 0.3203(4) 0.7352(4) -0.3558(4)
N2G N 0.3480(4) 0.6861(4) -0.4210(4)
N2M N 0.1520(4) 0.6861(4) -0.5790(4)
C3M C 0.1797(4) 0.7352(4) -0.6442(4)
C4M C 0.1124(4) 0.7693(4) -0.6973(4)
C3W C 0.1442(4) 0.8203(4) -0.7648(4)
N2W N 0.0790(4) 0.8480(4) -0.8139(4)
Ag1J Ag 0.0000 0.75000(5) -0.8751
C4W C 0.1973(4) 0.8876(4) -0.7307(4)
C3R C 0.2648(4) 0.8558(4) -0.6797(4)
N2R N 0.3139(4) 0.9210(4) -0.6520(4)
Ag1H Ag 0.3751 1.0000 -0.75000(5)
H6J H 0.3533 0.8998 -0.6185
H7J H 0.2797 0.9555 -0.6205
C4R C 0.2307(4) 0.8027(4) -0.6124(4)
H8H H 0.2957 0.8239 -0.7134
H9H H 0.1650 0.9229 -0.6971
H10H H 0.2180 0.9196 -0.7726
H8J H 0.1761 0.7866 -0.7957
H9J H 0.0771 0.8029 -0.6650
H10J H 0.0804 0.7274 -0.7180
H6H H 0.1185 0.6467 -0.6002
H7H H 0.1205 0.7203 -0.5445
H6N H 0.3815 0.6467 -0.3998
H7N H 0.3795 0.7203 -0.4555
C4G C 0.3876(4) 0.7693(4) -0.3027(4)
C3E C 0.3558(4) 0.8203(4) -0.2352(4)
N2E N 0.4210(4) 0.8480(4) -0.1861(4)
Ag1G Ag 0.5000 0.75000(5) -0.1249
N1F N 0.6006(4) 0.8285(4) -0.0633(4)
H1W H 0.6320 0.7941 -0.0311
H2W H 0.6339 0.8494 -0.1050
N1O N 0.3994(4) 0.6715(4) -0.0633(4)
H1B H 0.3680 0.7059 -0.0311
H2B H 0.3661 0.6506 -0.1050
N2T N 0.5790(4) 0.6520(4) -0.1861(4)
H6C H 0.6002 0.6185 -0.1467
H7C H 0.5445 0.6205 -0.2203
H6R H 0.3998 0.8815 -0.1467
H7R H 0.4555 0.8795 -0.2203
C4E C 0.3027(4) 0.8876(4) -0.2693(4)
H8N H 0.2043 0.8239 -0.2866
H9N H 0.3350 0.9229 -0.3029
H10N H 0.2820 0.9196 -0.2274
H8P H 0.3239 0.7866 -0.2043
H9P H 0.4229 0.8029 -0.3350
H10P H 0.4196 0.7274 -0.2820
H8R H 0.2866 0.7043 -0.3239
H9R H 0.3029 0.8350 -0.4229
H10R H 0.2274 0.7820 -0.4196
H6P H 0.1467 0.8998 -0.3815
H7P H 0.2203 0.9555 -0.3795
N2O N 0.1861(4) 1.0790(4) -0.1520(4)
H1U H 0.0311 1.1320 -0.2941
H2U H 0.1050 1.1339 -0.3494
C2S C 0.0200(4) 0.3615(4) -0.4457(4)
C2R C 0.1385(4) 0.4457(4) -0.4800(4)
H3D H 0.0721 0.5466 -0.4614
H1D H 0.2059 0.5311 -0.3680
H2D H 0.1506 0.6050 -0.3661
H1V H 0.2941 0.5311 -0.6320
H2V H 0.3494 0.6050 -0.6339
C2B C 0.4457(4) 0.4800(4) -0.6385(4)
H3V H 0.4279 0.5466 -0.5386
H4V H 0.3287 0.4144 -0.5506
H5V H 0.3332 0.4689 -0.4763
C2A C 0.4800(4) 0.3615(4) -0.5543(4)
H3Q H 0.4614 0.4279 -0.4534
H1Q H 0.3680 0.2941 -0.4689
H2Q H 0.3661 0.3494 -0.3950
H6A H 0.1467 1.1002 -0.1185
H7A H 0.2203 1.0445 -0.1205
C1R C 0.0723(5) 0.3936(5) -0.5131(4)
H4K H 0.0506 0.3287 -0.4144
H5K H -0.0237 0.3332 -0.4689
H4D H 0.1713 0.4144 -0.4494
H5D H 0.1668 0.4689 -0.5237
C1A C 0.5131(4) 0.4277(5) -0.6064(5)
H4R H 0.4144 0.4494 -0.6713
H5R H 0.4689 0.5237 -0.6668
H4Q H 0.4494 0.3287 -0.5856
H5Q H 0.5237 0.3332 -0.5311
N1R N 0.1006(4) 0.3285(4) -0.5633(4)
H3K H 0.0386 0.4279 -0.5466
N1A N 0.5633(4) 0.3994(4) -0.6715(4)
H3R H 0.5466 0.4614 -0.5721
Ag1D Ag 0.0000 0.25000(5) -0.6249
H1K H 0.1320 0.2941 -0.5311
H2K H 0.1339 0.3494 -0.6050
Ag1B Ag 0.6249 0.5000 -0.75000(5)
H1R H 0.5311 0.3680 -0.7059
H2R H 0.6050 0.3661 -0.6506
P1 P 0.2500 0.1244(2) -0.5000
F1 F 0.3349(6) 0.142(1) -0.4736(7)
F2 F 0.2761(7) 0.123(2) -0.5850(7)
F3 F 0.2500 0.2203(10) -0.5000
F4 F 0.2500 0.051(1) -0.5000
F1R F 0.1651(6) 0.142(1) -0.5264(7)
F2R F 0.2239(7) 0.123(2) -0.4150(7)
O1 O 0.198(5) -0.065(5) -0.524(4)
loop_
_geom_bond_atom_site_label_1
_geom_bond_atom_site_label_2
_geom_bond_site_symmetry_1
_geom_bond_site_symmetry_2
Ag1 N1B 1_555 1_555
P1 F1 1_555 1_555
F2 P1 1_555 1_555
F3 P1 1_555 1_555
F4 P1 1_555 1_555
N1 C1 1_555 1_555
N2 C3 1_555 1_555
C1 C2 1_555 1_555
C2 C1B 1_555 1_555
C3 C4 1_555 1_555
C4 C3G 1_555 1_555
H1 N1S 1_555 1_555
H2 N1S 1_555 1_555
H3 C1S 1_555 1_555
H4 C2T 1_555 1_555
H5 C2T 1_555 1_555
H6 N2W 1_555 1_555
H7 N2W 1_555 1_555
H8 C3M 1_555 1_555
H9 C4R 1_555 1_555
H10 C4R 1_555 1_555
Ag1A N1 1_555 1_555
C1B N1B 1_555 1_555
N1B H1V 1_555 1_555
N1T Ag1 1_555 1_555
C1T N1T 1_555 1_555
C2T C1T 1_555 1_555
C1S C2T 1_555 1_555
N1S C1S 1_555 1_555
Ag1K N1S 1_555 1_555
N1D Ag1E 1_555 1_555
Ag1E N2 1_555 1_555
N1M Ag1E 1_555 1_555
H1F N1M 1_555 1_555
H2F N1M 1_555 1_555
C3G N2G 1_555 1_555
N2G Ag1 1_555 1_555
N2M Ag1 1_555 1_555
C3M N2M 1_555 1_555
C4M C3M 1_555 1_555
C3W C4M 1_555 1_555
N2W C3W 1_555 1_555
Ag1J N2W 1_555 1_555
C4W C3W 1_555 1_555
C3R C4W 1_555 1_555
N2R C3R 1_555 1_555
Ag1H N2R 1_555 1_555
H6J N2R 1_555 1_555
H7J N2R 1_555 1_555
C4R C3M 1_555 1_555
H8H C3R 1_555 1_555
H9H C4W 1_555 1_555
H10H C4W 1_555 1_555
H8J C3W 1_555 1_555
H9J C4M 1_555 1_555
H10J C4M 1_555 1_555
H6H N2M 1_555 1_555
H7H N2M 1_555 1_555
H6N N2G 1_555 1_555
H7N N2G 1_555 1_555
C4G C3G 1_555 1_555
C3E C4G 1_555 1_555
N2E C3E 1_555 1_555
Ag1G N2E 1_555 1_555
N1F Ag1G 1_555 1_555
H1W N1F 1_555 1_555
H2W N1F 1_555 1_555
N1O Ag1G 1_555 1_555
H1B N1O 1_555 1_555
H2B N1O 1_555 1_555
N2T Ag1G 1_555 1_555
H6C N2T 1_555 1_555
H7C N2T 1_555 1_555
H6R N2E 1_555 1_555
H7R N2E 1_555 1_555
C4E C3 1_555 1_555
H8N C3 1_555 1_555
H9N C4E 1_555 1_555
H10N C4E 1_555 1_555
H8P C3E 1_555 1_555
H9P C4G 1_555 1_555
H10P C4G 1_555 1_555
H8R C3G 1_555 1_555
H9R C4 1_555 1_555
H10R C4 1_555 1_555
H6P N2 1_555 1_555
H7P N2 1_555 1_555
N2O Ag1E 1_555 1_555
H1U N1D 1_555 1_555
H2U N1D 1_555 1_555
C2S C1S 1_555 1_555
C2R C1T 1_555 1_555
H3D C1T 1_555 1_555
H1D N1T 1_555 1_555
H2D N1T 1_555 1_555
H2V N1B 1_555 1_555
C2B C1B 1_555 1_555
H3V C1B 1_555 1_555
H4V C2 1_555 1_555
H5V C2 1_555 1_555
C2A C1 1_555 1_555
H3Q C1 1_555 1_555
H1Q N1 1_555 1_555
H2Q N1 1_555 1_555
F1R P1 1_555 1_555
F2R P1 1_555 1_555
H6A N2O 1_555 1_555
H7A N2O 1_555 1_555
C1R C2S 1_555 1_555
H4K C2S 1_555 1_555
H5K C2S 1_555 1_555
H4D C2R 1_555 1_555
H5D C2R 1_555 1_555
C1A C2B 1_555 1_555
H4R C2B 1_555 1_555
H5R C2B 1_555 1_555
H4Q C2A 1_555 1_555
H5Q C2A 1_555 1_555
N1R C1R 1_555 1_555
H3K C1R 1_555 1_555
N1A C1A 1_555 1_555
H3R C1A 1_555 1_555
Ag1D N1R 1_555 1_555
H1K N1R 1_555 1_555
H2K N1R 1_555 1_555
Ag1B N1A 1_555 1_555
H1R N1A 1_555 1_555
H2R N1A 1_555 1_555
C3R C4R 1_555 1_555
C3E C4E 1_555 1_555
C2R C1R 1_555 1_555
C2A C1A 1_555 1_555

#END
