
#######################################################################
#
#                 Cambridge Crystallographic Data Centre
#                                CCDC 
#
#######################################################################
#
# If this CIF has been generated from an entry in the Cambridge 
# Structural Database, then it will include bibliographic, chemical, 
# crystal, experimental, refinement or atomic coordinate data resulting 
# from the CCDC's data processing and validation procedures.
#
#######################################################################

data_ILIFOY
_symmetry_cell_setting           trigonal
_symmetry_space_group_name_H-M   'P -3'
_symmetry_Int_Tables_number      147
_space_group_name_Hall           '-P 3'
loop_
_symmetry_equiv_pos_site_id
_symmetry_equiv_pos_as_xyz
1 x,y,z
2 -y,x-y,z
3 -x+y,-x,z
4 -x,-y,-z
5 y,-x+y,-z
6 x-y,x,-z
_cell_length_a                   10.3426(15)
_cell_length_b                   10.3426(15)
_cell_length_c                   8.9709(18)
_cell_angle_alpha                90
_cell_angle_beta                 90
_cell_angle_gamma                120
_cell_volume                     831.048
loop_
_atom_site_label
_atom_site_type_symbol
_atom_site_fract_x
_atom_site_fract_y
_atom_site_fract_z
O1 O 0.6962(3) 0.0894(3) 0.4413(3)
C1 C 0.5383(4) -0.0120(4) 0.4328(4)
H1 H 0.5208 -0.1142 0.4367
O4 O 0.6486(3) 0.0822(3) 0.0795(3)
O5 O 0.5196(3) -0.1587(3) 0.1384(3)
C2 C 0.5548(4) -0.0251(4) 0.1573(4)
La1 La 0.6667 0.3333 0.04936(3)
O6 O 0.5113(4) 0.1602(3) 0.2660(3)
C3 C 0.4796(4) 0.0092(4) 0.2851(4)
H2 H 0.3715 -0.0587 0.2801
C1C C 0.4617(4) 0.0120(4) 0.5672(4)
O1C O 0.3038(3) -0.0894(3) 0.5587(3)
H1C H 0.4792 0.1142 0.5633
C3C C 0.5204(4) -0.0092(4) 0.7149(4)
C2C C 0.4452(4) 0.0251(4) 0.8427(4)
O4C O 0.3514(3) -0.0822(3) 0.9205(3)
O5C O 0.4804(3) 0.1587(3) 0.8616(3)
O6C O 0.4887(4) -0.1602(3) 0.7340(3)
H2C H 0.6285 0.0587 0.7199
O1A O 0.9106(3) 0.6068(4) 0.4413(3)
C1A C 1.0120(4) 0.5503(6) 0.4328(4)
H1A H 1.1142 0.6350 0.4367
O4A O 0.9178(3) 0.5664(4) 0.0795(3)
O5A O 1.1587(3) 0.6783(4) 0.1384(3)
C2A C 1.0251(4) 0.5799(6) 0.1573(4)
O6A O 0.8398(3) 0.3511(5) 0.2660(3)
C3A C 0.9908(4) 0.4704(6) 0.2851(4)
H2A H 1.0587 0.4302 0.2801
C1D C 0.9880(4) 0.4497(6) 0.5672(4)
O1D O 1.0894(3) 0.3932(4) 0.5587(3)
H1D H 0.8858 0.3650 0.5633
C3D C 1.0092(4) 0.5296(6) 0.7149(4)
C2D C 0.9749(4) 0.4201(6) 0.8427(4)
O4D O 1.0822(3) 0.4336(4) 0.9205(3)
O5D O 0.8413(3) 0.3217(4) 0.8616(3)
O6D O 1.1602(3) 0.6489(5) 0.7340(3)
H2D H 0.9413 0.5698 0.7199
O1B O 0.3932(4) 0.3038(3) 0.4413(3)
C1B C 0.4497(6) 0.4617(4) 0.4328(4)
H1B H 0.3650 0.4792 0.4367
O4B O 0.4336(4) 0.3514(3) 0.0795(3)
O5B O 0.3217(4) 0.4804(3) 0.1384(3)
C2B C 0.4201(6) 0.4452(4) 0.1573(4)
O6B O 0.6489(5) 0.4887(4) 0.2660(3)
C3B C 0.5296(6) 0.5204(4) 0.2851(4)
H2B H 0.5698 0.6285 0.2801
C1E C 0.5503(6) 0.5383(4) 0.5672(4)
O1E O 0.6068(4) 0.6962(3) 0.5587(3)
H1E H 0.6350 0.5208 0.5633
C3E C 0.4704(6) 0.4796(4) 0.7149(4)
C2E C 0.5799(6) 0.5548(4) 0.8427(4)
O4E O 0.5664(4) 0.6486(3) 0.9205(3)
O5E O 0.6783(4) 0.5196(3) 0.8616(3)
O6E O 0.3511(5) 0.5113(4) 0.7340(3)
H2E H 0.4302 0.3715 0.7199
La1C La 0.3333 -0.3333 0.95064(3)
La1C_2 La 0.3333 -0.3333 -0.04936(3)
O5C_2 O 0.4804(3) 0.1587(3) -0.1384(3)
O5D_2 O 0.8413(3) 0.3217(4) -0.1384(3)
O5E_2 O 0.6783(4) 0.5196(3) -0.1384(3)
La1_2 La 0.6667 0.3333 1.04936(3)
La1C_3 La 1.3333 0.6667 -0.04936(3)
La1C_4 La 1.3333 0.6667 0.95064(3)
La1C_5 La 0.3333 0.6667 -0.04936(3)
La1C_6 La 0.3333 0.6667 0.95064(3)
O4D_2 O 0.0822(3) -0.5664(4) 0.9205(3)
O4E_2 O 0.5664(4) -0.3514(3) 0.9205(3)
O5_2 O 0.5196(3) -0.1587(3) 1.1384(3)
O5A_2 O 0.1587(3) -0.3217(4) 1.1384(3)
O5B_2 O 0.3217(4) -0.5196(3) 1.1384(3)
O6D_2 O 0.1602(3) -0.3511(5) 0.7340(3)
O6E_2 O 0.3511(5) -0.4887(4) 0.7340(3)
O2 O 1.0022(13) 0.1798(14) 0.1064(10)
O3 O 0.9067(18) 0.0851(16) 0.6308(15)
loop_
_geom_bond_atom_site_label_1
_geom_bond_atom_site_label_2
_geom_bond_site_symmetry_1
_geom_bond_site_symmetry_2
O1 C1 1_555 1_555
C1 H1 1_555 1_555
O4 C2 1_555 1_555
O5 C2 1_555 1_555
C2 C3 1_555 1_555
La1 O4 1_555 1_555
O6 La1 1_555 1_555
C3 C1 1_555 1_555
H2 C3 1_555 1_555
C1C C1 1_555 1_555
O1C C1C 1_555 1_555
H1C C1C 1_555 1_555
C3C C1C 1_555 1_555
C2C C3C 1_555 1_555
O4C C2C 1_555 1_555
O5C C2C 1_555 1_555
O6C C3C 1_555 1_555
H2C C3C 1_555 1_555
O1A C1A 1_555 1_555
C1A H1A 1_555 1_555
O4A La1 1_555 1_555
O5A C2A 1_555 1_555
C2A O4A 1_555 1_555
O6A La1 1_555 1_555
C3A C1A 1_555 1_555
H2A C3A 1_555 1_555
C1D C1A 1_555 1_555
O1D C1D 1_555 1_555
H1D C1D 1_555 1_555
C3D C1D 1_555 1_555
C2D C3D 1_555 1_555
O4D C2D 1_555 1_555
O5D C2D 1_555 1_555
O6D C3D 1_555 1_555
H2D C3D 1_555 1_555
O1B C1B 1_555 1_555
C1B H1B 1_555 1_555
O4B La1 1_555 1_555
O5B C2B 1_555 1_555
C2B O4B 1_555 1_555
O6B La1 1_555 1_555
C3B C1B 1_555 1_555
H2B C3B 1_555 1_555
C1E C1B 1_555 1_555
O1E C1E 1_555 1_555
H1E C1E 1_555 1_555
C3E C1E 1_555 1_555
C2E C3E 1_555 1_555
O4E C2E 1_555 1_555
O5E C2E 1_555 1_555
O6E C3E 1_555 1_555
H2E C3E 1_555 1_555
La1C O4C 1_555 1_555
La1C_2 O5 1_555 1_555
O5C_2 La1 1_555 1_555
O5D_2 La1 1_555 1_555
O5E_2 La1 1_555 1_555
La1_2 O5C 1_555 1_555
La1C_3 O5A 1_555 1_555
La1C_4 O4D 1_555 1_555
La1C_5 O5B 1_555 1_555
La1C_6 O4E 1_555 1_555
O4D_2 La1C 1_555 1_555
O4E_2 La1C 1_555 1_555
O5_2 La1C 1_555 1_555
O5A_2 La1C 1_555 1_555
O5B_2 La1C 1_555 1_555
O6D_2 La1C 1_555 1_555
O6E_2 La1C 1_555 1_555
O6 C3 1_555 1_555
O6C La1C 1_555 1_555
C2A C3A 1_555 1_555
O6A C3A 1_555 1_555
O5D La1_2 1_555 1_555
O6D La1C_4 1_555 1_555
C2B C3B 1_555 1_555
O6B C3B 1_555 1_555
O5E La1_2 1_555 1_555
O6E La1C_6 1_555 1_555

#END
