
#######################################################################
#
#                 Cambridge Crystallographic Data Centre
#                                CCDC 
#
#######################################################################
#
# If this CIF has been generated from an entry in the Cambridge 
# Structural Database, then it will include bibliographic, chemical, 
# crystal, experimental, refinement or atomic coordinate data resulting 
# from the CCDC's data processing and validation procedures.
#
#######################################################################

data_ILOJEZ
_symmetry_cell_setting           monoclinic
_symmetry_space_group_name_H-M   'P 21/c'
_symmetry_Int_Tables_number      14
_space_group_name_Hall           '-P 2ybc'
loop_
_symmetry_equiv_pos_site_id
_symmetry_equiv_pos_as_xyz
1 x,y,z
2 -x,1/2+y,1/2-z
3 -x,-y,-z
4 x,1/2-y,1/2+z
_cell_length_a                   14.967(5)
_cell_length_b                   14.962(5)
_cell_length_c                   10.836(4)
_cell_angle_alpha                90
_cell_angle_beta                 92.494(5)
_cell_angle_gamma                90
_cell_volume                     2424.27
loop_
_atom_site_label
_atom_site_type_symbol
_atom_site_fract_x
_atom_site_fract_y
_atom_site_fract_z
Zn1 Zn 0.87877(7) 0.34239(6) 0.57048(10)
C1 C 0.7084(7) 0.3623(7) 0.7053(10)
H1 H 0.7341 0.4102 0.7485
C2 C 0.6930(6) 0.2543(6) 0.5859(9)
H2 H 0.7024 0.2095 0.5284
C3 C 0.5363(6) 0.2117(7) 0.6430(10)
H3 H 0.5339 0.1742 0.5699
H4 H 0.4857 0.2522 0.6366
C4 C 0.5268(8) 0.1534(7) 0.7546(10)
C5 C 0.5983(8) 0.1165(8) 0.8146(12)
H5 H 0.6554 0.1306 0.7899
C6 C 0.5888(7) 0.0583(8) 0.9119(11)
H6 H 0.6397 0.0355 0.9529
C7 C 0.5056(8) 0.0332(6) 0.9500(10)
C8 C 0.4336(8) 0.0748(8) 0.8921(14)
H7 H 0.3762 0.0628 0.9174
C9 C 0.4453(8) 0.1346(8) 0.7963(14)
H8 H 0.3954 0.1627 0.7597
C10 C 0.5439(6) 0.5153(6) 0.0241(9)
C11 C 0.5553(6) 0.5689(7) 0.1261(10)
H9 H 0.5051 0.5903 0.1644
C12 C 0.6398(7) 0.5922(7) 0.1739(9)
H10 H 0.6443 0.6282 0.2439
C13 C 0.7156(7) 0.5646(6) 0.1226(10)
C14 C 0.7057(7) 0.5150(7) 0.0161(10)
H11 H 0.7562 0.4972 -0.0245
C15 C 0.6201(7) 0.4906(7) -0.0326(9)
H12 H 0.6154 0.4570 -0.1048
C16 C 0.8077(6) 0.5802(6) 0.1827(9)
H13 H 0.8516 0.5869 0.1201
H14 H 0.8078 0.6341 0.2324
C17 C 0.8524(6) 0.4959(6) 0.3808(9)
H15 H 0.8579 0.5439 0.4350
C18 C 0.8497(6) 0.3669(6) 0.3041(9)
H16 H 0.8541 0.3051 0.2980
C19 C 0.9119(6) 0.1727(5) 0.4758(8)
C20 C 0.9636(5) 0.0848(5) 0.4828(8)
C21 C 0.9534(5) 0.0220(5) 0.3888(8)
C22 C 1.0091(5) 0.0629(5) 0.5920(8)
H17 H 1.0149 0.1054 0.6543
C23 C 0.9149(6) 0.0446(7) 0.2613(9)
N1 N 0.7535(5) 0.3172(5) 0.6205(7)
N2 N 0.6280(6) 0.3362(6) 0.7241(8)
N3 N 0.6196(6) 0.2649(5) 0.6442(8)
N4 N 0.8662(5) 0.4110(5) 0.4115(7)
N5 N 0.8271(5) 0.4180(5) 0.2089(8)
N6 N 0.8295(4) 0.5023(5) 0.2608(7)
O1 O 0.9510(4) 0.2378(4) 0.5370(6)
O2 O 0.8393(4) 0.1770(3) 0.4230(5)
O3 O 0.9463(4) 0.1152(4) 0.2147(6)
O4 O 0.8592(4) -0.0048(4) 0.2112(6)
Zn1B Zn 0.12123(7) -0.34239(6) 1.42952(10)
Zn1C Zn 0.87877(7) 0.15761(6) 0.07048(10)
Zn1B_2 Zn 0.12123(7) 0.65761(6) -0.57048(10)
Zn1B_3 Zn 1.12123(7) -0.34239(6) 0.42952(10)
Zn1A Zn 1.12123(7) -0.15761(6) 0.92952(10)
C1B C 0.2916(7) -0.3623(7) 1.2947(10)
H1B H 0.2659 -0.4102 1.2515
C2B C 0.3070(6) -0.2543(6) 1.4141(9)
H2B H 0.2976 -0.2095 1.4716
C3B C 0.4637(6) -0.2117(7) 1.3570(10)
H3B H 0.4661 -0.1742 1.4301
H4B H 0.5143 -0.2522 1.3634
C4B C 0.4732(8) -0.1534(7) 1.2454(10)
C5B C 0.4017(8) -0.1165(8) 1.1854(12)
H5B H 0.3446 -0.1306 1.2101
C6B C 0.4112(7) -0.0583(8) 1.0881(11)
H6B H 0.3603 -0.0355 1.0471
C7B C 0.4944(8) -0.0332(6) 1.0500(10)
C8B C 0.5664(8) -0.0748(8) 1.1079(14)
H7B H 0.6238 -0.0628 1.0826
C9B C 0.5547(8) -0.1346(8) 1.2037(14)
H8B H 0.6046 -0.1627 1.2403
C10B C 0.4561(6) 0.4847(6) -0.0241(9)
C11B C 0.4447(6) 0.4311(7) -0.1261(10)
H9B H 0.4949 0.4097 -0.1644
C12B C 0.3602(7) 0.4078(7) -0.1739(9)
H10B H 0.3557 0.3718 -0.2439
C13B C 0.2844(7) 0.4354(6) -0.1226(10)
C14B C 0.2943(7) 0.4850(7) -0.0161(10)
H11B H 0.2438 0.5028 0.0245
C15B C 0.3799(7) 0.5094(7) 0.0326(9)
H12B H 0.3846 0.5430 0.1048
C16B C 0.1923(6) 0.4198(6) -0.1827(9)
H13B H 0.1484 0.4131 -0.1201
H14B H 0.1922 0.3659 -0.2324
C17B C 0.1476(6) 0.5041(6) -0.3808(9)
H15B H 0.1421 0.4561 -0.4350
C18B C 0.1503(6) 0.6331(6) -0.3041(9)
H16B H 0.1459 0.6949 -0.2980
C19B C 1.0881(6) -0.1727(5) 0.5242(8)
C20B C 1.0364(5) -0.0848(5) 0.5172(8)
C21B C 1.0466(5) -0.0220(5) 0.6112(8)
C22B C 0.9909(5) -0.0629(5) 0.4080(8)
H17B H 0.9851 -0.1054 0.3457
C23B C 1.0851(6) -0.0446(7) 0.7387(9)
N1B N 0.2465(5) -0.3172(5) 1.3795(7)
N2B N 0.3720(6) -0.3362(6) 1.2759(8)
N3B N 0.3804(6) -0.2649(5) 1.3558(8)
N4B N 0.1338(5) 0.5890(5) -0.4115(7)
N4B_2 N 0.1338(5) -0.4110(5) 1.5885(7)
N5B N 0.1729(5) 0.5820(5) -0.2089(8)
N6B N 0.1705(4) 0.4977(5) -0.2608(7)
O1B O 1.0490(4) -0.2378(4) 0.4630(6)
O1B_2 O 0.0490(4) -0.2378(4) 1.4630(6)
O2B O 1.1607(4) -0.1770(3) 0.5770(5)
O3B O 1.0537(4) -0.1152(4) 0.7853(6)
O3C O 0.9463(4) 0.3848(4) 0.7147(6)
O3A O 0.0537(4) -0.3848(4) 1.2853(6)
O4B O 1.1408(4) 0.0048(4) 0.7888(6)
O5 O 0.7995(6) 0.8208(6) 0.2230(11)
O6 O 0.1377(5) 0.2160(6) 0.0271(10)
loop_
_geom_bond_atom_site_label_1
_geom_bond_atom_site_label_2
_geom_bond_site_symmetry_1
_geom_bond_site_symmetry_2
Zn1 N1 1_555 1_555
C1 H1 1_555 1_555
C2 H2 1_555 1_555
C3 H3 1_555 1_555
H4 C3 1_555 1_555
C4 C3 1_555 1_555
C5 C4 1_555 1_555
H5 C5 1_555 1_555
C6 C5 1_555 1_555
H6 C6 1_555 1_555
C7 C6 1_555 1_555
C8 C7 1_555 1_555
H7 C8 1_555 1_555
C9 C4 1_555 1_555
H8 C9 1_555 1_555
C10 C11 1_555 1_555
C11 H9 1_555 1_555
C12 C11 1_555 1_555
H10 C12 1_555 1_555
C13 C12 1_555 1_555
C14 C13 1_555 1_555
H11 C14 1_555 1_555
C15 C10 1_555 1_555
H12 C15 1_555 1_555
C16 C13 1_555 1_555
H13 C16 1_555 1_555
H14 C16 1_555 1_555
C17 H15 1_555 1_555
C18 H16 1_555 1_555
C19 C20 1_555 1_555
C20 C21 1_555 1_555
C21 C23 1_555 1_555
C22 C20 1_555 1_555
H17 C22 1_555 1_555
C23 O3 1_555 1_555
N1 C1 1_555 1_555
N2 C1 1_555 1_555
N3 C2 1_555 1_555
N4 Zn1 1_555 1_555
N5 C18 1_555 1_555
N6 C16 1_555 1_555
O1 Zn1 1_555 1_555
O2 C19 1_555 1_555
O3 Zn1C 1_555 1_555
O4 C23 1_555 1_555
Zn1B N1B 1_555 1_555
Zn1B_2 N4B 1_555 1_555
Zn1B_3 O1B 1_555 1_555
Zn1A O3B 1_555 1_555
C1B H1B 1_555 1_555
C2B H2B 1_555 1_555
C3B H3B 1_555 1_555
H4B C3B 1_555 1_555
C4B C3B 1_555 1_555
C5B C4B 1_555 1_555
H5B C5B 1_555 1_555
C6B C5B 1_555 1_555
H6B C6B 1_555 1_555
C7B C7 1_555 1_555
C8B C7B 1_555 1_555
H7B C8B 1_555 1_555
C9B C4B 1_555 1_555
H8B C9B 1_555 1_555
C10B C10 1_555 1_555
C11B C10B 1_555 1_555
H9B C11B 1_555 1_555
C12B C11B 1_555 1_555
H10B C12B 1_555 1_555
C13B C12B 1_555 1_555
C14B C13B 1_555 1_555
H11B C14B 1_555 1_555
C15B C10B 1_555 1_555
H12B C15B 1_555 1_555
C16B C13B 1_555 1_555
H13B C16B 1_555 1_555
H14B C16B 1_555 1_555
C17B H15B 1_555 1_555
C18B H16B 1_555 1_555
C19B C20B 1_555 1_555
C20B C21B 1_555 1_555
C21B C22 1_555 1_555
C22B C21 1_555 1_555
H17B C22B 1_555 1_555
C23B C21B 1_555 1_555
N1B C1B 1_555 1_555
N2B C1B 1_555 1_555
N3B C2B 1_555 1_555
N4B C17B 1_555 1_555
N4B_2 Zn1B 1_555 1_555
N5B C18B 1_555 1_555
N6B C16B 1_555 1_555
O1B C19B 1_555 1_555
O1B_2 Zn1B 1_555 1_555
O2B C19B 1_555 1_555
O3B C23B 1_555 1_555
O3C Zn1 1_555 1_555
O3A Zn1B 1_555 1_555
O4B C23B 1_555 1_555
C2 N1 1_555 1_555
C3 N3 1_555 1_555
C8 C9 1_555 1_555
C14 C15 1_555 1_555
C17 N4 1_555 1_555
C17 N6 1_555 1_555
C18 N4 1_555 1_555
C19 O1 1_555 1_555
N2 N3 1_555 1_555
N5 N6 1_555 1_555
C2B N1B 1_555 1_555
C3B N3B 1_555 1_555
C6B C7B 1_555 1_555
C8B C9B 1_555 1_555
C14B C15B 1_555 1_555
C17B N6B 1_555 1_555
C18B N4B 1_555 1_555
C20B C22B 1_555 1_555
N2B N3B 1_555 1_555
N5B N6B 1_555 1_555

#END
