
#######################################################################
#
#                 Cambridge Crystallographic Data Centre
#                                CCDC 
#
#######################################################################
#
# If this CIF has been generated from an entry in the Cambridge 
# Structural Database, then it will include bibliographic, chemical, 
# crystal, experimental, refinement or atomic coordinate data resulting 
# from the CCDC's data processing and validation procedures.
#
#######################################################################

data_ILOTOT
_symmetry_cell_setting           monoclinic
_symmetry_space_group_name_H-M   'C 2/c'
_symmetry_Int_Tables_number      15
_space_group_name_Hall           '-C 2yn'
loop_
_symmetry_equiv_pos_site_id
_symmetry_equiv_pos_as_xyz
1 x,y,z
2 -x,y,1/2-z
3 1/2+x,1/2+y,z
4 1/2-x,1/2+y,1/2-z
5 -x,-y,-z
6 x,-y,1/2+z
7 1/2-x,1/2-y,-z
8 1/2+x,1/2-y,1/2+z
_cell_length_a                   13.842(2)
_cell_length_b                   24.652(4)
_cell_length_c                   10.5305(17)
_cell_angle_alpha                90
_cell_angle_beta                 105.241(3)
_cell_angle_gamma                90
_cell_volume                     3466.97
loop_
_atom_site_label
_atom_site_type_symbol
_atom_site_fract_x
_atom_site_fract_y
_atom_site_fract_z
Co1 Co 0.5000 -0.08283(3) -1.2500
Co2 Co 1.0000 0.5000 -0.5000
O1 O 1.0459(2) 0.42177(9) -0.5273(3)
O2 O 0.59994(16) -0.02906(8) -1.1301(2)
O3 O 0.61732(18) 0.00905(10) -1.3144(2)
O4 O 1.0574(3) 0.36603(11) -0.3601(3)
O5 O 1.0216(2) 0.07935(11) -0.9045(3)
O6 O 1.1627(2) 0.20818(10) -0.7790(3)
C1 C 0.7434(2) 0.02556(12) -1.1185(3)
C2 C 0.9305(3) 0.06360(15) -0.9802(4)
C3 C 1.0651(3) 0.37641(14) -0.4741(4)
C4 C 0.7971(2) 0.05986(14) -1.1780(3)
H1 H 0.7701 0.0700 -1.2652
C5 C 0.8912(3) 0.07972(14) -1.1102(4)
H2 H 0.9265 0.1031 -1.1509
C6 C 1.1418(3) 0.24617(13) -0.6956(4)
C7 C 1.0965(2) 0.33137(13) -0.5481(4)
C8 C 1.1145(3) 0.34121(14) -0.6699(4)
H3 H 1.1107 0.3765 -0.7019
C9 C 0.6473(2) 0.00151(12) -1.1931(3)
C10 C 1.1025(3) 0.27890(14) -0.5019(4)
H4 H 1.0913 0.2720 -0.4201
C11 C 0.8768(3) 0.03052(15) -0.9192(4)
H5 H 0.9035 0.0207 -0.8318
C12 C 0.7830(3) 0.01162(14) -0.9869(4)
H6 H 0.7466 -0.0103 -0.9444
C13 C 1.1378(3) 0.29987(14) -0.7438(4)
H7 H 1.1508 0.3071 -0.8244
C14 C 1.1251(3) 0.23616(13) -0.5749(4)
H8 H 1.1290 0.2010 -0.5422
C15 C 1.1811(3) 0.11916(16) -0.8512(5)
H9 H 1.2306 0.1363 -0.8884
H10 H 1.2066 0.0837 -0.8189
C16 C 1.0850(3) 0.11209(16) -0.9584(4)
H11 H 1.0541 0.1470 -0.9851
H12 H 1.0982 0.0946 -1.0346
C17 C 1.1682(3) 0.15293(14) -0.7368(4)
H13 H 1.1073 0.1427 -0.7137
H14 H 1.2245 0.1477 -0.6605
Co1B Co 1.0000 0.41717(3) -0.2500
Co1B_2 Co 0.0000 0.41717(3) -2.2500
Co2C Co 0.5000 0.0000 -1.0000
Co2B Co 0.5000 0.0000 -1.5000
Co2A Co 0.0000 0.5000 -2.0000
O1A O -0.0459(2) 0.42177(9) -1.9727(3)
O1D O 0.9541(2) 0.57823(9) -0.4727(3)
O2A O 0.40006(16) -0.02906(8) -1.3699(2)
O2C O 0.90006(16) 0.47094(8) -0.3699(2)
O2G O 1.09994(16) 0.52906(8) -0.6301(2)
O3A O 0.38268(18) 0.00905(10) -1.1856(2)
O3B O 1.11732(18) 0.50905(10) -0.3144(2)
O3F O 0.88268(18) 0.49095(10) -0.6856(2)
O4A O -0.0574(3) 0.36603(11) -2.1399(3)
O4B O 0.5574(3) -0.13397(11) -1.3601(3)
O4C O 0.4426(3) -0.13397(11) -1.1399(3)
O5A O -0.0216(2) 0.07935(11) -1.5955(3)
O6A O -0.1627(2) 0.20818(10) -1.7210(3)
C1A C 0.2566(2) 0.02556(12) -1.3815(3)
C2A C 0.0695(3) 0.06360(15) -1.5198(4)
C3A C -0.0651(3) 0.37641(14) -2.0259(4)
C4A C 0.2029(2) 0.05986(14) -1.3220(3)
H1A H 0.2299 0.0700 -1.2348
C5A C 0.1088(3) 0.07972(14) -1.3898(4)
H2A H 0.0735 0.1031 -1.3491
C6A C -0.1418(3) 0.24617(13) -1.8044(4)
C7A C -0.0965(2) 0.33137(13) -1.9519(4)
C8A C -0.1145(3) 0.34121(14) -1.8301(4)
H3A H -0.1107 0.3765 -1.7981
C9A C 0.3527(2) 0.00151(12) -1.3069(3)
C10A C -0.1025(3) 0.27890(14) -1.9981(4)
H4A H -0.0913 0.2720 -2.0799
C11A C 0.1232(3) 0.03052(15) -1.5808(4)
H5A H 0.0965 0.0207 -1.6682
C12A C 0.2170(3) 0.01162(14) -1.5131(4)
H6A H 0.2534 -0.0103 -1.5556
C13A C -0.1378(3) 0.29987(14) -1.7562(4)
H7A H -0.1508 0.3071 -1.6756
C14A C -0.1251(3) 0.23616(13) -1.9251(4)
H8A H -0.1290 0.2010 -1.9578
C15A C -0.1811(3) 0.11916(16) -1.6488(5)
H9A H -0.2306 0.1363 -1.6116
H10A H -0.2066 0.0837 -1.6811
C16A C -0.0850(3) 0.11209(16) -1.5416(4)
H11A H -0.0541 0.1470 -1.5149
H12A H -0.0982 0.0946 -1.4654
C17A C -0.1682(3) 0.15293(14) -1.7632(4)
H13A H -0.1073 0.1427 -1.7863
H14A H -0.2245 0.1477 -1.8395
O7 O 1.0000 0.1941(4) 0.7500
H15 H 0.9558 0.2162 0.7083
H15A H 1.0442 0.2162 0.7917
O8 O 0.8758(11) 0.2540(9) 0.6265(14)
H16 H 0.8324 0.2548 0.5525
H17 H 0.9110 0.2813 0.6178
loop_
_geom_bond_atom_site_label_1
_geom_bond_atom_site_label_2
_geom_bond_site_symmetry_1
_geom_bond_site_symmetry_2
Co1 O2 1_555 1_555
Co2 O1 1_555 1_555
O1 C3 1_555 1_555
O2 C9 1_555 1_555
O3 C9 1_555 1_555
O4 C3 1_555 1_555
O5 C2 1_555 1_555
O6 C6 1_555 1_555
C1 C4 1_555 1_555
C2 C5 1_555 1_555
C3 C7 1_555 1_555
C4 H1 1_555 1_555
C5 C4 1_555 1_555
H2 C5 1_555 1_555
C6 C13 1_555 1_555
C7 C8 1_555 1_555
C8 H3 1_555 1_555
C9 C1 1_555 1_555
C10 C7 1_555 1_555
H4 C10 1_555 1_555
C11 C2 1_555 1_555
H5 C11 1_555 1_555
C12 C1 1_555 1_555
H6 C12 1_555 1_555
C13 C8 1_555 1_555
H7 C13 1_555 1_555
C14 C6 1_555 1_555
H8 C14 1_555 1_555
C15 H9 1_555 1_555
H10 C15 1_555 1_555
C16 O5 1_555 1_555
H11 C16 1_555 1_555
H12 C16 1_555 1_555
C17 O6 1_555 1_555
H13 C17 1_555 1_555
H14 C17 1_555 1_555
O7 H15 1_555 1_555
O8 H16 1_555 1_555
H17 O8 1_555 1_555
Co1B O4 1_555 1_555
Co1B_2 O4A 1_555 1_555
Co2C O2 1_555 1_555
Co2B O3 1_555 1_555
Co2A O1A 1_555 1_555
O1A C3A 1_555 1_555
O1D Co2 1_555 1_555
O2A Co1 1_555 1_555
O2C Co2 1_555 1_555
O2G Co2 1_555 1_555
O3A Co2C 1_555 1_555
O3B Co2 1_555 1_555
O3F Co2 1_555 1_555
O4A C3A 1_555 1_555
O4B Co1 1_555 1_555
O4C Co1 1_555 1_555
O5A C2A 1_555 1_555
O6A C6A 1_555 1_555
C1A C4A 1_555 1_555
C2A C5A 1_555 1_555
C3A C7A 1_555 1_555
C4A H1A 1_555 1_555
C5A C4A 1_555 1_555
H2A C5A 1_555 1_555
C6A C13A 1_555 1_555
C7A C8A 1_555 1_555
C8A H3A 1_555 1_555
C9A O2A 1_555 1_555
C10A C7A 1_555 1_555
H4A C10A 1_555 1_555
C11A C2A 1_555 1_555
H5A C11A 1_555 1_555
C12A C1A 1_555 1_555
H6A C12A 1_555 1_555
C13A C8A 1_555 1_555
H7A C13A 1_555 1_555
C14A C6A 1_555 1_555
H8A C14A 1_555 1_555
C15A H9A 1_555 1_555
H10A C15A 1_555 1_555
C16A O5A 1_555 1_555
H11A C16A 1_555 1_555
H12A C16A 1_555 1_555
C17A O6A 1_555 1_555
H13A C17A 1_555 1_555
H14A C17A 1_555 1_555
H15A O7 1_555 1_555
C10 C14 1_555 1_555
C11 C12 1_555 1_555
C15 C16 1_555 1_555
C15 C17 1_555 1_555
Co1B O2C 1_555 1_555
Co2B O2A 1_555 1_555
O3A C9A 1_555 1_555
C1A C9A 1_555 1_555
C10A C14A 1_555 1_555
C11A C12A 1_555 1_555
C15A C16A 1_555 1_555
C15A C17A 1_555 1_555

#END
