
#######################################################################
#
#                 Cambridge Crystallographic Data Centre
#                                CCDC 
#
#######################################################################
#
# If this CIF has been generated from an entry in the Cambridge 
# Structural Database, then it will include bibliographic, chemical, 
# crystal, experimental, refinement or atomic coordinate data resulting 
# from the CCDC's data processing and validation procedures.
#
#######################################################################

data_IMUVAO
_symmetry_cell_setting           tetragonal
_symmetry_space_group_name_H-M   'I -4 2 m'
_symmetry_Int_Tables_number      121
_space_group_name_Hall           'I -4 2'
loop_
_symmetry_equiv_pos_site_id
_symmetry_equiv_pos_as_xyz
1 x,y,z
2 y,-x,-z
3 -x,-y,z
4 -y,x,-z
5 x,-y,-z
6 -y,-x,z
7 -x,y,-z
8 y,x,z
9 1/2+x,1/2+y,1/2+z
10 1/2+y,1/2-x,1/2-z
11 1/2-x,1/2-y,1/2+z
12 1/2-y,1/2+x,1/2-z
13 1/2+x,1/2-y,1/2-z
14 1/2-y,1/2-x,1/2+z
15 1/2-x,1/2+y,1/2-z
16 1/2+y,1/2+x,1/2+z
_cell_length_a                   25.182(5)
_cell_length_b                   25.182(5)
_cell_length_c                   26.944(10)
_cell_angle_alpha                90
_cell_angle_beta                 90
_cell_angle_gamma                90
_cell_volume                     17086.1
loop_
_atom_site_label
_atom_site_type_symbol
_atom_site_fract_x
_atom_site_fract_y
_atom_site_fract_z
N1 N 0.139(2) 0.0157(17) 0.637(2)
C22 C 0.157(4) 0.013(4) 0.691(2)
H8 H 0.1457 -0.0195 0.7056
H9 H 0.1424 0.0425 0.7090
H10 H 0.1955 0.0152 0.6926
C23 C 0.141(3) 0.054(3) 0.593(2)
H11 H 0.1222 0.0381 0.5651
H12 H 0.1771 0.0601 0.5831
H13 H 0.1243 0.0866 0.6015
In1 In 0.5000 0.23122(7) 1.0000
In2 In 0.5000 0.0000 0.7500
In3 In 0.39863(6) 0.39863(6) 0.69087(7)
In4 In 0.39586(5) 0.29522(5) 0.60334(5)
O1 O 0.4720(9) 0.2180(6) 0.9294(6)
O2 O 0.4450(6) 0.2980(6) 1.0181(6)
O3 O 0.4196(7) 0.2202(6) 1.0337(11)
O4 O 0.5000 0.1388(10) 1.0000
O5 O 0.3632(5) 0.3632(5) 0.6311(7)
O6 O 0.6774(5) 0.3861(6) 0.4735(6)
O7 O 0.4371(6) 0.4371(6) 0.7494(10)
O8 O 0.436(3) 0.2902(15) 0.9042(17)
O9 O 0.4085(7) 0.2527(9) 0.6735(5)
O10 O 0.4747(6) 0.3244(5) 0.6008(7)
O11 O 0.4738(6) 0.0824(6) 0.7299(6)
O12 O 0.4076(7) 0.3252(6) 0.7329(9)
O13 O 0.4837(5) 0.0646(5) 0.8119(5)
O14 O 0.4273(8) 0.2228(7) 0.5741(7)
O15 O 0.1797(6) 0.2453(6) 1.0983(6)
O16 O 0.4757(6) 0.3905(8) 0.6601(7)
C1 C 0.4076(9) 0.2677(9) 1.0295(10)
C2 C 0.3406(9) 0.3406(9) 1.0344(12)
H1 H 0.3653 0.3653 1.0233
C3 C 0.3546(9) 0.2888(10) 1.0430(9)
C4 C 0.2278(7) 0.2278(7) 1.0910(9)
C5 C 0.4958(9) 0.3643(7) 0.6229(7)
C6 C 0.4564(14) 0.2445(9) 0.8950(9)
C7 C 0.4122(8) 0.2777(8) 0.7190(7)
C8 C 0.4498(10) 0.2233(9) 0.8438(11)
C9 C 0.4719(8) 0.0974(8) 0.7758(8)
C10 C 0.4304(10) 0.2396(8) 0.7581(7)
C11 C 0.5693(7) 0.4307(7) 0.6226(10)
H2 H 0.5533 0.4467 0.6499
C12 C 0.4340(9) 0.2593(9) 0.8058(8)
H3 H 0.4264 0.2947 0.8128
C13 C 0.5684(7) 0.3625(7) 0.5580(7)
H4 H 0.5524 0.3332 0.5432
C14 C 0.6358(7) 0.3642(7) 0.4902(9)
C15 C 0.2659(7) 0.2659(7) 1.0736(13)
C16 C 0.5477(7) 0.3863(7) 0.6032(7)
C17 C 0.4596(9) 0.1703(8) 0.8338(8)
H5 H 0.4676 0.1471 0.8596
C18 C 0.3197(8) 0.2502(9) 1.0611(9)
H6 H 0.3308 0.2153 1.0650
C19 C 0.4577(8) 0.1526(7) 0.7875(7)
C20 C 0.4417(7) 0.1880(8) 0.7482(7)
H7 H 0.4390 0.1754 0.7159
C21 C 0.6137(7) 0.3863(7) 0.5380(9)
In1B In 0.5000 -0.23122(7) 1.0000
In1A In 0.23122(7) 0.5000 1.0000
In1I In 0.73122(7) 0.0000 0.5000
In1K In 0.26878(7) 0.0000 0.5000
In1C In 0.76878(7) 0.5000 1.0000
In3B In 0.60137(6) -0.39863(6) 0.69087(7)
In3B_2 In 0.60137(6) 0.60137(6) 0.69087(7)
In3I In 0.89863(6) 0.10137(6) 0.80913(7)
In3K In 0.10137(6) -0.10137(6) 0.80913(7)
In4B In 0.60414(5) -0.29522(5) 0.60334(5)
In4I In 0.79522(5) 0.10414(5) 0.89666(5)
In4K In 0.20478(5) -0.10414(5) 0.89666(5)
In4G In 0.29522(5) 0.39586(5) 0.60334(5)
In4C In 0.70478(5) 0.39586(5) 0.39666(5)
In4J In 0.10414(5) 0.20478(5) 1.10334(5)
In4M In 0.20478(5) 0.10414(5) 1.10334(5)
In4F In 0.60414(5) 0.29522(5) 0.39666(5)
In4E In 0.70478(5) 0.60414(5) 0.60334(5)
In4L In 0.89586(5) 0.20478(5) 0.89666(5)
In4D In 0.39586(5) 0.70478(5) 0.39666(5)
In4A In 0.29522(5) 0.60414(5) 0.39666(5)
In4B_2 In 0.60414(5) 0.70478(5) 0.60334(5)
In4E_2 In 0.70478(5) -0.39586(5) 0.60334(5)
O1B O 0.5280(9) -0.2180(6) 0.9294(6)
O1I O 0.7180(6) 0.0280(9) 0.5706(6)
O1K O 0.2820(6) -0.0280(9) 0.5706(6)
O1F O 0.5280(9) 0.2180(6) 1.0706(6)
O1D O 0.4720(9) -0.2180(6) 1.0706(6)
O2G O 0.2980(6) 0.4450(6) 1.0181(6)
O2F O 0.5550(6) 0.2980(6) 0.9819(6)
O2C O 0.7020(6) 0.4450(6) 0.9819(6)
O2B O 0.5550(6) -0.2980(6) 1.0181(6)
O2D O 0.4450(6) -0.2980(6) 0.9819(6)
O3G O 0.2202(6) 0.4196(7) 1.0337(11)
O3F O 0.5804(7) 0.2202(6) 0.9663(11)
O3C O 0.7798(6) 0.4196(7) 0.9663(11)
O3B O 0.5804(7) -0.2202(6) 1.0337(11)
O3D O 0.4196(7) -0.2202(6) 0.9663(11)
O4B O 0.5000 -0.1388(10) 1.0000
O5B O 0.6368(5) -0.3632(5) 0.6311(7)
O5I O 0.8632(5) 0.1368(5) 0.8689(7)
O5K O 0.1368(5) -0.1368(5) 0.8689(7)
O6E O 0.6139(6) 0.3226(5) 0.4735(6)
O6G O 0.3861(6) 0.6774(5) 0.4735(6)
O6B O 0.3226(5) 0.6139(6) 0.4735(6)
O6A O 0.3861(6) 0.3226(5) 0.5265(6)
O6C O 0.6139(6) -0.3226(5) 0.5265(6)
O6J O 0.8226(5) 0.1139(6) 0.9735(6)
O6H O 0.1774(5) -0.1139(6) 0.9735(6)
O7B O 0.5629(6) -0.4371(6) 0.7494(10)
O8B O 0.564(3) -0.2902(15) 0.9042(17)
O8I O 0.7902(15) 0.064(3) 0.5958(17)
O8K O 0.2098(15) -0.064(3) 0.5958(17)
O9B O 0.5915(7) -0.2527(9) 0.6735(5)
O9I O 0.7527(9) 0.0915(7) 0.8265(5)
O9K O 0.2473(9) -0.0915(7) 0.8265(5)
O10E O 0.6756(5) 0.5253(6) 0.6008(7)
O10G O 0.3244(5) 0.4747(6) 0.6008(7)
O10B O 0.5253(6) 0.6756(5) 0.6008(7)
O10B_2 O 0.5253(6) -0.3244(5) 0.6008(7)
O10I O 0.8244(5) 0.0253(6) 0.8992(7)
O10K O 0.1756(5) -0.0253(6) 0.8992(7)
O11B O 0.5262(6) -0.0824(6) 0.7299(6)
O11I O 0.5824(6) 0.0262(6) 0.7701(6)
O11K O 0.4176(6) -0.0262(6) 0.7701(6)
O12B O 0.5924(7) -0.3252(6) 0.7329(9)
O12I O 0.8252(6) 0.0924(7) 0.7671(9)
O12K O 0.1748(6) -0.0924(7) 0.7671(9)
O12G O 0.3252(6) 0.4076(7) 0.7329(9)
O12E O 0.6748(6) -0.4076(7) 0.7329(9)
O13B O 0.5163(5) -0.0646(5) 0.8119(5)
O13I O 0.5646(5) 0.0163(5) 0.6881(5)
O13K O 0.4354(5) -0.0163(5) 0.6881(5)
O14B O 0.5727(8) -0.2228(7) 0.5741(7)
O14I O 0.7228(7) 0.0727(8) 0.9259(7)
O14K O 0.2772(7) -0.0727(8) 0.9259(7)
O15G O 0.2453(6) 0.1797(6) 1.0983(6)
O15F O 0.8203(6) 0.2453(6) 0.9017(6)
O15C O 0.7547(6) 0.1797(6) 0.9017(6)
O15J O 0.3203(6) 0.2547(6) 0.5983(6)
O15H O 0.6797(6) -0.2547(6) 0.5983(6)
O15A O 0.2453(6) -0.1797(6) 0.9017(6)
O16E O 0.6095(8) 0.5243(6) 0.6601(7)
O16G O 0.3905(8) 0.4757(6) 0.6601(7)
O16B O 0.5243(6) 0.6095(8) 0.6601(7)
O16B_2 O 0.5243(6) -0.3905(8) 0.6601(7)
O16E_2 O 0.6095(8) -0.4757(6) 0.6601(7)
C1G C 0.2677(9) 0.4076(9) 1.0295(10)
C1F C 0.5924(9) 0.2677(9) 0.9705(10)
C1C C 0.7323(9) 0.4076(9) 0.9705(10)
C2C C 0.6594(9) 0.3406(9) 0.9656(12)
H1C H 0.6347 0.3653 0.9767
C3G C 0.2888(10) 0.3546(9) 1.0430(9)
C3F C 0.6454(9) 0.2888(10) 0.9570(9)
C3C C 0.7112(10) 0.3546(9) 0.9570(9)
C4C C 0.7722(7) 0.2278(7) 0.9090(9)
C5E C 0.6357(7) 0.5042(9) 0.6229(7)
C5G C 0.3643(7) 0.4958(9) 0.6229(7)
C5B C 0.5042(9) 0.6357(7) 0.6229(7)
C6B C 0.5436(14) -0.2445(9) 0.8950(9)
C6I C 0.7445(9) 0.0436(14) 0.6050(9)
C6K C 0.2555(9) -0.0436(14) 0.6050(9)
C7B C 0.5878(8) -0.2777(8) 0.7190(7)
C7I C 0.7777(8) 0.0878(8) 0.7810(7)
C7K C 0.2223(8) -0.0878(8) 0.7810(7)
C8B C 0.5502(10) -0.2233(9) 0.8438(11)
C8I C 0.7233(9) 0.0502(10) 0.6562(11)
C8K C 0.2767(9) -0.0502(10) 0.6562(11)
C9B C 0.5281(8) -0.0974(8) 0.7758(8)
C9I C 0.5974(8) 0.0281(8) 0.7242(8)
C9K C 0.4026(8) -0.0281(8) 0.7242(8)
C10B C 0.5696(10) -0.2396(8) 0.7581(7)
C10I C 0.7396(8) 0.0696(10) 0.7419(7)
C10K C 0.2604(8) -0.0696(10) 0.7419(7)
C11B C 0.4307(7) 0.5693(7) 0.6226(10)
H2B H 0.4467 0.5533 0.6499
C12B C 0.5660(9) -0.2593(9) 0.8058(8)
C12I C 0.7593(9) 0.0660(9) 0.6942(8)
C12K C 0.2407(9) -0.0660(9) 0.6942(8)
H3B H 0.5736 -0.2947 0.8128
H3I H 0.7947 0.0736 0.6872
H3K H 0.2053 -0.0736 0.6872
C13E C 0.6375(7) 0.4316(7) 0.5580(7)
C13G C 0.3625(7) 0.5684(7) 0.5580(7)
C13B C 0.4316(7) 0.6375(7) 0.5580(7)
H4E H 0.6668 0.4476 0.5432
H4G H 0.3332 0.5524 0.5432
H4B H 0.4476 0.6668 0.5432
C14B C 0.3642(7) 0.6358(7) 0.4902(9)
C15C C 0.7341(7) 0.2659(7) 0.9264(13)
C16E C 0.6137(7) 0.4523(7) 0.6032(7)
C16G C 0.3863(7) 0.5477(7) 0.6032(7)
C16B C 0.4523(7) 0.6137(7) 0.6032(7)
C17B C 0.5404(9) -0.1703(8) 0.8338(8)
C17I C 0.6703(8) 0.0404(9) 0.6662(8)
C17K C 0.3297(8) -0.0404(9) 0.6662(8)
H5B H 0.5324 -0.1471 0.8596
H5I H 0.6471 0.0324 0.6404
H5K H 0.3529 -0.0324 0.6404
C18G C 0.2502(9) 0.3197(8) 1.0611(9)
C18F C 0.6803(8) 0.2502(9) 0.9389(9)
C18C C 0.7498(9) 0.3197(8) 0.9389(9)
H6G H 0.2153 0.3308 1.0650
H6F H 0.6692 0.2153 0.9350
H6C H 0.7847 0.3308 0.9350
C19B C 0.5423(8) -0.1526(7) 0.7875(7)
C19I C 0.6526(7) 0.0423(8) 0.7125(7)
C19K C 0.3474(7) -0.0423(8) 0.7125(7)
C20B C 0.5583(7) -0.1880(8) 0.7482(7)
C20I C 0.6880(8) 0.0583(7) 0.7518(7)
C20K C 0.3120(8) -0.0583(7) 0.7518(7)
H7B H 0.5610 -0.1754 0.7159
H7I H 0.6754 0.0610 0.7841
H7K H 0.3246 -0.0610 0.7841
C21B C 0.3863(7) 0.6137(7) 0.5380(9)
loop_
_geom_bond_atom_site_label_1
_geom_bond_atom_site_label_2
_geom_bond_site_symmetry_1
_geom_bond_site_symmetry_2
In1 O1 1_555 1_555
In2 O11 1_555 1_555
In3 O5 1_555 1_555
In4 O5 1_555 1_555
O1 C6 1_555 1_555
O2 In1 1_555 1_555
O3 In1 1_555 1_555
O4 In1 1_555 1_555
O5 In4G 1_555 1_555
O6 C14 1_555 1_555
O7 In3 1_555 1_555
O8 C6 1_555 1_555
O9 In4 1_555 1_555
O10 In4 1_555 1_555
O11 C9 1_555 1_555
O12 In3 1_555 1_555
O13 In2 1_555 1_555
O14 In4 1_555 1_555
O15 C4 1_555 1_555
O16 In3 1_555 1_555
N1 C22 1_555 1_555
C1 O2 1_555 1_555
C2 H1 1_555 1_555
C3 C1 1_555 1_555
C4 C15 1_555 1_555
C5 O10 1_555 1_555
C6 C8 1_555 1_555
C7 O9 1_555 1_555
C8 C12 1_555 1_555
C9 O13 1_555 1_555
C10 C7 1_555 1_555
C11 H2 1_555 1_555
C12 C10 1_555 1_555
H3 C12 1_555 1_555
C13 H4 1_555 1_555
C14 C21 1_555 1_555
C15 C18 1_555 1_555
C16 C5 1_555 1_555
C17 C8 1_555 1_555
H5 C17 1_555 1_555
C18 C3 1_555 1_555
H6 C18 1_555 1_555
C19 C9 1_555 1_555
C20 C10 1_555 1_555
H7 C20 1_555 1_555
C21 C13 1_555 1_555
C22 H8 1_555 1_555
H9 C22 1_555 1_555
H10 C22 1_555 1_555
C23 N1 1_555 1_555
H11 C23 1_555 1_555
H12 C23 1_555 1_555
H13 C23 1_555 1_555
In1B O1B 1_555 1_555
In1A O2G 1_555 1_555
In1I O1I 1_555 1_555
In1K O1K 1_555 1_555
In1C O2C 1_555 1_555
In3B O5B 1_555 1_555
In3B_2 O16E 1_555 1_555
In3I O5I 1_555 1_555
In3K O5K 1_555 1_555
In4B O5B 1_555 1_555
In4I O5I 1_555 1_555
In4K O5K 1_555 1_555
In4G O10G 1_555 1_555
In4C O6 1_555 1_555
In4J O15 1_555 1_555
In4M O15G 1_555 1_555
In4F O6E 1_555 1_555
In4E O10E 1_555 1_555
In4L O5I 1_555 1_555
In4D O6G 1_555 1_555
In4A O6B 1_555 1_555
In4B_2 O10B 1_555 1_555
In4E_2 O5B 1_555 1_555
O1B C6B 1_555 1_555
O1I C6I 1_555 1_555
O1K C6K 1_555 1_555
O1F In1 1_555 1_555
O1D In1B 1_555 1_555
O2G C1G 1_555 1_555
O2F In1 1_555 1_555
O2C C1C 1_555 1_555
O2B In1B 1_555 1_555
O2D In1B 1_555 1_555
O3G In1A 1_555 1_555
O3F In1 1_555 1_555
O3C In1C 1_555 1_555
O3B In1B 1_555 1_555
O3D In1B 1_555 1_555
O4B In1B 1_555 1_555
O6E C14 1_555 1_555
O6G C14B 1_555 1_555
O6B C14B 1_555 1_555
O6A In4 1_555 1_555
O6C In4B 1_555 1_555
O6J In4I 1_555 1_555
O6H In4K 1_555 1_555
O7B In3B 1_555 1_555
O8B C6B 1_555 1_555
O8I C6I 1_555 1_555
O8K C6K 1_555 1_555
O9B In4B 1_555 1_555
O9I In4I 1_555 1_555
O9K In4K 1_555 1_555
O10E C5E 1_555 1_555
O10G C5G 1_555 1_555
O10B C5B 1_555 1_555
O10B_2 In4B 1_555 1_555
O10I In4I 1_555 1_555
O10K In4K 1_555 1_555
O11B In2 1_555 1_555
O11I In2 1_555 1_555
O11K In2 1_555 1_555
O12B In3B 1_555 1_555
O12I In3I 1_555 1_555
O12K In3K 1_555 1_555
O12G In3 1_555 1_555
O12E In3B 1_555 1_555
O13B In2 1_555 1_555
O13I In2 1_555 1_555
O13K In2 1_555 1_555
O14B In4B 1_555 1_555
O14I In4I 1_555 1_555
O14K In4K 1_555 1_555
O15G C4 1_555 1_555
O15F In4L 1_555 1_555
O15C In4I 1_555 1_555
O15J In4 1_555 1_555
O15H In4B 1_555 1_555
O15A In4K 1_555 1_555
O16E C5E 1_555 1_555
O16G In3 1_555 1_555
O16B In3B_2 1_555 1_555
O16B_2 In3B 1_555 1_555
O16E_2 In3B 1_555 1_555
C1G O3G 1_555 1_555
C1F O2F 1_555 1_555
C1C O3C 1_555 1_555
C2C H1C 1_555 1_555
C3G C2 1_555 1_555
C3F C1F 1_555 1_555
C3C C1C 1_555 1_555
C4C O15F 1_555 1_555
C5E C16E 1_555 1_555
C5G O16G 1_555 1_555
C5B O16B 1_555 1_555
C6B C8B 1_555 1_555
C6I C8I 1_555 1_555
C6K C8K 1_555 1_555
C7B O9B 1_555 1_555
C7I O9I 1_555 1_555
C7K O9K 1_555 1_555
C8B C12B 1_555 1_555
C8I C12I 1_555 1_555
C8K C12K 1_555 1_555
C9B O11B 1_555 1_555
C9I O11I 1_555 1_555
C9K O11K 1_555 1_555
C10B C7B 1_555 1_555
C10I C7I 1_555 1_555
C10K C7K 1_555 1_555
C11B H2B 1_555 1_555
C12B C10B 1_555 1_555
C12I C10I 1_555 1_555
C12K C10K 1_555 1_555
H3B C12B 1_555 1_555
H3I C12I 1_555 1_555
H3K C12K 1_555 1_555
C13E C21 1_555 1_555
C13G H4G 1_555 1_555
C13B H4B 1_555 1_555
H4E C13E 1_555 1_555
C14B C21B 1_555 1_555
C15C C4C 1_555 1_555
C16E C11 1_555 1_555
C16G C5G 1_555 1_555
C16B C5B 1_555 1_555
C17B C8B 1_555 1_555
C17I C8I 1_555 1_555
C17K C8K 1_555 1_555
H5B C17B 1_555 1_555
H5I C17I 1_555 1_555
H5K C17K 1_555 1_555
C18G C15 1_555 1_555
C18F C3F 1_555 1_555
C18C C3C 1_555 1_555
H6G C18G 1_555 1_555
H6F C18F 1_555 1_555
H6C C18C 1_555 1_555
C19B C9B 1_555 1_555
C19I C9I 1_555 1_555
C19K C9K 1_555 1_555
C20B C10B 1_555 1_555
C20I C10I 1_555 1_555
C20K C10K 1_555 1_555
H7B C20B 1_555 1_555
H7I C20I 1_555 1_555
H7K C20K 1_555 1_555
C21B C13G 1_555 1_555
O3 C1 1_555 1_555
O12 C7 1_555 1_555
O16 C5 1_555 1_555
C2 C3 1_555 1_555
C11 C16 1_555 1_555
C13 C16 1_555 1_555
C17 C19 1_555 1_555
C19 C20 1_555 1_555
O3F C1F 1_555 1_555
O12B C7B 1_555 1_555
O12I C7I 1_555 1_555
O12K C7K 1_555 1_555
O13B C9B 1_555 1_555
O13I C9I 1_555 1_555
O13K C9K 1_555 1_555
O15C C4C 1_555 1_555
C1G C3G 1_555 1_555
C2C C3F 1_555 1_555
C2C C3C 1_555 1_555
C3G C18G 1_555 1_555
C11B C16G 1_555 1_555
C11B C16B 1_555 1_555
C13E C16E 1_555 1_555
C13G C16G 1_555 1_555
C13B C16B 1_555 1_555
C13B C21B 1_555 1_555
C15C C18F 1_555 1_555
C15C C18C 1_555 1_555
C17B C19B 1_555 1_555
C17I C19I 1_555 1_555
C17K C19K 1_555 1_555
C19B C20B 1_555 1_555
C19I C20I 1_555 1_555
C19K C20K 1_555 1_555

#END
