
#######################################################################
#
#                 Cambridge Crystallographic Data Centre
#                                CCDC 
#
#######################################################################
#
# If this CIF has been generated from an entry in the Cambridge 
# Structural Database, then it will include bibliographic, chemical, 
# crystal, experimental, refinement or atomic coordinate data resulting 
# from the CCDC's data processing and validation procedures.
#
#######################################################################

data_IPIJUM
_symmetry_cell_setting           triclinic
_symmetry_space_group_name_H-M   'P -1'
_symmetry_Int_Tables_number      2
_space_group_name_Hall           '-P 1'
loop_
_symmetry_equiv_pos_site_id
_symmetry_equiv_pos_as_xyz
1 x,y,z
2 -x,-y,-z
_cell_length_a                   10.4005(2)
_cell_length_b                   10.6486(2)
_cell_length_c                   13.6321(3)
_cell_angle_alpha                105.3070(7)
_cell_angle_beta                 93.8350(8)
_cell_angle_gamma                108.9350(12)
_cell_volume                     1358.02
loop_
_atom_site_label
_atom_site_type_symbol
_atom_site_fract_x
_atom_site_fract_y
_atom_site_fract_z
Er1 Er 0.52361(2) 0.58006(2) 0.188079(18)
Er2 Er -0.01863(2) -0.05028(2) -0.186580(18)
O1 O 0.5868(4) 0.7482(4) 0.0993(3)
O2 O -0.1053(4) -0.2756(5) -0.1584(4)
O3 O -0.2218(4) -0.1405(6) -0.3078(3)
O4 O 0.6193(6) 0.5077(5) 0.3170(4)
O5 O 0.3432(5) 0.4840(6) 0.2723(4)
O6 O 0.4271(5) 0.7481(6) 0.2622(5)
O7 O 0.1390(4) -0.0616(4) -0.0736(3)
O8 O 0.1953(4) 0.0555(5) 0.0936(3)
O9 O 0.4610(4) 0.3309(4) 0.1170(3)
O10 O 0.4805(4) 0.2367(4) 0.2432(3)
C1 C 0.4798(5) 0.1088(6) 0.0727(4)
C2 C 0.3668(5) 0.0012(5) 0.0056(4)
C3 C 0.3881(5) -0.1055(6) -0.0658(5)
H1 H 0.3129 -0.1769 -0.1103
C4 C 0.4694(5) 0.2340(6) 0.1508(4)
C5 C 0.2231(5) -0.0004(5) 0.0096(4)
O11 O 0.3560(4) 0.5099(5) 0.0513(4)
O12 O 0.2856(4) 0.4455(5) -0.1172(3)
O13 O 0.0779(4) 0.1832(4) -0.0596(3)
O14 O -0.0611(4) 0.1591(4) -0.1971(3)
C6 C 0.0057(5) 0.3728(6) -0.0582(4)
C7 C 0.1278(5) 0.4867(5) -0.0089(4)
C8 C 0.1209(5) 0.6111(5) 0.0487(4)
H2 H 0.2019 0.6854 0.0816
C9 C 0.0097(5) 0.2316(5) -0.1096(5)
C10 C 0.2671(5) 0.4783(5) -0.0262(4)
O15 O 0.8201(4) 0.9237(4) 0.2364(3)
O16 O 0.7020(4) 0.7674(4) 0.3077(3)
O17 O 0.9676(4) 1.2011(4) 0.3200(3)
O18 O 0.8834(7) 1.2699(7) 0.4607(5)
C11 C 0.9062(5) 0.9434(6) 0.4075(4)
C12 C 0.9410(6) 0.8585(6) 0.4576(4)
H3 H 0.9004 0.7624 0.4288
C13 C 0.9655(5) 1.0887(6) 0.4504(4)
C14 C 0.8022(5) 0.8739(6) 0.3104(4)
C15 C 0.9338(6) 1.1923(6) 0.4052(5)
C3A C 0.6119(5) 0.1055(6) 0.0658(5)
C2A C 0.6332(5) -0.0012(5) -0.0056(4)
C1A C 0.5202(5) -0.1088(6) -0.0727(4)
C4A C 0.5306(5) -0.2340(6) -0.1508(4)
O9A O 0.5390(4) -0.3309(4) -0.1170(3)
O10A O 0.5195(4) -0.2367(4) -0.2432(3)
C5A C 0.7769(5) 0.0004(5) -0.0096(4)
O7A O 0.8610(4) 0.0616(4) 0.0736(3)
O8A O 0.8047(4) -0.0555(5) -0.0936(3)
H1A H 0.6871 0.1769 0.1103
C8A C -0.1209(5) 0.3889(5) -0.0487(4)
C7A C -0.1278(5) 0.5133(5) 0.0089(4)
C6A C -0.0057(5) 0.6272(6) 0.0582(4)
C9A C -0.0097(5) 0.7684(5) 0.1096(5)
O13A O -0.0779(4) 0.8168(4) 0.0596(3)
O14A O 0.0611(4) 0.8409(4) 0.1971(3)
C10A C -0.2671(5) 0.5217(5) 0.0262(4)
O11A O -0.3560(4) 0.4901(5) -0.0513(4)
O12A O -0.2856(4) 0.5545(5) 0.1172(3)
H2A H -0.2019 0.3146 -0.0816
C13A C 1.0345(5) 0.9113(6) 0.5496(4)
C11A C 1.0938(5) 1.0566(6) 0.5925(4)
C12A C 1.0590(6) 1.1415(6) 0.5424(4)
H3A H 1.0996 1.2376 0.5712
C14A C 1.1978(5) 1.1261(6) 0.6896(4)
O15A O 1.1799(4) 1.0763(4) 0.7636(3)
O16A O 1.2980(4) 1.2326(4) 0.6923(3)
C15A C 1.0662(6) 0.8077(6) 0.5948(5)
O17A O 1.0324(4) 0.7989(4) 0.6800(3)
O18A O 1.1166(7) 0.7301(7) 0.5393(5)
Er1A Er 0.47639(2) -0.58006(2) -0.188079(18)
Er2A Er 1.01863(2) 0.05028(2) 0.186580(18)
O1A O 0.4132(4) -0.7482(4) -0.0993(3)
O4A O 0.3807(6) -0.5077(5) -0.3170(4)
O5A O 0.6568(5) -0.4840(6) -0.2723(4)
O6A O 0.5729(5) -0.7481(6) -0.2622(5)
O2A O 1.1053(4) 0.2756(5) 0.1584(4)
O3A O 1.2218(4) 0.1405(6) 0.3078(3)
O12A_2 O 0.7144(4) 0.5545(5) 0.1172(3)
O8A_2 O -0.1953(4) -0.0555(5) -0.0936(3)
O15A_2 O 0.1799(4) 0.0763(4) -0.2364(3)
O17A_2 O 0.0324(4) -0.2011(4) -0.3200(3)
Er2A_2 Er 0.01863(2) 0.05028(2) 0.186580(18)
Er1A_2 Er 0.47639(2) 0.41994(2) -0.188079(18)
Er2A_3 Er 1.01863(2) 1.05028(2) 0.186580(18)
Er2_2 Er 0.98137(2) -0.05028(2) -0.186580(18)
Er2A_4 Er 0.01863(2) 1.05028(2) 0.186580(18)
Er1A_3 Er -0.52361(2) 0.41994(2) -0.188079(18)
Er1_2 Er -0.47639(2) 0.58006(2) 0.188079(18)
Er2_3 Er 0.98137(2) 0.94972(2) 0.813420(18)
Er1A_4 Er 1.47639(2) 1.41994(2) 0.811921(18)
O11A_2 O 0.6440(4) -0.5099(5) -0.0513(4)
O12_2 O 0.2856(4) -0.5545(5) -0.1172(3)
O16A_2 O 0.2980(4) -0.7674(4) -0.3077(3)
O8_2 O 1.1953(4) 0.0555(5) 0.0936(3)
O13A_2 O 0.9221(4) -0.1832(4) 0.0596(3)
O14A_2 O 1.0611(4) -0.1591(4) 0.1971(3)
O15_2 O 0.8201(4) -0.0763(4) 0.2364(3)
O17_2 O 0.9676(4) 0.2011(4) 0.3200(3)
O19 O 1.1745(8) 0.7266(10) 0.3290(6)
O20 O 1.5723(9) 0.0352(9) 0.2992(8)
O21 O 0.8596(10) 0.4871(11) 0.4098(10)
O22 O 0.9441(12) 0.4271(11) 0.2234(8)
O23 O 0.6366(19) 0.392(3) 0.5221(10)
O24 O 1.3853(13) 0.203(5) 0.4893(9)
loop_
_geom_bond_atom_site_label_1
_geom_bond_atom_site_label_2
_geom_bond_site_symmetry_1
_geom_bond_site_symmetry_2
Er1 O1 1_555 1_555
Er2 O2 1_555 1_555
O3 Er2 1_555 1_555
O4 Er1 1_555 1_555
O5 Er1 1_555 1_555
O6 Er1 1_555 1_555
O7 Er2 1_555 1_555
O8 C5 1_555 1_555
O9 Er1 1_555 1_555
O10 C4 1_555 1_555
C1 C2 1_555 1_555
C2 C3 1_555 1_555
C3 H1 1_555 1_555
C4 O9 1_555 1_555
C5 O7 1_555 1_555
O11 Er1 1_555 1_555
O12 C10 1_555 1_555
O13 Er2 1_555 1_555
O14 Er2 1_555 1_555
C6 C7 1_555 1_555
C7 C8 1_555 1_555
C8 H2 1_555 1_555
C9 O13 1_555 1_555
C10 O11 1_555 1_555
O15 C14 1_555 1_555
O16 Er1 1_555 1_555
O17 C15 1_555 1_555
O18 C15 1_555 1_555
C11 C12 1_555 1_555
C12 H3 1_555 1_555
C13 C11 1_555 1_555
C14 O16 1_555 1_555
C15 C13 1_555 1_555
C3A C1 1_555 1_555
C2A C3A 1_555 1_555
C1A C3 1_555 1_555
C4A C1A 1_555 1_555
O9A C4A 1_555 1_555
O10A C4A 1_555 1_555
C5A C2A 1_555 1_555
O7A C5A 1_555 1_555
O8A C5A 1_555 1_555
H1A C3A 1_555 1_555
C8A C6 1_555 1_555
C7A C8A 1_555 1_555
C6A C8 1_555 1_555
C9A C6A 1_555 1_555
O13A C9A 1_555 1_555
O14A C9A 1_555 1_555
C10A C7A 1_555 1_555
O11A C10A 1_555 1_555
O12A C10A 1_555 1_555
H2A C8A 1_555 1_555
C13A C12 1_555 1_555
C11A C13A 1_555 1_555
C12A C13 1_555 1_555
H3A C12A 1_555 1_555
C14A C11A 1_555 1_555
O15A C14A 1_555 1_555
O16A C14A 1_555 1_555
C15A C13A 1_555 1_555
O17A C15A 1_555 1_555
O18A C15A 1_555 1_555
Er1A O9A 1_555 1_555
Er2A O7A 1_555 1_555
O1A Er1A 1_555 1_555
O4A Er1A 1_555 1_555
O5A Er1A 1_555 1_555
O6A Er1A 1_555 1_555
O2A Er2A 1_555 1_555
O3A Er2A 1_555 1_555
O12A_2 Er1 1_555 1_555
O8A_2 Er2 1_555 1_555
O15A_2 Er2 1_555 1_555
O17A_2 Er2 1_555 1_555
Er2A_2 O8 1_555 1_555
Er1A_2 O12 1_555 1_555
Er2A_3 O15 1_555 1_555
Er2_2 O8A 1_555 1_555
Er2A_4 O13A 1_555 1_555
Er1A_3 O11A 1_555 1_555
Er1_2 O12A 1_555 1_555
Er2_3 O15A 1_555 1_555
Er1A_4 O16A 1_555 1_555
O11A_2 Er1A 1_555 1_555
O12_2 Er1A 1_555 1_555
O16A_2 Er1A 1_555 1_555
O8_2 Er2A 1_555 1_555
O13A_2 Er2A 1_555 1_555
O14A_2 Er2A 1_555 1_555
O15_2 Er2A 1_555 1_555
O17_2 Er2A 1_555 1_555
C1 C4 1_555 1_555
C2 C5 1_555 1_555
O14 C9 1_555 1_555
C6 C9 1_555 1_555
C7 C10 1_555 1_555
O17 Er2A_3 1_555 1_555
C11 C14 1_555 1_555
C2A C1A 1_555 1_555
C7A C6A 1_555 1_555
O14A Er2A_4 1_555 1_555
C11A C12A 1_555 1_555
O17A Er2_3 1_555 1_555

#END
