
#######################################################################
#
#                 Cambridge Crystallographic Data Centre
#                                CCDC 
#
#######################################################################
#
# If this CIF has been generated from an entry in the Cambridge 
# Structural Database, then it will include bibliographic, chemical, 
# crystal, experimental, refinement or atomic coordinate data resulting 
# from the CCDC's data processing and validation procedures.
#
#######################################################################

data_ISEQIH
_symmetry_cell_setting           triclinic
_symmetry_space_group_name_H-M   'P -1'
_symmetry_Int_Tables_number      2
_space_group_name_Hall           '-P 1'
loop_
_symmetry_equiv_pos_site_id
_symmetry_equiv_pos_as_xyz
1 x,y,z
2 -x,-y,-z
_cell_length_a                   5.9466(4)
_cell_length_b                   10.2247(8)
_cell_length_c                   16.6496(13)
_cell_angle_alpha                72.213(7)
_cell_angle_beta                 79.718(7)
_cell_angle_gamma                89.791(6)
_cell_volume                     947.062
loop_
_atom_site_label
_atom_site_type_symbol
_atom_site_fract_x
_atom_site_fract_y
_atom_site_fract_z
Ca1 Ca 0.24405(17) 0.12048(10) 0.00367(8)
Ca2 Ca -0.05062(17) -0.18055(11) 0.60432(7)
Ca3 Ca -0.45185(17) -0.57902(11) 0.39665(7)
O1 O -0.1758(6) -0.2835(4) 0.1387(2)
O2 O 0.5020(8) 0.3143(5) -0.0136(3)
O3 O 0.0502(7) -0.0976(4) 0.0799(2)
O4 O -0.0615(8) 0.2484(6) 0.0488(3)
O5 O -0.1880(6) -0.2936(4) 0.5196(2)
O6 O -0.2669(6) -0.4713(4) 0.4795(2)
O7 O -0.0490(6) -0.5816(3) 0.3263(2)
O8 O 0.2893(5) -0.4713(3) 0.3064(3)
O9 O -0.2749(5) -0.3532(3) 0.3059(2)
O10 O 0.7653(6) 0.0074(4) -0.4813(2)
O11 O 0.6894(6) 0.2239(4) -0.5218(2)
O12 O 0.4519(7) -0.0016(4) -0.0830(2)
O13 O 0.6894(7) -0.1202(4) -0.1449(2)
O14 O 0.5459(6) -0.2542(4) -0.3222(2)
O15 O 0.2079(5) -0.1644(4) -0.3034(3)
O16 O 0.7729(5) -0.0410(3) -0.3083(2)
C1 C -0.0208(9) -0.2028(5) 0.1415(3)
C2 C 0.0809(8) -0.2260(5) 0.2214(3)
C3 C -0.0354(7) -0.3374(4) 0.3042(3)
C4 C -0.0032(8) -0.2909(5) 0.3815(3)
C5 C -0.1631(8) -0.3576(5) 0.4657(3)
C6 C 0.0771(8) -0.4757(5) 0.3125(3)
C7 C 0.6616(8) 0.1060(6) -0.4674(3)
C8 C 0.4989(8) 0.0930(5) -0.3846(3)
C9 C 0.5327(7) -0.0274(5) -0.3061(3)
C10 C 0.4188(9) 0.0084(5) -0.2250(3)
C11 C 0.5275(9) -0.0422(5) -0.1455(3)
C12 C 0.4207(8) -0.1596(5) -0.3108(3)
H1 H 0.533(13) 0.343(7) 0.026(3)
H2 H 0.509(14) 0.380(6) -0.059(3)
H3 H -0.158(11) 0.261(8) 0.017(4)
H4 H -0.087(15) 0.302(7) 0.078(5)
H5 H -0.29600 -0.35250 0.25720
H6 H 0.84190 -0.01870 -0.35960
H7 H 0.24210 -0.24920 0.20780
H8 H 0.08330 -0.13760 0.23420
H9 H -0.01930 -0.19030 0.36590
H10 H 0.15570 -0.30800 0.39070
H11 H 0.51240 0.17970 -0.37060
H12 H 0.34090 0.08360 -0.39410
H13 H 0.25810 -0.02900 -0.20930
H14 H 0.41490 0.10980 -0.24050
Ca2_2 Ca 0.94938(17) -0.18055(11) -0.39568(7)
Ca2_3 Ca -0.05062(17) -0.18055(11) -0.39568(7)
Ca3_2 Ca 0.54815(17) -0.57902(11) 0.39665(7)
Ca3_3 Ca 0.54815(17) 0.42098(11) -0.60335(7)
O8_2 O -0.7107(5) -0.4713(3) 0.3064(3)
O10_2 O -0.2347(6) 0.0074(4) 0.5187(2)
O11_2 O -0.3106(6) -0.7761(4) 0.4782(2)
O15_2 O 0.2079(5) -0.1644(4) 0.6966(3)
O17 O 0.9091(12) 0.4220(7) 0.1521(3)
H15 H 0.841(14) 0.495(5) 0.151(5)
H16 H 0.897(16) 0.366(7) 0.203(2)
O18 O 0.3927(10) 0.4321(7) 0.1317(4)
H17 H 0.267(8) 0.404(9) 0.126(6)
H18 H 0.420(17) 0.417(11) 0.181(3)
loop_
_geom_bond_atom_site_label_1
_geom_bond_atom_site_label_2
_geom_bond_site_symmetry_1
_geom_bond_site_symmetry_2
Ca1 O2 1_555 1_555
Ca2 O5 1_555 1_555
Ca3 O6 1_555 1_555
O1 C1 1_555 1_555
O2 H1 1_555 1_555
O3 Ca1 1_555 1_555
O4 Ca1 1_555 1_555
O5 C5 1_555 1_555
O6 C5 1_555 1_555
O7 C6 1_555 1_555
O8 C6 1_555 1_555
O9 C3 1_555 1_555
O10 C7 1_555 1_555
O11 C7 1_555 1_555
O12 Ca1 1_555 1_555
O13 C11 1_555 1_555
O14 C12 1_555 1_555
O15 C12 1_555 1_555
O16 C9 1_555 1_555
C1 O3 1_555 1_555
C2 C1 1_555 1_555
C3 C2 1_555 1_555
C4 C3 1_555 1_555
C5 C4 1_555 1_555
C6 C3 1_555 1_555
C7 C8 1_555 1_555
C8 C9 1_555 1_555
C9 C10 1_555 1_555
C10 C11 1_555 1_555
C11 O12 1_555 1_555
C12 C9 1_555 1_555
O17 H15 1_555 1_555
O18 H17 1_555 1_555
H2 O2 1_555 1_555
H3 O4 1_555 1_555
H4 O4 1_555 1_555
H5 O9 1_555 1_555
H6 O16 1_555 1_555
H7 C2 1_555 1_555
H8 C2 1_555 1_555
H9 C4 1_555 1_555
H10 C4 1_555 1_555
H11 C8 1_555 1_555
H12 C8 1_555 1_555
H13 C10 1_555 1_555
H14 C10 1_555 1_555
H16 O17 1_555 1_555
H18 O18 1_555 1_555
Ca2_2 O10 1_555 1_555
Ca2_3 O15 1_555 1_555
Ca3_2 O8 1_555 1_555
Ca3_3 O11 1_555 1_555
O8_2 Ca3 1_555 1_555
O10_2 Ca2 1_555 1_555
O11_2 Ca3 1_555 1_555
O15_2 Ca2 1_555 1_555

#END
