
#######################################################################
#
#                 Cambridge Crystallographic Data Centre
#                                CCDC 
#
#######################################################################
#
# If this CIF has been generated from an entry in the Cambridge 
# Structural Database, then it will include bibliographic, chemical, 
# crystal, experimental, refinement or atomic coordinate data resulting 
# from the CCDC's data processing and validation procedures.
#
#######################################################################

data_ISIMAZ
_symmetry_cell_setting           monoclinic
_symmetry_space_group_name_H-M   'P 21/n'
_symmetry_Int_Tables_number      14
_space_group_name_Hall           '-P 2yn'
loop_
_symmetry_equiv_pos_site_id
_symmetry_equiv_pos_as_xyz
1 x,y,z
2 1/2-x,1/2+y,1/2-z
3 -x,-y,-z
4 1/2+x,1/2-y,1/2+z
_cell_length_a                   7.2169(6)
_cell_length_b                   16.9389(13)
_cell_length_c                   17.0897(12)
_cell_angle_alpha                90
_cell_angle_beta                 95.513(7)
_cell_angle_gamma                90
_cell_volume                     2079.49
loop_
_atom_site_label
_atom_site_type_symbol
_atom_site_fract_x
_atom_site_fract_y
_atom_site_fract_z
Zn1 Zn 0.06818(6) 0.20081(2) 0.69136(2)
O1 O -0.1189(3) 0.18457(13) 0.60329(12)
O2 O -0.8390(3) 0.05333(15) 0.44869(14)
O3 O -0.2439(4) 0.23930(15) 0.31992(14)
C1 C -0.5595(5) 0.09730(19) 0.5294(2)
H1 H -0.5937 0.0722 0.5743
O4 O -0.3102(3) 0.11093(16) 0.66744(14)
C2 C -0.6743(5) 0.0943(2) 0.4589(2)
O5 O -0.5370(3) 0.22991(14) 0.26847(13)
N1 N 0.4960(4) 0.32474(16) 0.59754(19)
N2 N 0.2478(4) 0.26251(16) 0.63074(17)
N3 N 1.3319(4) 0.59693(17) 0.76974(16)
N4 N 1.1242(4) 0.50852(19) 0.72928(18)
C3 C -0.9099(4) 0.0203(2) 0.5148(2)
H2 H -0.9326 0.0611 0.5525
H3 H -0.8225 -0.0176 0.5399
C4 C 0.6849(5) 0.3573(2) 0.6041(3)
H4 H 0.7532 0.3333 0.5640
H5 H 0.7472 0.3428 0.6549
C5 C -0.3412(5) 0.17498(18) 0.46436(19)
H6 H -0.2271 0.2007 0.4659
C6 C -0.6242(5) 0.1328(2) 0.39319(19)
H7 H -0.7035 0.1315 0.3470
C7 C -0.3933(5) 0.13865(19) 0.53112(19)
C8 C -0.2684(5) 0.1435(2) 0.6077(2)
C9 C 1.4085(6) 0.5238(2) 0.7805(2)
H8 H 1.5296 0.5138 0.8019
C10 C -0.4577(5) 0.17340(19) 0.3950(2)
C11 C 0.6924(6) 0.4449(2) 0.5955(3)
H9 H 0.6074 0.4689 0.6292
H10 H 0.6513 0.4590 0.5416
C12 C -0.4062(6) 0.2169(2) 0.3238(2)
C13 C 0.2194(5) 0.2854(2) 0.5537(2)
H11 H 0.1120 0.2753 0.5207
C14 C 0.3703(6) 0.3250(2) 0.5322(2)
H12 H 0.3851 0.3475 0.4836
C15 C 0.4167(5) 0.2869(2) 0.6543(2)
H13 H 0.4744 0.2789 0.7047
C16 C 0.8907(6) 0.4782(2) 0.6171(2)
H14 H 0.9796 0.4486 0.5897
H15 H 0.8953 0.5329 0.6006
C17 C 0.9417(6) 0.4727(2) 0.7038(2)
H16 H 0.8465 0.4989 0.7308
H17 H 0.9438 0.4176 0.7192
C18 C 1.1606(6) 0.5849(2) 0.7397(2)
H18 H 1.0747 0.6249 0.7272
C19 C 1.2834(6) 0.4682(2) 0.7558(3)
H19 H 1.3008 0.4138 0.7565
Zn1B Zn -2.06818(6) -0.20081(2) 0.30864(2)
Zn1A Zn -1.56818(6) -0.29919(2) 0.80864(2)
Zn1A_2 Zn 1.43182(6) 0.70081(2) 0.80864(2)
Zn1C Zn -3.43182(6) -0.70081(2) 0.19136(2)
Zn1C_2 Zn -0.43182(6) 0.29919(2) 0.19136(2)
O1B O -1.8811(3) -0.18457(13) 0.39671(12)
O2B O -1.1610(3) -0.05333(15) 0.55131(14)
O3B O -1.7561(4) -0.23930(15) 0.68008(14)
C1B C -1.4405(5) -0.09730(19) 0.4706(2)
H1B H -1.4063 -0.0722 0.4257
O4B O -1.6898(3) -0.11093(16) 0.33256(14)
C2B C -1.3257(5) -0.0943(2) 0.5411(2)
O5B O -1.4630(3) -0.22991(14) 0.73153(13)
O5A O -1.9630(3) -0.27009(14) 0.23153(13)
O5C O -0.0370(3) 0.27009(14) 0.76847(13)
N1B N -2.4960(4) -0.32474(16) 0.40246(19)
N2B N -2.2478(4) -0.26251(16) 0.36926(17)
N3B N -3.3319(4) -0.59693(17) 0.23026(16)
N3A N 0.1681(4) 0.09693(17) 0.73026(16)
N3C N -2.1681(4) -0.09693(17) 0.26974(16)
N4B N -3.1242(4) -0.50852(19) 0.27072(18)
C3B C -1.0901(4) -0.0203(2) 0.4852(2)
H2B H -1.0674 -0.0611 0.4475
H3B H -1.1775 0.0176 0.4601
C4B C -2.6849(5) -0.3573(2) 0.3959(3)
H4B H -2.7532 -0.3333 0.4360
H5B H -2.7472 -0.3428 0.3451
C5B C -1.6588(5) -0.17498(18) 0.53564(19)
H6B H -1.7729 -0.2007 0.5341
C6B C -1.3758(5) -0.1328(2) 0.60681(19)
H7B H -1.2965 -0.1315 0.6530
C7B C -1.6067(5) -0.13865(19) 0.46888(19)
C8B C -1.7316(5) -0.1435(2) 0.3923(2)
C9B C -3.4085(6) -0.5238(2) 0.2195(2)
H8B H -3.5296 -0.5138 0.1981
C10B C -1.5423(5) -0.17340(19) 0.6050(2)
C11B C -2.6924(6) -0.4449(2) 0.4045(3)
H9B H -2.6074 -0.4689 0.3708
H10B H -2.6513 -0.4590 0.4584
C12B C -1.5938(6) -0.2169(2) 0.6762(2)
C13B C -2.2194(5) -0.2854(2) 0.4463(2)
H11B H -2.1120 -0.2753 0.4793
C14B C -2.3703(6) -0.3250(2) 0.4678(2)
H12B H -2.3851 -0.3475 0.5164
C15B C -2.4167(5) -0.2869(2) 0.3457(2)
H13B H -2.4744 -0.2789 0.2953
C16B C -2.8907(6) -0.4782(2) 0.3829(2)
H14B H -2.9796 -0.4486 0.4103
H15B H -2.8953 -0.5329 0.3994
C17B C -2.9417(6) -0.4727(2) 0.2962(2)
H16B H -2.8465 -0.4989 0.2692
H17B H -2.9438 -0.4176 0.2808
C18B C -3.1606(6) -0.5849(2) 0.2603(2)
H18B H -3.0747 -0.6249 0.2728
C19B C -3.2834(6) -0.4682(2) 0.2442(3)
H19B H -3.3008 -0.4138 0.2435
O6 O 0.1789(8) 0.3190(4) 0.3456(3)
loop_
_geom_bond_atom_site_label_1
_geom_bond_atom_site_label_2
_geom_bond_site_symmetry_1
_geom_bond_site_symmetry_2
Zn1 O1 1_555 1_555
O1 C8 1_555 1_555
O2 C2 1_555 1_555
O3 C12 1_555 1_555
C1 H1 1_555 1_555
O4 C8 1_555 1_555
C2 C1 1_555 1_555
O5 C12 1_555 1_555
N1 C4 1_555 1_555
N2 Zn1 1_555 1_555
N3 C9 1_555 1_555
N4 C17 1_555 1_555
C3 O2 1_555 1_555
H2 C3 1_555 1_555
H3 C3 1_555 1_555
C4 H4 1_555 1_555
H5 C4 1_555 1_555
C5 H6 1_555 1_555
C6 C2 1_555 1_555
H7 C6 1_555 1_555
C7 C1 1_555 1_555
C8 C7 1_555 1_555
C9 H8 1_555 1_555
C10 C5 1_555 1_555
C11 C4 1_555 1_555
H9 C11 1_555 1_555
H10 C11 1_555 1_555
C12 C10 1_555 1_555
C13 N2 1_555 1_555
H11 C13 1_555 1_555
C14 N1 1_555 1_555
H12 C14 1_555 1_555
C15 N1 1_555 1_555
H13 C15 1_555 1_555
C16 C11 1_555 1_555
H14 C16 1_555 1_555
H15 C16 1_555 1_555
C17 C16 1_555 1_555
H16 C17 1_555 1_555
H17 C17 1_555 1_555
C18 N3 1_555 1_555
H18 C18 1_555 1_555
C19 N4 1_555 1_555
H19 C19 1_555 1_555
Zn1B O1B 1_555 1_555
Zn1A O5B 1_555 1_555
Zn1A_2 N3 1_555 1_555
Zn1C N3B 1_555 1_555
Zn1C_2 O5 1_555 1_555
O1B C8B 1_555 1_555
O2B C2B 1_555 1_555
O3B C12B 1_555 1_555
C1B H1B 1_555 1_555
O4B C8B 1_555 1_555
C2B C1B 1_555 1_555
O5B C12B 1_555 1_555
O5A Zn1B 1_555 1_555
O5C Zn1 1_555 1_555
N1B C4B 1_555 1_555
N2B Zn1B 1_555 1_555
N3B C9B 1_555 1_555
N3A Zn1 1_555 1_555
N3C Zn1B 1_555 1_555
N4B C17B 1_555 1_555
C3B C3 1_555 1_555
H2B C3B 1_555 1_555
H3B C3B 1_555 1_555
C4B H4B 1_555 1_555
H5B C4B 1_555 1_555
C5B H6B 1_555 1_555
C6B C2B 1_555 1_555
H7B C6B 1_555 1_555
C7B C1B 1_555 1_555
C8B C7B 1_555 1_555
C9B H8B 1_555 1_555
C10B C5B 1_555 1_555
C11B C4B 1_555 1_555
H9B C11B 1_555 1_555
H10B C11B 1_555 1_555
C12B C10B 1_555 1_555
C13B N2B 1_555 1_555
H11B C13B 1_555 1_555
C14B N1B 1_555 1_555
H12B C14B 1_555 1_555
C15B N1B 1_555 1_555
H13B C15B 1_555 1_555
C16B C11B 1_555 1_555
H14B C16B 1_555 1_555
H15B C16B 1_555 1_555
C17B C16B 1_555 1_555
H16B C17B 1_555 1_555
H17B C17B 1_555 1_555
C18B N3B 1_555 1_555
H18B C18B 1_555 1_555
C19B N4B 1_555 1_555
H19B C19B 1_555 1_555
N2 C15 1_555 1_555
N4 C18 1_555 1_555
C5 C7 1_555 1_555
C6 C10 1_555 1_555
C9 C19 1_555 1_555
C13 C14 1_555 1_555
O2B C3B 1_555 1_555
N2B C15B 1_555 1_555
N4B C18B 1_555 1_555
C5B C7B 1_555 1_555
C6B C10B 1_555 1_555
C9B C19B 1_555 1_555
C13B C14B 1_555 1_555

#END
