
#######################################################################
#
#                 Cambridge Crystallographic Data Centre
#                                CCDC 
#
#######################################################################
#
# If this CIF has been generated from an entry in the Cambridge 
# Structural Database, then it will include bibliographic, chemical, 
# crystal, experimental, refinement or atomic coordinate data resulting 
# from the CCDC's data processing and validation procedures.
#
#######################################################################

data_ISISUZ
_symmetry_cell_setting           monoclinic
_symmetry_space_group_name_H-M   'P 21/n'
_symmetry_Int_Tables_number      14
_space_group_name_Hall           '-P 2yn'
loop_
_symmetry_equiv_pos_site_id
_symmetry_equiv_pos_as_xyz
1 x,y,z
2 1/2-x,1/2+y,1/2-z
3 -x,-y,-z
4 1/2+x,1/2-y,1/2+z
_cell_length_a                   8.4070(17)
_cell_length_b                   10.280(2)
_cell_length_c                   17.655(4)
_cell_angle_alpha                90
_cell_angle_beta                 102.80(3)
_cell_angle_gamma                90
_cell_volume                     1487.9
loop_
_atom_site_label
_atom_site_type_symbol
_atom_site_fract_x
_atom_site_fract_y
_atom_site_fract_z
N1 N 0.1666(4) -0.4271(3) -0.5490(2)
O1 O -0.5302(4) 0.2855(3) -0.55625(16)
O2 O -0.5799(4) 0.3915(3) -0.45817(17)
C1 C -0.5152(5) 0.2937(4) -0.4840(2)
C2 C -0.0375(6) -0.2687(5) -0.5948(3)
H1 H -0.1070 -0.2286 -0.6366
C3 C 0.1651(5) -0.3917(4) -0.4760(2)
H2 H 0.2335 -0.4348 -0.4351
C4 C 0.0663(5) -0.2943(4) -0.4594(2)
H3 H 0.0694 -0.2714 -0.4082
C5 C -0.4233(5) 0.1953(4) -0.4303(2)
C6 C -0.4124(5) 0.2047(4) -0.3509(2)
H4 H -0.4642 0.2720 -0.3306
Cu1 Cu -0.17434(6) 0.05718(5) -0.06807(3)
O3 O -0.2094(4) 0.0360(3) -0.17664(16)
O4 O -0.3801(4) 0.2032(3) -0.18693(18)
C7 C -0.3063(5) 0.1211(4) -0.2161(2)
C8 C -0.2464(5) 0.0129(4) -0.3335(2)
H5 H -0.1867 -0.0489 -0.3005
N2 N -0.1748(4) -0.1010(4) -0.4387(2)
C9 C 0.0649(6) -0.3654(4) -0.6073(2)
H6 H 0.0642 -0.3895 -0.6581
C10 C -0.3473(5) 0.0951(4) -0.4625(2)
H7 H -0.3571 0.0894 -0.5159
C11 C -0.3231(5) 0.1123(4) -0.3024(2)
O5 O -0.1875(4) -0.0408(3) -0.56322(18)
C12 C -0.1411(5) -0.1151(4) -0.5091(2)
C13 C -0.2565(5) 0.0038(4) -0.4124(2)
C14 C -0.0377(5) -0.2304(4) -0.5196(2)
H8 H -0.140(6) -0.155(5) -0.408(3)
N1C N -0.3334(4) -0.0729(3) -0.0490(2)
O1C O -0.0302(4) 0.2145(3) -0.05625(16)
O2C O -0.0799(4) 0.1085(3) 0.04183(17)
Cu1C Cu -0.67434(6) 0.44282(5) -0.56807(3)
Cu1C_2 Cu 0.32566(6) -0.55718(5) -0.56807(3)
O6 O -0.184(3) -0.414(2) -0.7863(10)
O7 O -0.1367(15) -0.1290(17) -0.7929(6)
O8? O -0.287(4) -0.443(3) -0.7865(13)
O9? O -0.077(4) -0.276(4) -0.7932(16)
loop_
_geom_bond_atom_site_label_1
_geom_bond_atom_site_label_2
_geom_bond_site_symmetry_1
_geom_bond_site_symmetry_2
N1 C3 1_555 1_555
O1 C1 1_555 1_555
O2 C1 1_555 1_555
C1 C5 1_555 1_555
C2 H1 1_555 1_555
C3 H2 1_555 1_555
C4 C3 1_555 1_555
H3 C4 1_555 1_555
C5 C6 1_555 1_555
C6 H4 1_555 1_555
Cu1 O3 1_555 1_555
O3 C7 1_555 1_555
O4 C7 1_555 1_555
C7 C11 1_555 1_555
C8 H5 1_555 1_555
N2 C12 1_555 1_555
C9 N1 1_555 1_555
H6 C9 1_555 1_555
C10 C5 1_555 1_555
H7 C10 1_555 1_555
C11 C6 1_555 1_555
O5 C12 1_555 1_555
C12 C14 1_555 1_555
C13 C8 1_555 1_555
C14 C2 1_555 1_555
H8 N2 1_555 1_555
N1C Cu1 1_555 1_555
O1C Cu1 1_555 1_555
O2C Cu1 1_555 1_555
Cu1C O1 1_555 1_555
Cu1C_2 N1 1_555 1_555
O2 Cu1C 1_555 1_555
C2 C9 1_555 1_555
C4 C14 1_555 1_555
C8 C11 1_555 1_555
N2 C13 1_555 1_555
C10 C13 1_555 1_555

#END
