
#######################################################################
#
#                 Cambridge Crystallographic Data Centre
#                                CCDC 
#
#######################################################################
#
# If this CIF has been generated from an entry in the Cambridge 
# Structural Database, then it will include bibliographic, chemical, 
# crystal, experimental, refinement or atomic coordinate data resulting 
# from the CCDC's data processing and validation procedures.
#
#######################################################################

data_ITUVOJ
_symmetry_cell_setting           tetragonal
_symmetry_space_group_name_H-M   'I 41/a c d'
_symmetry_Int_Tables_number      142
_space_group_name_Hall           '-I 4bd 2c'
loop_
_symmetry_equiv_pos_site_id
_symmetry_equiv_pos_as_xyz
1 x,y,z
2 1/2-x,-y,1/2+z
3 1/4-y,3/4+x,1/4+z
4 1/4+y,1/4-x,3/4+z
5 1/2-x,y,-z
6 x,-y,1/2-z
7 1/4+y,3/4+x,3/4-z
8 1/4-y,1/4-x,1/4-z
9 1/2+x,1/2+y,1/2+z
10 -x,1/2-y,z
11 3/4-y,1/4+x,3/4+z
12 3/4+y,3/4-x,1/4+z
13 -x,1/2+y,1/2-z
14 1/2+x,1/2-y,-z
15 3/4+y,1/4+x,1/4-z
16 3/4-y,3/4-x,3/4-z
17 -x,-y,-z
18 1/2+x,y,1/2-z
19 3/4+y,1/4-x,3/4-z
20 3/4-y,3/4+x,1/4-z
21 1/2+x,-y,z
22 -x,y,1/2+z
23 3/4-y,1/4-x,1/4+z
24 3/4+y,3/4+x,3/4+z
25 1/2-x,1/2-y,1/2-z
26 x,1/2+y,-z
27 1/4+y,3/4-x,1/4-z
28 1/4-y,1/4+x,3/4-z
29 x,1/2-y,1/2+z
30 1/2-x,1/2+y,z
31 1/4-y,3/4-x,3/4+z
32 1/4+y,1/4+x,1/4+z
_cell_length_a                   19.807(5)
_cell_length_b                   19.807(5)
_cell_length_c                   53.454(9)
_cell_angle_alpha                90
_cell_angle_beta                 90
_cell_angle_gamma                90
_cell_volume                     20970.9
loop_
_atom_site_label
_atom_site_type_symbol
_atom_site_fract_x
_atom_site_fract_y
_atom_site_fract_z
In1 In 0.756915(17) 0.006915(17) 0.1250
O1 O 0.7468(2) 0.1327(2) 0.11858(8)
O2 O 0.76273(16) 0.08033(18) 0.15421(7)
O3 O 0.74478(18) 0.39166(16) 0.12138(6)
O4 O 0.74086(15) 0.43837(15) 0.15830(5)
F1 F 0.65510(17) 0.3255(2) 0.22624(5)
F2 F 0.84490(16) 0.1805(2) 0.22430(5)
C1 C 0.7543(3) 0.1338(3) 0.14176(12)
C2 C 0.7439(3) 0.3866(2) 0.14486(9)
C3 C 0.7455(2) 0.3191(3) 0.15713(9)
C4 C 0.7468(2) 0.2595(2) 0.14343(10)
H1 H 0.7445 0.2608 0.1257
C5 C 0.7516(3) 0.1978(3) 0.15575(9)
C6 C 0.7543(3) 0.1964(3) 0.18147(10)
H2 H 0.7579 0.1541 0.1898
C7 C 0.7517(2) 0.2554(3) 0.19564(11)
C8 C 0.7479(2) 0.3172(3) 0.18317(9)
H3 H 0.7470 0.3580 0.1925
C9 C 0.7513(2) 0.2523(3) 0.22321(10)
C10 C 0.7028(3) 0.2877(4) 0.23747(10)
C11 C 0.7961(3) 0.2144(4) 0.23648(10)
In1S In 0.743085(17) 0.506915(17) 0.1250
In1V In 0.743085(17) 0.493085(17) 0.3750
In1E In 0.756915(17) -0.006915(17) 0.3750
O1X O 0.7532(2) 0.3673(2) 0.38142(8)
O1N O 0.8827(2) -0.0032(2) 0.13142(8)
O2X O 0.73727(16) 0.41967(18) 0.34579(7)
O2N O 0.83033(18) 0.01273(16) 0.09579(7)
O3X O 0.75522(18) 0.10834(16) 0.37862(6)
O3Z O 0.64166(16) 0.00522(18) 0.12862(6)
O3CA O 0.75522(18) -0.10834(16) 0.12138(6)
O4X O 0.75914(15) 0.06163(15) 0.34170(5)
O4Z O 0.68837(15) 0.00914(15) 0.09170(5)
O4CA O 0.75914(15) -0.06163(15) 0.15830(5)
F1X F 0.84490(17) 0.1745(2) 0.27376(5)
F2X F 0.65510(16) 0.3195(2) 0.27570(5)
C1X C 0.7457(3) 0.3662(3) 0.35824(12)
C2X C 0.7561(3) 0.1134(2) 0.35514(9)
C3X C 0.7545(2) 0.1809(3) 0.34287(9)
C4X C 0.7532(2) 0.2405(2) 0.35657(10)
H1X H 0.7555 0.2392 0.3743
C5X C 0.7484(3) 0.3022(3) 0.34425(9)
C6X C 0.7457(3) 0.3036(3) 0.31853(10)
H2X H 0.7421 0.3459 0.3102
C7X C 0.7483(2) 0.2446(3) 0.30436(11)
C8X C 0.7521(2) 0.1828(3) 0.31683(9)
H3X H 0.7530 0.1420 0.3075
C9X C 0.7487(2) 0.2477(3) 0.27679(10)
C10X C 0.7972(3) 0.2123(4) 0.26253(10)
C11X C 0.7039(3) 0.2856(4) 0.26352(10)
loop_
_geom_bond_atom_site_label_1
_geom_bond_atom_site_label_2
_geom_bond_site_symmetry_1
_geom_bond_site_symmetry_2
In1 O1 1_555 1_555
O1 C1 1_555 1_555
O2 In1 1_555 1_555
O3 C2 1_555 1_555
O4 C2 1_555 1_555
F1 C10 1_555 1_555
F2 C11 1_555 1_555
C1 O2 1_555 1_555
C2 C3 1_555 1_555
C3 C4 1_555 1_555
C4 H1 1_555 1_555
C5 C1 1_555 1_555
C6 C5 1_555 1_555
H2 C6 1_555 1_555
C7 C6 1_555 1_555
C8 C3 1_555 1_555
H3 C8 1_555 1_555
C9 C7 1_555 1_555
C10 C9 1_555 1_555
C11 C9 1_555 1_555
In1S O3 1_555 1_555
In1V O1X 1_555 1_555
In1E O3X 1_555 1_555
O1X C1X 1_555 1_555
O1N In1 1_555 1_555
O2X In1V 1_555 1_555
O2N In1 1_555 1_555
O3X C2X 1_555 1_555
O3Z In1 1_555 1_555
O3CA In1 1_555 1_555
O4X In1E 1_555 1_555
O4Z In1 1_555 1_555
O4CA In1 1_555 1_555
F1X C10X 1_555 1_555
F2X C11X 1_555 1_555
C1X O2X 1_555 1_555
C2X O4X 1_555 1_555
C3X C2X 1_555 1_555
C4X C3X 1_555 1_555
H1X C4X 1_555 1_555
C5X C1X 1_555 1_555
C6X C5X 1_555 1_555
H2X C6X 1_555 1_555
C7X C6X 1_555 1_555
C8X C3X 1_555 1_555
H3X C8X 1_555 1_555
C9X C7X 1_555 1_555
C10X C11 1_555 1_555
C11X C10 1_555 1_555
O4 In1S 1_555 1_555
C4 C5 1_555 1_555
C7 C8 1_555 1_555
C4X C5X 1_555 1_555
C7X C8X 1_555 1_555
C9X C10X 1_555 1_555
C9X C11X 1_555 1_555

#END
