
#######################################################################
#
#                 Cambridge Crystallographic Data Centre
#                                CCDC 
#
#######################################################################
#
# If this CIF has been generated from an entry in the Cambridge 
# Structural Database, then it will include bibliographic, chemical, 
# crystal, experimental, refinement or atomic coordinate data resulting 
# from the CCDC's data processing and validation procedures.
#
#######################################################################

data_IVEQEG
_symmetry_cell_setting           monoclinic
_symmetry_space_group_name_H-M   'C 2/m'
_symmetry_Int_Tables_number      12
_space_group_name_Hall           '-C 2y'
loop_
_symmetry_equiv_pos_site_id
_symmetry_equiv_pos_as_xyz
1 x,y,z
2 1/2+x,1/2+y,z
3 -x,y,-z
4 1/2-x,1/2+y,-z
5 -x,-y,-z
6 1/2-x,1/2-y,-z
7 x,-y,z
8 1/2+x,1/2-y,z
_cell_length_a                   18.947(2)
_cell_length_b                   6.915(1)
_cell_length_c                   11.295(1)
_cell_angle_alpha                90
_cell_angle_beta                 90.45(1)
_cell_angle_gamma                90
_cell_volume                     1479.81
loop_
_atom_site_label
_atom_site_type_symbol
_atom_site_fract_x
_atom_site_fract_y
_atom_site_fract_z
O2 O 0.025(2) 0.0000 0.824(3)
O3 O 0.0000 -0.313(1) 0.0000
P1 P 0.332(1) 0.0000 0.705(1)
P2 P 0.340(1) 0.0000 0.305(1)
O4 O 0.215(1) 0.0000 0.541(1)
O5 O 0.322(1) 0.175(3) 0.620(3)
O6 O 0.314(1) 0.162(3) 0.365(2)
O7 O 0.411(1) 0.0000 0.730(3)
O8 O 0.300(1) 0.0000 0.193(1)
N1 N 0.474(1) 0.0000 0.378(2)
C1 C 0.469(1) 0.176(3) 0.455(2)
C2 C 0.431(1) 0.0000 0.262(2)
N2 N 0.248(1) 0.154(1) 0.885(1)
C3 C 0.251(1) 0.0000 0.794(1)
C4 C 0.317(1) 0.201(5) 0.946(3)
C5 C 0.186(2) 0.142(5) 0.966(2)
Al1 Al 0.2500 0.2500 0.5000
O4C O 0.285(1) 0.5000 0.459(1)
O5F O 0.322(1) -0.175(3) 0.620(3)
O5E O 0.178(1) 0.325(3) 0.380(3)
O6F O 0.314(1) -0.162(3) 0.365(2)
O6E O 0.186(1) 0.338(3) 0.635(2)
C1F C 0.469(1) -0.176(3) 0.455(2)
C1B C 0.531(1) 0.176(3) 0.545(2)
N2F N 0.248(1) -0.154(1) 0.885(1)
C4E C 0.183(1) 0.299(5) 1.054(3)
C5E C 0.314(2) 0.358(5) 1.034(2)
Al1C Al 0.2500 -0.2500 0.5000
O1 O 0.421(1) 0.5000 0.695(3)
loop_
_geom_bond_atom_site_label_1
_geom_bond_atom_site_label_2
_geom_bond_site_symmetry_1
_geom_bond_site_symmetry_2
P1 O5 1_555 1_555
P2 O6 1_555 1_555
O4 Al1 1_555 1_555
O5 Al1 1_555 1_555
O6 Al1 1_555 1_555
O7 P1 1_555 1_555
O8 P2 1_555 1_555
N1 C1 1_555 1_555
C1 C1B 1_555 1_555
C2 P2 1_555 1_555
N2 C3 1_555 1_555
C3 P1 1_555 1_555
C4 N2 1_555 1_555
C5 N2 1_555 1_555
Al1 O4C 1_555 1_555
O5F P1 1_555 1_555
O5E Al1 1_555 1_555
O6F P2 1_555 1_555
O6E Al1 1_555 1_555
C1F N1 1_555 1_555
N2F C3 1_555 1_555
C4E C5 1_555 1_555
C5E C4 1_555 1_555
Al1C O4 1_555 1_555
N1 C2 1_555 1_555
O5F Al1C 1_555 1_555
O6F Al1C 1_555 1_555

#END
