
#######################################################################
#
#                 Cambridge Crystallographic Data Centre
#                                CCDC 
#
#######################################################################
#
# If this CIF has been generated from an entry in the Cambridge 
# Structural Database, then it will include bibliographic, chemical, 
# crystal, experimental, refinement or atomic coordinate data resulting 
# from the CCDC's data processing and validation procedures.
#
#######################################################################

data_IVEQAC
_symmetry_cell_setting           monoclinic
_symmetry_space_group_name_H-M   'C 2/m'
_symmetry_Int_Tables_number      12
_space_group_name_Hall           '-C 2y'
loop_
_symmetry_equiv_pos_site_id
_symmetry_equiv_pos_as_xyz
1 x,y,z
2 1/2+x,1/2+y,z
3 -x,y,-z
4 1/2-x,1/2+y,-z
5 -x,-y,-z
6 1/2-x,1/2-y,-z
7 x,-y,z
8 1/2+x,1/2-y,z
_cell_length_a                   19.415(2)
_cell_length_b                   7.071(1)
_cell_length_c                   11.483(1)
_cell_angle_alpha                90
_cell_angle_beta                 92.78(1)
_cell_angle_gamma                90
_cell_volume                     1574.57
loop_
_atom_site_label
_atom_site_type_symbol
_atom_site_fract_x
_atom_site_fract_y
_atom_site_fract_z
O6 O 0.400(1) 0.5000 0.307(3)
O7 O 0.002(1) 0.0000 0.840(2)
O8 O 0.0000 -0.307(2) 0.000
O9 O 0.371(2) 0.5000 0.704(4)
Ti1 Ti 0.2500 0.2500 0.500
P1 P 0.343(1) 0.0000 0.701(1)
P2 P 0.320(1) 0.0000 0.297(1)
O1 O 0.223(1) 0.0000 0.532(1)
O2 O 0.331(1) 0.182(2) 0.629(2)
O3 O 0.304(1) 0.158(2) 0.367(2)
O4 O 0.419(1) 0.0000 0.740(2)
O5 O 0.287(1) 0.0000 0.175(2)
N1 N 0.469(1) 0.0000 0.381(2)
C1 C 0.504(1) 0.178(2) 0.433(1)
C2 C 0.411(1) 0.0000 0.273(2)
N2 N 0.261(1) 0.195(3) 0.878(1)
C3 C 0.294(1) 0.0000 0.827(1)
C4 C 0.320(1) 0.270(4) 0.959(2)
C5 C 0.202(1) 0.111(3) 0.949(2)
Ti1C Ti 0.2500 -0.2500 0.500
Ti1C_2 Ti 0.2500 0.7500 0.500
Ti1_2 Ti 0.2500 -0.7500 0.500
P1C P 0.157(1) 0.5000 0.299(1)
P1C_2 P 0.157(1) -0.5000 0.299(1)
P2C P 0.180(1) 0.5000 0.703(1)
P2C_2 P 0.180(1) -0.5000 0.703(1)
O1C O 0.277(1) 0.5000 0.468(1)
O1C_2 O 0.277(1) -0.5000 0.468(1)
O1_2 O 0.223(1) 1.0000 0.532(1)
O2E O 0.169(1) 0.318(2) 0.371(2)
O2F O 0.331(1) -0.182(2) 0.629(2)
O2C O 0.169(1) -0.318(2) 0.371(2)
O2C_2 O 0.169(1) 0.682(2) 0.371(2)
O2F_2 O 0.331(1) 0.818(2) 0.629(2)
O3E O 0.196(1) 0.342(2) 0.633(2)
O3F O 0.304(1) -0.158(2) 0.367(2)
O3C O 0.196(1) -0.342(2) 0.633(2)
O3C_2 O 0.196(1) 0.658(2) 0.633(2)
O3F_2 O 0.304(1) 0.842(2) 0.367(2)
O4C O 0.081(1) 0.5000 0.260(2)
O5C O 0.213(1) 0.5000 0.825(2)
N1B N 0.531(1) 0.0000 0.619(2)
C1F C 0.504(1) -0.178(2) 0.433(1)
C1B C 0.496(1) 0.178(2) 0.567(1)
C1D C 0.496(1) -0.178(2) 0.567(1)
C2C C 0.089(1) 0.5000 0.727(2)
C2B C 0.589(1) 0.0000 0.727(2)
N2F N 0.261(1) -0.195(3) 0.878(1)
N2E N 0.239(1) 0.305(3) 1.122(1)
N2C N 0.239(1) 0.695(3) 1.122(1)
N2C_2 N 0.239(1) -0.305(3) 1.122(1)
C3C C 0.206(1) 0.5000 0.173(1)
C3C_2 C 0.206(1) 0.5000 1.173(1)
C4E C 0.180(1) 0.230(4) 1.041(2)
C4F C 0.320(1) -0.270(4) 0.959(2)
C4C C 0.180(1) -0.230(4) 1.041(2)
C4F_2 C 0.320(1) 0.730(4) 0.959(2)
C5E C 0.298(1) 0.389(3) 1.051(2)
C5F C 0.202(1) -0.111(3) 0.949(2)
C5C C 0.298(1) 0.611(3) 1.051(2)
C5C_2 C 0.298(1) -0.389(3) 1.051(2)
loop_
_geom_bond_atom_site_label_1
_geom_bond_atom_site_label_2
_geom_bond_site_symmetry_1
_geom_bond_site_symmetry_2
Ti1 O1 1_555 1_555
P1 O2 1_555 1_555
P2 O3 1_555 1_555
O1 Ti1C 1_555 1_555
O2 Ti1 1_555 1_555
O3 Ti1 1_555 1_555
O4 P1 1_555 1_555
O5 P2 1_555 1_555
N1 C1 1_555 1_555
C1 C1B 1_555 1_555
C2 P2 1_555 1_555
N2 C3 1_555 1_555
C3 P1 1_555 1_555
C4 N2 1_555 1_555
C5 N2 1_555 1_555
Ti1C O1C_2 1_555 1_555
Ti1C_2 O1C 1_555 1_555
Ti1_2 O1C_2 1_555 1_555
P1C O2E 1_555 1_555
P1C_2 O2C 1_555 1_555
P2C O3E 1_555 1_555
P2C_2 O3C 1_555 1_555
O1C Ti1 1_555 1_555
O1_2 Ti1C_2 1_555 1_555
O2E Ti1 1_555 1_555
O2F P1 1_555 1_555
O2C Ti1C 1_555 1_555
O2C_2 Ti1C_2 1_555 1_555
O2F_2 Ti1C_2 1_555 1_555
O3E Ti1 1_555 1_555
O3F P2 1_555 1_555
O3C Ti1C 1_555 1_555
O3C_2 Ti1C_2 1_555 1_555
O3F_2 Ti1C_2 1_555 1_555
O4C P1C 1_555 1_555
O5C P2C 1_555 1_555
N1B C1B 1_555 1_555
C1F N1 1_555 1_555
C1D N1B 1_555 1_555
C2C P2C 1_555 1_555
C2B N1B 1_555 1_555
N2F C3 1_555 1_555
N2E C3C_2 1_555 1_555
N2C C5C 1_555 1_555
N2C_2 C4C 1_555 1_555
C3C P1C 1_555 1_555
C4E C5 1_555 1_555
C4F N2F 1_555 1_555
C4C C5F 1_555 1_555
C4F_2 C5C 1_555 1_555
C5E C4 1_555 1_555
C5F C5 1_555 1_555
C5C C5E 1_555 1_555
C5C_2 C4F 1_555 1_555
N1 C2 1_555 1_555
Ti1C O2F 1_555 1_555
Ti1C O3F 1_555 1_555
P1C O2C_2 1_555 1_555
P2C O3C_2 1_555 1_555
C1F C1D 1_555 1_555
N2F C5F 1_555 1_555
N2E C4E 1_555 1_555
N2E C5E 1_555 1_555

#END
