
#######################################################################
#
#                 Cambridge Crystallographic Data Centre
#                                CCDC 
#
#######################################################################
#
# If this CIF has been generated from an entry in the Cambridge 
# Structural Database, then it will include bibliographic, chemical, 
# crystal, experimental, refinement or atomic coordinate data resulting 
# from the CCDC's data processing and validation procedures.
#
#######################################################################

data_IWELOM
_symmetry_cell_setting           tetragonal
_symmetry_space_group_name_H-M   'I 41/a'
_symmetry_Int_Tables_number      88
_space_group_name_Hall           '-I 4ad'
loop_
_symmetry_equiv_pos_site_id
_symmetry_equiv_pos_as_xyz
1 x,y,z
2 1/2-x,-y,1/2+z
3 3/4-y,1/4+x,1/4+z
4 3/4+y,3/4-x,3/4+z
5 1/2+x,1/2+y,1/2+z
6 -x,1/2-y,z
7 1/4-y,3/4+x,3/4+z
8 1/4+y,1/4-x,1/4+z
9 -x,-y,-z
10 1/2+x,y,1/2-z
11 1/4+y,3/4-x,3/4-z
12 1/4-y,1/4+x,1/4-z
13 1/2-x,1/2-y,1/2-z
14 x,1/2+y,-z
15 3/4+y,1/4-x,1/4-z
16 3/4-y,3/4+x,3/4-z
_cell_length_a                   20.7546(12)
_cell_length_b                   20.7546(12)
_cell_length_c                   8.4502(9)
_cell_angle_alpha                90
_cell_angle_beta                 90
_cell_angle_gamma                90
_cell_volume                     3639.95
loop_
_atom_site_label
_atom_site_type_symbol
_atom_site_fract_x
_atom_site_fract_y
_atom_site_fract_z
Co1 Co 0.0000 1.0000 0.0000
Co2 Co 0.00587(4) 1.04444(4) -0.36014(9)
O1 O 0.05380(19) 0.96973(19) -0.4524(5)
O2 O 0.05779(19) 1.04834(19) -0.1498(5)
O3 O -0.0421(2) 0.9681(2) -0.2125(5)
N1 N -0.1130(3) 0.8959(3) -0.1060(6)
H1 H -0.1059 0.9131 -0.0151
N2 N -0.1707(3) 0.8156(3) -0.2413(6)
N3 N -0.0660(3) 0.8900(3) -0.5252(6)
N4 N -0.1402(3) 0.8089(3) -0.5165(6)
C1 C -0.1567(4) 0.8472(3) -0.1115(8)
H2 H -0.1777 0.8357 -0.0185
C2 C -0.1359(3) 0.8349(3) -0.3709(7)
C3 C -0.0906(3) 0.8851(3) -0.3731(7)
C4 C -0.0787(3) 0.9206(3) -0.2344(8)
C5 C -0.0971(3) 0.8435(3) -0.6016(8)
H3 H -0.0896 0.8352 -0.7081
Co1C Co -0.2500 0.7500 -0.2500
Co1B Co -0.2500 1.2500 0.2500
Co2H Co -0.00587(4) 0.95556(4) 0.36014(9)
Co2H_2 Co -0.00587(4) 0.95556(4) -0.63986(9)
Co2C Co -0.20556(4) 0.74413(4) -0.61014(9)
Co2B Co -0.29444(4) 1.25587(4) -0.11014(9)
Co2N Co -0.20556(4) 1.24413(4) -0.38986(9)
O1H O -0.05380(19) 1.03027(19) -0.5476(5)
O1H_2 O -0.05380(19) 1.03027(19) 0.4524(5)
O1_2 O 0.05380(19) 0.96973(19) 0.5476(5)
O2H O -0.05779(19) 0.95166(19) 0.1498(5)
O3B O -0.2181(2) 1.2079(2) 0.0375(5)
O3H O 0.0421(2) 1.0319(2) 0.2125(5)
N1B N -0.1459(3) 1.1370(3) 0.1440(6)
H1B H -0.1631 1.1441 0.2349
N2B N -0.0656(3) 1.0793(3) 0.0087(6)
N2J N 0.0656(3) 0.9207(3) -0.0087(6)
N3B N -0.1400(3) 1.1840(3) -0.2752(6)
N3H N 0.0660(3) 1.1100(3) -0.4748(6)
N3_2 N -0.0660(3) 0.8900(3) 0.4748(6)
N4B N -0.0589(3) 1.1098(3) -0.2665(6)
N4J N 0.0589(3) 0.8902(3) 0.2665(6)
C1B C -0.0972(3) 1.0933(4) 0.1385(8)
H2B H -0.0857 1.0723 0.2315
C2B C -0.0849(3) 1.1141(3) -0.1209(7)
C3B C -0.1351(3) 1.1594(3) -0.1231(7)
C4B C -0.1706(3) 1.1713(3) 0.0156(8)
C5B C -0.0935(3) 1.1529(3) -0.3516(8)
H3B H -0.0852 1.1604 -0.4581
loop_
_geom_bond_atom_site_label_1
_geom_bond_atom_site_label_2
_geom_bond_site_symmetry_1
_geom_bond_site_symmetry_2
Co1 O2 1_555 1_555
Co2 O1 1_555 1_555
O1 Co2H_2 1_555 1_555
O2 Co2 1_555 1_555
O3 Co1 1_555 1_555
N1 H1 1_555 1_555
N2 C1 1_555 1_555
N3 C3 1_555 1_555
N4 C2 1_555 1_555
C1 N1 1_555 1_555
H2 C1 1_555 1_555
C2 N2 1_555 1_555
C3 C2 1_555 1_555
C4 O3 1_555 1_555
C5 N3 1_555 1_555
H3 C5 1_555 1_555
Co1C N2 1_555 1_555
Co1B O3B 1_555 1_555
Co2H O1H_2 1_555 1_555
Co2H_2 N3 1_555 1_555
Co2C N4 1_555 1_555
Co2B O3B 1_555 1_555
Co2N N3B 1_555 1_555
O1H Co2 1_555 1_555
O1_2 Co2H 1_555 1_555
O2H Co1 1_555 1_555
O3B C4B 1_555 1_555
O3H Co1 1_555 1_555
N1B H1B 1_555 1_555
N2B Co1 1_555 1_555
N2J Co1 1_555 1_555
N3B C3B 1_555 1_555
N3H Co2 1_555 1_555
N3_2 Co2H 1_555 1_555
N4B Co2 1_555 1_555
N4J Co2H 1_555 1_555
C1B N1B 1_555 1_555
H2B C1B 1_555 1_555
C2B N2B 1_555 1_555
C3B C2B 1_555 1_555
C4B N1B 1_555 1_555
C5B N3B 1_555 1_555
H3B C5B 1_555 1_555
Co2 O3 1_555 1_555
N1 C4 1_555 1_555
N4 C5 1_555 1_555
C3 C4 1_555 1_555
Co2H O2H 1_555 1_555
Co2H O3H 1_555 1_555
Co2H_2 O1H 1_555 1_555
N2B C1B 1_555 1_555
N4B C2B 1_555 1_555
N4B C5B 1_555 1_555
C3B C4B 1_555 1_555

#END
