
#######################################################################
#
#                 Cambridge Crystallographic Data Centre
#                                CCDC 
#
#######################################################################
#
# If this CIF has been generated from an entry in the Cambridge 
# Structural Database, then it will include bibliographic, chemical, 
# crystal, experimental, refinement or atomic coordinate data resulting 
# from the CCDC's data processing and validation procedures.
#
#######################################################################

data_IWOSUJ01
_symmetry_cell_setting           tetragonal
_symmetry_space_group_name_H-M   'P 4/n m m'
_symmetry_Int_Tables_number      129
_space_group_name_Hall           'P -4 -2 -1ab'
loop_
_symmetry_equiv_pos_site_id
_symmetry_equiv_pos_as_xyz
1 x,y,z
2 1/2-y,1/2+x,z
3 -x,-y,z
4 1/2+y,1/2-x,z
5 1/2+x,1/2-y,-z
6 y,x,-z
7 1/2-x,1/2+y,-z
8 -y,-x,-z
9 1/2-x,1/2-y,-z
10 y,-x,-z
11 1/2+x,1/2+y,-z
12 -y,x,-z
13 -x,y,z
14 1/2-y,1/2-x,z
15 x,-y,z
16 1/2+y,1/2+x,z
_cell_length_a                   9.9197(3)
_cell_length_b                   9.9197(3)
_cell_length_c                   6.3434(2)
_cell_angle_alpha                90
_cell_angle_beta                 90
_cell_angle_gamma                90
_cell_volume                     624.193
loop_
_atom_site_label
_atom_site_type_symbol
_atom_site_fract_x
_atom_site_fract_y
_atom_site_fract_z
Ni1 Ni 0.00000 0.00000 0.00000
F1 F 0.00000 0.00000 0.32578(41)
N1 N 0.15047(19) 0.15047(19) 0.00000
C1 C 0.22268(24) 0.17520(21) 0.16735(38)
H1 H 0.20153 0.1225 0.290239
H2 H 0.000 0.000 0.500
Ni1_2 Ni 0.00000 0.00000 1.00000
Ni1A Ni 0.50000 0.50000 0.00000
Ni1A_2 Ni 0.50000 -0.50000 0.00000
F1E F 0.00000 0.00000 0.67422(41)
F1E_2 F 0.00000 0.00000 -0.32578(41)
N1H N 0.34953(19) 0.34953(19) 0.00000
N1I N 0.15047(19) -0.15047(19) 0.00000
N1A N 0.34953(19) -0.34953(19) 0.00000
N1K N -0.15047(19) 0.15047(19) 0.00000
N1B N -0.15047(19) -0.15047(19) 0.00000
C1M C 0.32480(21) 0.27732(24) 0.16735(38)
C1H C 0.27732(24) 0.32480(21) -0.16735(38)
C1E C 0.17520(21) 0.22268(24) -0.16735(38)
C1I C 0.17520(21) -0.22268(24) -0.16735(38)
C1F C 0.27732(24) -0.32480(21) -0.16735(38)
C1A C 0.32480(21) -0.27732(24) 0.16735(38)
C1N C 0.22268(24) -0.17520(21) 0.16735(38)
H1H H 0.29847 0.3775 -0.290239
H1E H 0.1225 0.20153 -0.290239
H1M H 0.3775 0.29847 0.290239
H1I H 0.1225 -0.20153 -0.290239
H1A H 0.3775 -0.29847 0.290239
H1N H 0.20153 -0.1225 0.290239
H1F H 0.29847 -0.3775 -0.290239
P1 P 0.00000 0.50000 0.39102(46)
F2 F 0.00000 0.3404(2) 0.4015(3)
F3 F 0.00000 0.50000 0.64008(88)
F4 F 0.00000 0.50000 0.14707(68)
F2A F 0.1596(2) 0.50000 0.4015(3)
F2B F 0.00000 0.6596(2) 0.4015(3)
F2C F -0.1596(2) 0.50000 0.4015(3)
loop_
_geom_bond_atom_site_label_1
_geom_bond_atom_site_label_2
_geom_bond_site_symmetry_1
_geom_bond_site_symmetry_2
Ni1 F1 1_555 1_555
F1 H2 1_555 1_555
N1 Ni1 1_555 1_555
P1 F2 1_555 1_555
F3 P1 1_555 1_555
F4 P1 1_555 1_555
C1 N1 1_555 1_555
H1 C1 1_555 1_555
H2 F1E 1_555 1_555
Ni1_2 F1E 1_555 1_555
Ni1A N1H 1_555 1_555
Ni1A_2 N1A 1_555 1_555
F1E_2 Ni1 1_555 1_555
N1H C1M 1_555 1_555
N1I Ni1 1_555 1_555
N1A C1F 1_555 1_555
N1K Ni1 1_555 1_555
N1B Ni1 1_555 1_555
F2A P1 1_555 1_555
F2B P1 1_555 1_555
F2C P1 1_555 1_555
C1M C1 1_555 1_555
C1H N1H 1_555 1_555
C1E N1 1_555 1_555
C1I N1I 1_555 1_555
C1F C1I 1_555 1_555
C1A N1A 1_555 1_555
C1N N1I 1_555 1_555
H1H C1H 1_555 1_555
H1E C1E 1_555 1_555
H1M C1M 1_555 1_555
H1I C1I 1_555 1_555
H1A C1A 1_555 1_555
H1N C1N 1_555 1_555
H1F C1F 1_555 1_555
C1H C1E 1_555 1_555
C1A C1N 1_555 1_555

#END
