
#######################################################################
#
#                 Cambridge Crystallographic Data Centre
#                                CCDC 
#
#######################################################################
#
# If this CIF has been generated from an entry in the Cambridge 
# Structural Database, then it will include bibliographic, chemical, 
# crystal, experimental, refinement or atomic coordinate data resulting 
# from the CCDC's data processing and validation procedures.
#
#######################################################################

data_IXISUD
_symmetry_cell_setting           hexagonal
_symmetry_space_group_name_H-M   'P 63/m m c'
_symmetry_Int_Tables_number      194
_space_group_name_Hall           "-P 6c 2'c"
loop_
_symmetry_equiv_pos_site_id
_symmetry_equiv_pos_as_xyz
1 x,y,z
2 -y,x-y,z
3 -x+y,-x,z
4 y,-x+y,1/2+z
5 x-y,x,1/2+z
6 y,x,-z
7 -x+y,y,1/2-z
8 x,x-y,1/2-z
9 x,y,1/2-z
10 -x+y,y,z
11 x,x-y,z
12 y,x,1/2+z
13 -x,-y,-z
14 y,-x+y,-z
15 x-y,x,-z
16 -y,x-y,1/2-z
17 -x+y,-x,1/2-z
18 -y,-x,z
19 x-y,-y,1/2+z
20 -x,-x+y,1/2+z
21 -x,-y,1/2+z
22 x-y,-y,-z
23 -x,-x+y,-z
24 -y,-x,1/2-z
_cell_length_a                   20.463(2)
_cell_length_b                   20.463(2)
_cell_length_c                   17.989(2)
_cell_angle_alpha                90
_cell_angle_beta                 90
_cell_angle_gamma                120
_cell_volume                     6523.43
loop_
_atom_site_label
_atom_site_type_symbol
_atom_site_fract_x
_atom_site_fract_y
_atom_site_fract_z
Cu2 Cu 0.59578(6) 0.19155(12) 0.7500
I3 I 0.52485(5) 0.26242(3) 0.7500
I4 I 0.52490(4) 0.04981(8) 0.7500
I3A I 0.73758(3) 0.26243(6) 0.7500
Cu2A Cu 0.80845(12) 0.40423(13) 0.7500
Cu2B Cu 0.59577(13) 0.40422(6) 0.7500
I3B I 0.73757(6) 0.47515(5) 0.7500
I4A I 0.95019(8) 0.47509(9) 0.7500
I4B I 0.52491(9) 0.47510(4) 0.7500
N4 N 0.0000 0.0000 0.289(4)
C10 C 0.0000 0.0000 0.349(5)
C11 C 0.0000 0.0000 0.440(5)
N4F N 0.0000 0.0000 0.211(4)
C10F C 0.0000 0.0000 0.151(5)
C11F C 0.0000 0.0000 0.060(5)
Cu1 Cu 0.09222(4) 0.34004(4) 0.48494(3)
Cu3 Cu -0.12343(7) 0.12343(7) 0.42372(13)
I1 I 0.0000 0.19454(3) 0.5000
I2 I -0.194890(17) 0.19489(3) 0.40782(3)
N1 N 0.1358(2) 0.3398(2) 0.3820(2)
N2 N 0.0377(2) 0.4019(2) 0.4894(2)
N3 N -0.0976(8) 0.0976(8) 0.3221(8)
C1 C 0.0997(3) 0.3326(3) 0.3189(3)
C2 C 0.1311(4) 0.3292(4) 0.2500
C3 C 0.0264(3) 0.3330(4) 0.3208(3)
H1 H 0.0365 0.3841 0.3244
H2 H -0.0020 0.3060 0.3638
C4 C -0.0198(4) 0.2962(6) 0.2500
H3 H -0.0642 0.3009 0.2500
H4 H -0.0356 0.2435 0.2500
C5 C 0.0738(3) 0.4762(3) 0.4775(3)
C6 C 0.0372(4) 0.51859(19) 0.4880(4)
C7 C 0.1540(3) 0.5148(3) 0.4510(4)
H5 H 0.1546 0.5093 0.3980
H6 H 0.1794 0.4909 0.4730
C8 C 0.1957(5) 0.5978(3) 0.4707(7)
H7 H 0.2435 0.6218 0.4456
H8 H 0.2055 0.6028 0.5232
C9 C -0.0904(8) 0.0904(8) 0.2500
N1I N 0.2040(3) 0.3398(2) 0.3820(2)
C1I C 0.2329(4) 0.3326(3) 0.3189(3)
C2I C 0.1981(6) 0.3292(4) 0.2500
C1F C 0.2329(4) 0.3326(3) 0.1811(3)
N1F N 0.2040(3) 0.3398(2) 0.1180(2)
N1H N 0.1358(2) 0.3398(2) 0.1180(2)
C1H C 0.0997(3) 0.3326(3) 0.1811(3)
C3H C 0.0264(3) 0.3330(4) 0.1792(3)
H1H H 0.0365 0.3841 0.1756
H2H H -0.0020 0.3060 0.1362
C3F C 0.3066(5) 0.3330(4) 0.1792(3)
H1F H 0.3476 0.3841 0.1756
H2F H 0.3080 0.3060 0.1362
C4F C 0.3160(7) 0.2962(6) 0.2500
C3I C 0.3066(5) 0.3330(4) 0.3208(3)
H1I H 0.3476 0.3841 0.3244
H2I H 0.3080 0.3060 0.3638
H3F H 0.3651 0.3009 0.2500
H4F H 0.2791 0.2435 0.2500
N2V N -0.0377(2) 0.3642(3) 0.5106(2)
C5V C -0.0738(3) 0.4024(4) 0.5225(3)
C6V C -0.0372(4) 0.48139(44) 0.5120(4)
C5L C -0.0738(3) 0.5238(3) 0.5225(3)
N2L N -0.0377(2) 0.5981(2) 0.5106(2)
N2J N 0.0377(2) 0.6358(3) 0.4894(2)
C5J C 0.0738(3) 0.5976(4) 0.4775(3)
C7J C 0.1540(3) 0.6392(4) 0.4510(4)
H5J H 0.1546 0.6453 0.3980
H6J H 0.1794 0.6885 0.4730
C7L C -0.1540(3) 0.4852(3) 0.5490(4)
H5L H -0.1546 0.4907 0.6020
H6L H -0.1794 0.5091 0.5270
C8L C -0.1957(5) 0.4022(3) 0.5293(7)
C7V C -0.1540(3) 0.3608(4) 0.5490(4)
H5V H -0.1546 0.3547 0.6020
H6V H -0.1794 0.3115 0.5270
H7L H -0.2435 0.3782 0.5544
H8L H -0.2055 0.3972 0.4768
N3H N -0.0976(8) 0.0976(8) 0.1779(8)
I1N I -0.19454(3) 0.0000 0.5000
Cu3N Cu -0.24686(10) -0.12343(7) 0.57628(13)
Cu3M Cu 0.12343(7) 0.24686(10) 0.57628(13)
Cu3H Cu -0.12343(7) 0.12343(7) 0.07628(13)
Cu1N Cu -0.24782(6) 0.09222(4) 0.51506(3)
Cu1V Cu -0.09222(4) 0.24782(6) 0.51506(3)
Cu1Q Cu -0.34004(4) -0.09222(4) 0.48494(3)
I2M I 0.19489(3) 0.389780(34) 0.59218(3)
I1A I -0.19454(3) -0.19454(3) 0.5000
I2N I -0.389780(34) -0.194890(17) 0.59218(3)
N3N N -0.1952(11) -0.0976(8) 0.6779(8)
C9N C -0.1808(11) -0.0904(8) 0.7500
N3D N -0.1952(11) -0.0976(8) 0.8221(8)
I1M I 0.19454(3) 0.19454(3) 0.5000
N3M N 0.0976(8) 0.1952(11) 0.6779(8)
C9M C 0.0904(8) 0.1808(11) 0.7500
N3C N 0.0976(8) 0.1952(11) 0.8221(8)
I1H I 0.0000 0.19454(3) 0.0000
I1D I -0.19454(3) 0.0000 0.0000
I2H I -0.194890(17) 0.19489(3) 0.09218(3)
N1N N -0.2040(3) 0.1358(2) 0.6180(2)
C1N C -0.2329(4) 0.0997(3) 0.6811(3)
C2N C -0.1981(6) 0.1311(4) 0.7500
C3N C -0.3066(5) 0.0264(3) 0.6792(3)
H1N H -0.3476 0.0365 0.6756
H2N H -0.3080 -0.0020 0.6362
C4N C -0.3160(7) -0.0198(4) 0.7500
H3N H -0.3651 -0.0642 0.7500
H4N H -0.2791 -0.0356 0.7500
N1V N -0.1358(2) 0.2040(3) 0.6180(2)
C1V C -0.0997(3) 0.2329(4) 0.6811(3)
C2V C -0.1311(4) 0.1981(6) 0.7500
C1S C -0.0997(3) 0.2329(4) 0.8189(3)
N1S N -0.1358(2) 0.2040(3) 0.8820(2)
N1D N -0.2040(3) 0.1358(2) 0.8820(2)
C1D C -0.2329(4) 0.0997(3) 0.8189(3)
C3D C -0.3066(5) 0.0264(3) 0.8208(3)
H1D H -0.3476 0.0365 0.8244
H2D H -0.3080 -0.0020 0.8638
C3S C -0.0264(3) 0.3066(5) 0.8208(3)
H1S H -0.0365 0.3476 0.8244
H2S H 0.0020 0.3080 0.8638
C4S C 0.0198(4) 0.3160(7) 0.7500
C3V C -0.0264(3) 0.3066(5) 0.6792(3)
H1V H -0.0365 0.3476 0.6756
H2V H 0.0020 0.3080 0.6362
H3S H 0.0642 0.3651 0.7500
H4S H 0.0356 0.2791 0.7500
N2N N -0.3642(3) 0.0377(2) 0.5106(2)
C5N C -0.4024(4) 0.0738(3) 0.5225(3)
C6N C -0.48139(44) 0.0372(4) 0.5120(4)
C7N C -0.3608(4) 0.1540(3) 0.5490(4)
H5N H -0.3547 0.1546 0.6020
H6N H -0.3115 0.1794 0.5270
C8N C -0.4021(6) 0.1957(5) 0.5293(7)
H7N H -0.3783 0.2435 0.5544
H8N H -0.3973 0.2055 0.4768
N2Q N -0.4019(2) -0.0377(2) 0.4894(2)
C5Q C -0.4762(3) -0.0738(3) 0.4775(3)
C6Q C -0.51859(19) -0.0372(4) 0.4880(4)
C5B C -0.5976(4) -0.0738(3) 0.4775(3)
N2B N -0.6358(3) -0.0377(2) 0.4894(2)
N2E N -0.5981(2) 0.0377(2) 0.5106(2)
C5E C -0.5238(3) 0.0738(3) 0.5225(3)
C7E C -0.4852(3) 0.1540(3) 0.5490(4)
H5E H -0.4907 0.1546 0.6020
H6E H -0.5091 0.1794 0.5270
C7B C -0.6392(4) -0.1540(3) 0.4510(4)
H5B H -0.6453 -0.1546 0.3980
H6B H -0.6885 -0.1794 0.4730
C8B C -0.5979(6) -0.1957(5) 0.4707(7)
C7Q C -0.5148(3) -0.1540(3) 0.4510(4)
H5Q H -0.5093 -0.1546 0.3980
H6Q H -0.4909 -0.1794 0.4730
H7B H -0.6217 -0.2435 0.4456
H8B H -0.6027 -0.2055 0.5232
N1Q N -0.3398(2) -0.1358(2) 0.3820(2)
C1Q C -0.3326(3) -0.0997(3) 0.3189(3)
C2Q C -0.3292(4) -0.1311(4) 0.2500
C3Q C -0.3330(4) -0.0264(3) 0.3208(3)
H1Q H -0.3841 -0.0365 0.3244
H2Q H -0.3060 0.0020 0.3638
C4Q C -0.2962(6) 0.0198(4) 0.2500
H3Q H -0.3009 0.0642 0.2500
H4Q H -0.2435 0.0356 0.2500
N1A N -0.3398(2) -0.2040(3) 0.3820(2)
C1A C -0.3326(3) -0.2329(4) 0.3189(3)
C2A C -0.3292(4) -0.1981(6) 0.2500
C1O C -0.3326(3) -0.2329(4) 0.1811(3)
N1O N -0.3398(2) -0.2040(3) 0.1180(2)
N1W N -0.3398(2) -0.1358(2) 0.1180(2)
C1W C -0.3326(3) -0.0997(3) 0.1811(3)
C3W C -0.3330(4) -0.0264(3) 0.1792(3)
H1W H -0.3841 -0.0365 0.1756
H2W H -0.3060 0.0020 0.1362
C3O C -0.3330(4) -0.3066(5) 0.1792(3)
H1O H -0.3841 -0.3476 0.1756
H2O H -0.3060 -0.3080 0.1362
C4O C -0.2962(6) -0.3160(7) 0.2500
C3A C -0.3330(4) -0.3066(5) 0.3208(3)
H1A H -0.3841 -0.3476 0.3244
H2A H -0.3060 -0.3080 0.3638
H3O H -0.3009 -0.3651 0.2500
H4O H -0.2435 -0.2791 0.2500
Cu3A Cu -0.12343(7) -0.24686(10) 0.42372(13)
Cu3D Cu -0.24686(10) -0.12343(7) -0.07628(13)
Cu1A Cu -0.34004(4) -0.24782(6) 0.48494(3)
Cu1M Cu 0.34004(4) 0.24782(6) 0.51506(3)
Cu1H Cu 0.09222(4) 0.34004(4) 0.01506(3)
Cu1D Cu -0.24782(6) 0.09222(4) -0.01506(3)
Cu1U Cu -0.24782(6) -0.34004(4) 0.51506(3)
Cu1I Cu 0.24782(6) 0.34004(4) 0.48494(3)
Cu1S Cu -0.09222(4) 0.24782(6) -0.01506(3)
Cu1W Cu -0.34004(4) -0.09222(4) 0.01506(3)
I2A I -0.19489(3) -0.389780(34) 0.40782(3)
I2D I -0.389780(34) -0.194890(17) -0.09218(3)
N2A N -0.4019(2) -0.3642(3) 0.4894(2)
C5A C -0.4762(3) -0.4024(4) 0.4775(3)
C6A C -0.51859(19) -0.48139(44) 0.4880(4)
C7A C -0.5148(3) -0.3608(4) 0.4510(4)
H5A H -0.5093 -0.3547 0.3980
H6A H -0.4909 -0.3115 0.4730
C8A C -0.5978(3) -0.4021(6) 0.4707(7)
H7A H -0.6218 -0.3783 0.4456
H8A H -0.6028 -0.3973 0.5232
N2U N -0.3642(3) -0.4019(2) 0.5106(2)
C5U C -0.4024(4) -0.4762(3) 0.5225(3)
C6U C -0.48139(44) -0.51859(19) 0.5120(4)
C5M C -0.5238(3) -0.5976(4) 0.5225(3)
N2M N -0.5981(2) -0.6358(3) 0.5106(2)
N2I N -0.6358(3) -0.5981(2) 0.4894(2)
C5I C -0.5976(4) -0.5238(3) 0.4775(3)
C7I C -0.6392(4) -0.4852(3) 0.4510(4)
H5I H -0.6453 -0.4907 0.3980
H6I H -0.6885 -0.5091 0.4730
C7M C -0.4852(3) -0.6392(4) 0.5490(4)
H5M H -0.4907 -0.6453 0.6020
H6M H -0.5091 -0.6885 0.5270
C8M C -0.4022(3) -0.5979(6) 0.5293(7)
C7U C -0.3608(4) -0.5148(3) 0.5490(4)
H5U H -0.3547 -0.5093 0.6020
H6U H -0.3115 -0.4909 0.5270
H7M H -0.3782 -0.6217 0.5544
H8M H -0.3972 -0.6027 0.4768
Cu1F Cu 0.24782(6) 0.34004(4) 0.01506(3)
Cu1L Cu -0.09222(4) 0.65996(4) 0.51506(3)
Cu1J Cu 0.09222(4) 0.75218(6) 0.48494(3)
Cu3D_2 Cu -0.24686(10) -0.12343(7) 0.92372(13)
Cu3B Cu 0.24686(10) 0.12343(7) 0.42372(13)
Cu3C Cu 0.12343(7) 0.24686(10) 0.92372(13)
Cu3C_2 Cu 0.12343(7) 0.24686(10) -0.07628(13)
Cu1S_2 Cu -0.09222(4) 0.24782(6) 0.98494(3)
Cu1D_2 Cu -0.24782(6) 0.09222(4) 0.98494(3)
Cu1B Cu -0.75218(6) -0.09222(4) 0.48494(3)
Cu1E Cu -0.65996(4) 0.09222(4) 0.51506(3)
Cu1O Cu -0.34004(4) -0.24782(6) 0.01506(3)
I1J I 0.0000 -0.19454(3) 0.5000
N3A N -0.0976(8) -0.1952(11) 0.3221(8)
I1O I -0.19454(3) -0.19454(3) 0.0000
N3D_2 N -0.1952(11) -0.0976(8) -0.1779(8)
I2B I 0.389780(34) 0.194890(17) 0.40782(3)
N1M N 0.3398(2) 0.2040(3) 0.6180(2)
N2M_2 N 0.4019(2) 0.3642(3) 0.5106(2)
I2C I 0.19489(3) 0.389780(34) -0.09218(3)
N2H N 0.0377(2) 0.4019(2) 0.0106(2)
N1D_2 N -0.2040(3) 0.1358(2) -0.1180(2)
N2D N -0.3642(3) 0.0377(2) -0.0106(2)
N1U N -0.2040(3) -0.3398(2) 0.6180(2)
N2I_2 N 0.3642(3) 0.4019(2) 0.4894(2)
N1S_2 N -0.1358(2) 0.2040(3) -0.1180(2)
N2S N -0.0377(2) 0.3642(3) -0.0106(2)
N2W N -0.4019(2) -0.0377(2) 0.0106(2)
Cu1L_2 Cu -0.09222(4) -0.34004(4) 0.51506(3)
Cu1M_2 Cu -0.65996(4) -0.75218(6) 0.51506(3)
Cu1I_2 Cu -0.75218(6) -0.65996(4) 0.48494(3)
loop_
_geom_bond_atom_site_label_1
_geom_bond_atom_site_label_2
_geom_bond_site_symmetry_1
_geom_bond_site_symmetry_2
Cu1 I1 1_555 1_555
Cu2 I3 1_555 1_555
Cu3 I1 1_555 1_555
I1 Cu3M 1_555 1_555
I2 Cu3 1_555 1_555
I3 Cu2B 1_555 1_555
I4 Cu2 1_555 1_555
N1 Cu1 1_555 1_555
N2 Cu1 1_555 1_555
N3 Cu3 1_555 1_555
C1 N1 1_555 1_555
C2 C1 1_555 1_555
C3 C1 1_555 1_555
H1 C3 1_555 1_555
H2 C3 1_555 1_555
C4 C3 1_555 1_555
H3 C4 1_555 1_555
H4 C4 1_555 1_555
C5 N2 1_555 1_555
C6 C5 1_555 1_555
C7 C5 1_555 1_555
H5 C7 1_555 1_555
H6 C7 1_555 1_555
C8 C7 1_555 1_555
H7 C8 1_555 1_555
H8 C8 1_555 1_555
C9 N3 1_555 1_555
N4 C10 1_555 1_555
C10 C11 1_555 1_555
N1I N1 1_555 1_555
C1I N1I 1_555 1_555
C2I C2 1_555 1_555
C1F C2I 1_555 1_555
N1F C1F 1_555 1_555
N1H N1F 1_555 1_555
C1H C2 1_555 1_555
C3H C4 1_555 1_555
H1H C3H 1_555 1_555
H2H C3H 1_555 1_555
C3F C1F 1_555 1_555
H1F C3F 1_555 1_555
H2F C3F 1_555 1_555
C4F C3F 1_555 1_555
C3I C1I 1_555 1_555
H1I C3I 1_555 1_555
H2I C3I 1_555 1_555
H3F C4F 1_555 1_555
H4F C4F 1_555 1_555
N2V N2 1_555 1_555
C5V N2V 1_555 1_555
C6V C6 1_555 1_555
C5L C6V 1_555 1_555
N2L C5L 1_555 1_555
N2J N2L 1_555 1_555
C5J C6 1_555 1_555
C7J C8 1_555 1_555
H5J C7J 1_555 1_555
H6J C7J 1_555 1_555
C7L C5L 1_555 1_555
H5L C7L 1_555 1_555
H6L C7L 1_555 1_555
C8L C7L 1_555 1_555
C7V C5V 1_555 1_555
H5V C7V 1_555 1_555
H6V C7V 1_555 1_555
H7L C8L 1_555 1_555
H8L C8L 1_555 1_555
N3H C9 1_555 1_555
N4F N4 1_555 1_555
C10F N4F 1_555 1_555
C11F C10F 1_555 1_555
I3A Cu2 1_555 1_555
Cu2A I3A 1_555 1_555
Cu2B I3B 1_555 1_555
I3B Cu2A 1_555 1_555
I4A Cu2A 1_555 1_555
I4B Cu2B 1_555 1_555
I1N Cu3 1_555 1_555
Cu3N I1N 1_555 1_555
Cu3M I2M 1_555 1_555
Cu3H N3H 1_555 1_555
Cu1N I2 1_555 1_555
Cu1V I1 1_555 1_555
Cu1Q I1N 1_555 1_555
I2M Cu1 1_555 1_555
I1A Cu3N 1_555 1_555
I2N Cu3N 1_555 1_555
N3N Cu3N 1_555 1_555
C9N N3N 1_555 1_555
N3D C9N 1_555 1_555
I1M Cu3M 1_555 1_555
N3M Cu3M 1_555 1_555
C9M N3M 1_555 1_555
N3C C9M 1_555 1_555
I1H Cu3H 1_555 1_555
I1D Cu3H 1_555 1_555
I2H Cu3H 1_555 1_555
N1N Cu1N 1_555 1_555
C1N N1N 1_555 1_555
C2N C1N 1_555 1_555
C3N C1N 1_555 1_555
H1N C3N 1_555 1_555
H2N C3N 1_555 1_555
C4N C3N 1_555 1_555
H3N C4N 1_555 1_555
H4N C4N 1_555 1_555
N1V Cu1V 1_555 1_555
C1V N1V 1_555 1_555
C2V C2N 1_555 1_555
C1S C2V 1_555 1_555
N1S C1S 1_555 1_555
N1D N1S 1_555 1_555
C1D C2N 1_555 1_555
C3D C4N 1_555 1_555
H1D C3D 1_555 1_555
H2D C3D 1_555 1_555
C3S C1S 1_555 1_555
H1S C3S 1_555 1_555
H2S C3S 1_555 1_555
C4S C3S 1_555 1_555
C3V C1V 1_555 1_555
H1V C3V 1_555 1_555
H2V C3V 1_555 1_555
H3S C4S 1_555 1_555
H4S C4S 1_555 1_555
N2N Cu1N 1_555 1_555
C5N N2N 1_555 1_555
C6N C5N 1_555 1_555
C7N C5N 1_555 1_555
H5N C7N 1_555 1_555
H6N C7N 1_555 1_555
C8N C7N 1_555 1_555
H7N C8N 1_555 1_555
H8N C8N 1_555 1_555
N2Q Cu1Q 1_555 1_555
C5Q N2Q 1_555 1_555
C6Q C6N 1_555 1_555
C5B C6Q 1_555 1_555
N2B C5B 1_555 1_555
N2E N2B 1_555 1_555
C5E C6N 1_555 1_555
C7E C8N 1_555 1_555
H5E C7E 1_555 1_555
H6E C7E 1_555 1_555
C7B C5B 1_555 1_555
H5B C7B 1_555 1_555
H6B C7B 1_555 1_555
C8B C7B 1_555 1_555
C7Q C5Q 1_555 1_555
H5Q C7Q 1_555 1_555
H6Q C7Q 1_555 1_555
H7B C8B 1_555 1_555
H8B C8B 1_555 1_555
N1Q Cu1Q 1_555 1_555
C1Q N1Q 1_555 1_555
C2Q C1Q 1_555 1_555
C3Q C1Q 1_555 1_555
H1Q C3Q 1_555 1_555
H2Q C3Q 1_555 1_555
C4Q C3Q 1_555 1_555
H3Q C4Q 1_555 1_555
H4Q C4Q 1_555 1_555
N1A N1Q 1_555 1_555
C1A N1A 1_555 1_555
C2A C2Q 1_555 1_555
C1O C2A 1_555 1_555
N1O C1O 1_555 1_555
N1W N1O 1_555 1_555
C1W C2Q 1_555 1_555
C3W C4Q 1_555 1_555
H1W C3W 1_555 1_555
H2W C3W 1_555 1_555
C3O C1O 1_555 1_555
H1O C3O 1_555 1_555
H2O C3O 1_555 1_555
C4O C3O 1_555 1_555
C3A C1A 1_555 1_555
H1A C3A 1_555 1_555
H2A C3A 1_555 1_555
H3O C4O 1_555 1_555
H4O C4O 1_555 1_555
Cu3A I1A 1_555 1_555
Cu3D I1D 1_555 1_555
Cu1A I1A 1_555 1_555
Cu1M I1M 1_555 1_555
Cu1H N1H 1_555 1_555
Cu1D I1D 1_555 1_555
Cu1U I1A 1_555 1_555
Cu1I N1I 1_555 1_555
Cu1S I1H 1_555 1_555
Cu1W I1D 1_555 1_555
I2A Cu3A 1_555 1_555
I2D Cu3D 1_555 1_555
N2A Cu1A 1_555 1_555
C5A N2A 1_555 1_555
C6A C5A 1_555 1_555
C7A C5A 1_555 1_555
H5A C7A 1_555 1_555
H6A C7A 1_555 1_555
C8A C7A 1_555 1_555
H7A C8A 1_555 1_555
H8A C8A 1_555 1_555
N2U Cu1U 1_555 1_555
C5U N2U 1_555 1_555
C6U C6A 1_555 1_555
C5M C6U 1_555 1_555
N2M C5M 1_555 1_555
N2I N2M 1_555 1_555
C5I C6A 1_555 1_555
C7I C8A 1_555 1_555
H5I C7I 1_555 1_555
H6I C7I 1_555 1_555
C7M C5M 1_555 1_555
H5M C7M 1_555 1_555
H6M C7M 1_555 1_555
C8M C7M 1_555 1_555
C7U C5U 1_555 1_555
H5U C7U 1_555 1_555
H6U C7U 1_555 1_555
H7M C8M 1_555 1_555
H8M C8M 1_555 1_555
Cu1F N1F 1_555 1_555
Cu1L N2L 1_555 1_555
Cu1J N2J 1_555 1_555
Cu3D_2 N3D 1_555 1_555
Cu3B I1M 1_555 1_555
Cu3C N3C 1_555 1_555
Cu3C_2 I1H 1_555 1_555
Cu1S_2 N1S 1_555 1_555
Cu1D_2 N1D 1_555 1_555
Cu1B N2B 1_555 1_555
Cu1E N2E 1_555 1_555
Cu1O N1O 1_555 1_555
I1J Cu3A 1_555 1_555
N3A Cu3A 1_555 1_555
I1O Cu3D 1_555 1_555
N3D_2 Cu3D 1_555 1_555
I2B Cu1M 1_555 1_555
N1M Cu1M 1_555 1_555
N2M_2 Cu1M 1_555 1_555
I2C Cu1H 1_555 1_555
N2H Cu1H 1_555 1_555
N1D_2 Cu1D 1_555 1_555
N2D Cu1D 1_555 1_555
N1U Cu1U 1_555 1_555
N2I_2 Cu1I 1_555 1_555
N1S_2 Cu1S 1_555 1_555
N2S Cu1S 1_555 1_555
N2W Cu1W 1_555 1_555
Cu1L_2 I2A 1_555 1_555
Cu1M_2 N2M 1_555 1_555
Cu1I_2 N2I 1_555 1_555
I2 Cu1V 1_555 1_555
C1I C2I 1_555 1_555
N1H C1H 1_555 1_555
C1H C3H 1_555 1_555
C4F C3I 1_555 1_555
N2V Cu1V 1_555 1_555
C5V C6V 1_555 1_555
N2J C5J 1_555 1_555
C5J C7J 1_555 1_555
C8L C7V 1_555 1_555
I1N Cu1N 1_555 1_555
Cu1Q I2N 1_555 1_555
I2M Cu1I 1_555 1_555
I2N Cu1A 1_555 1_555
I1M Cu1I 1_555 1_555
I1H Cu1H 1_555 1_555
I2H Cu1D 1_555 1_555
I2H Cu1S 1_555 1_555
N1N N1V 1_555 1_555
C1V C2V 1_555 1_555
N1D C1D 1_555 1_555
C1D C3D 1_555 1_555
C4S C3V 1_555 1_555
N2N N2Q 1_555 1_555
C5Q C6Q 1_555 1_555
N2E C5E 1_555 1_555
C5E C7E 1_555 1_555
C8B C7Q 1_555 1_555
N1A Cu1A 1_555 1_555
C1A C2A 1_555 1_555
N1W Cu1W 1_555 1_555
N1W C1W 1_555 1_555
C1W C3W 1_555 1_555
C4O C3A 1_555 1_555
Cu1U I2A 1_555 1_555
Cu1W I2D 1_555 1_555
I2D Cu1O 1_555 1_555
N2A N2U 1_555 1_555
C5U C6U 1_555 1_555
N2I C5I 1_555 1_555
C5I C7I 1_555 1_555
C8M C7U 1_555 1_555
Cu1F I2C 1_555 1_555
Cu3B I2B 1_555 1_555
Cu3C_2 I2C 1_555 1_555
Cu1O I1O 1_555 1_555
I1J Cu1L_2 1_555 1_555
N2M_2 N2I_2 1_555 1_555
N2H N2S 1_555 1_555
N1D_2 N1S_2 1_555 1_555
N2D N2W 1_555 1_555

#END
