
#######################################################################
#
#                 Cambridge Crystallographic Data Centre
#                                CCDC 
#
#######################################################################
#
# If this CIF has been generated from an entry in the Cambridge 
# Structural Database, then it will include bibliographic, chemical, 
# crystal, experimental, refinement or atomic coordinate data resulting 
# from the CCDC's data processing and validation procedures.
#
#######################################################################

data_IXOFUX
_symmetry_cell_setting           orthorhombic
_symmetry_space_group_name_H-M   'P 21 21 21'
_symmetry_Int_Tables_number      19
_space_group_name_Hall           'P 2ac 2ab'
loop_
_symmetry_equiv_pos_site_id
_symmetry_equiv_pos_as_xyz
1 x,y,z
2 1/2-x,-y,1/2+z
3 -x,1/2+y,1/2-z
4 1/2+x,1/2-y,-z
_cell_length_a                   6.827(8)
_cell_length_b                   13.965(16)
_cell_length_c                   16.073(18)
_cell_angle_alpha                90
_cell_angle_beta                 90
_cell_angle_gamma                90
_cell_volume                     1532.38
loop_
_atom_site_label
_atom_site_type_symbol
_atom_site_fract_x
_atom_site_fract_y
_atom_site_fract_z
C1 C -0.2779(12) 1.1205(5) 0.8954(4)
C2 C -0.2615(11) 1.0474(5) 0.8296(4)
C3 C -0.4302(13) 1.0040(6) 0.7975(5)
H1 H -0.5519 1.0185 0.8202
C4 C -0.4177(12) 0.9406(6) 0.7335(5)
H2 H -0.5313 0.9122 0.7132
C5 C -0.2242(12) 0.8538(5) 0.6242(4)
C6 C -0.2378(11) 0.9174(5) 0.6975(4)
C7 C -0.0699(13) 0.9609(7) 0.7302(6)
H3 H 0.0518 0.9479 0.7068
C8 C -0.0829(13) 1.0223(6) 0.7961(5)
H4 H 0.0311 1.0477 0.8188
O1 O 0.2823(4) 0.8088(2) 0.5058(3)
O2 O -0.4437(8) 1.1428(4) 0.9215(3)
O3 O -0.0559(9) 0.8340(4) 0.5947(3)
O4 O -0.1164(8) 1.1574(4) 0.9238(3)
O5 O -0.3828(8) 0.8193(4) 0.5969(3)
V1 V 0.06512(11) 0.76415(5) 0.50089(10)
O1C O -0.2177(4) 0.6912(2) 0.4942(3)
O2A O -0.0563(8) 0.8572(4) 0.4215(3)
O4B O 0.1164(8) 0.6574(4) 0.5762(3)
O5C O 0.1172(8) 0.6807(4) 0.4031(3)
V1C V 0.56512(11) 0.73585(5) 0.49911(10)
V1A V -0.56512(11) 1.23585(5) 1.00089(10)
V1B V -0.06512(11) 1.26415(5) 0.99911(10)
V1C_2 V -0.43488(11) 0.73585(5) 0.49911(10)
C9 C 0.346(3) 0.8378(15) 0.1114(13)
H5 H 0.4652 0.8120 0.1288
C10 C 0.183(5) 0.7995(11) 0.1446(9)
H6 H 0.1860 0.7553 0.1878
C11 C -0.005(3) 0.8348(15) 0.1055(13)
H7 H -0.0950 0.8491 0.1507
H8 H -0.0611 0.7814 0.0750
C12 C -0.007(3) 0.9210(14) 0.0472(14)
H9 H -0.1189 0.9168 0.0102
H10 H -0.0193 0.9794 0.0795
C13 C 0.178(4) 0.9244(11) -0.0031(9)
H11 H 0.1775 0.8714 -0.0421
H12 H 0.1794 0.9833 -0.0350
C14 C 0.357(3) 0.9195(15) 0.0478(14)
H13 H 0.3747 0.9797 0.0769
H14 H 0.4690 0.9098 0.0118
loop_
_geom_bond_atom_site_label_1
_geom_bond_atom_site_label_2
_geom_bond_site_symmetry_1
_geom_bond_site_symmetry_2
C1 C2 1_555 1_555
C2 C3 1_555 1_555
C3 H1 1_555 1_555
C4 C3 1_555 1_555
H2 C4 1_555 1_555
C5 C6 1_555 1_555
C6 C4 1_555 1_555
C7 C6 1_555 1_555
H3 C7 1_555 1_555
C8 C2 1_555 1_555
H4 C8 1_555 1_555
C9 H5 1_555 1_555
C10 C9 1_555 1_555
H6 C10 1_555 1_555
C11 C10 1_555 1_555
H7 C11 1_555 1_555
H8 C11 1_555 1_555
C12 C11 1_555 1_555
H9 C12 1_555 1_555
H10 C12 1_555 1_555
C13 C12 1_555 1_555
H11 C13 1_555 1_555
H12 C13 1_555 1_555
C14 C9 1_555 1_555
H13 C14 1_555 1_555
H14 C14 1_555 1_555
O1 V1 1_555 1_555
O2 C1 1_555 1_555
O3 C5 1_555 1_555
O4 C1 1_555 1_555
O5 C5 1_555 1_555
V1 O3 1_555 1_555
O1C V1 1_555 1_555
O2A V1 1_555 1_555
O4B V1 1_555 1_555
O5C V1 1_555 1_555
V1C O1 1_555 1_555
V1A O2 1_555 1_555
V1B O4 1_555 1_555
V1C_2 O5 1_555 1_555
C7 C8 1_555 1_555
C13 C14 1_555 1_555
O1C V1C_2 1_555 1_555

#END
