
#######################################################################
#
#                 Cambridge Crystallographic Data Centre
#                                CCDC 
#
#######################################################################
#
# If this CIF has been generated from an entry in the Cambridge 
# Structural Database, then it will include bibliographic, chemical, 
# crystal, experimental, refinement or atomic coordinate data resulting 
# from the CCDC's data processing and validation procedures.
#
#######################################################################

data_IYOVUO
_symmetry_cell_setting           monoclinic
_symmetry_space_group_name_H-M   'P 21/c'
_symmetry_Int_Tables_number      14
_space_group_name_Hall           '-P 2ybc'
loop_
_symmetry_equiv_pos_site_id
_symmetry_equiv_pos_as_xyz
1 x,y,z
2 -x,1/2+y,1/2-z
3 -x,-y,-z
4 x,1/2-y,1/2+z
_cell_length_a                   11.7636(3)
_cell_length_b                   16.3609(3)
_cell_length_c                   11.5890(3)
_cell_angle_alpha                90
_cell_angle_beta                 113.314(3)
_cell_angle_gamma                90
_cell_volume                     2048.34
loop_
_atom_site_label
_atom_site_type_symbol
_atom_site_fract_x
_atom_site_fract_y
_atom_site_fract_z
Eu1 Eu 0.190224(17) 0.534464(12) 0.575944(18)
S1 S 0.03995(9) 0.78435(6) 0.69768(10)
O1 O 0.0414(3) 0.63797(18) 0.5524(3)
C1 C 0.6763(4) 0.1726(3) 0.7959(4)
C2 C -0.0545(4) 0.8542(3) 0.7274(4)
C3 C -0.1771(4) 0.8315(3) 0.6732(4)
H1 H -0.2414 0.8611 0.6805
C4 C -0.1931(4) 0.7579(3) 0.6053(4)
H2 H -0.2699 0.7337 0.5622
C5 C -0.0840(4) 0.7256(3) 0.6092(4)
S2 S 0.52016(10) 0.30129(7) 0.78743(11)
O2 O -0.0685(3) 0.97599(18) 0.8291(3)
O3 O 0.1186(3) 0.92921(19) 0.8567(3)
O4 O 0.3505(3) 0.4472(2) 0.7317(3)
O5 O -0.1523(3) 0.59870(18) 0.5139(3)
O6 O 0.6886(3) 0.1592(2) 0.9065(3)
O7 O 0.7180(3) 0.12291(19) 0.7371(3)
O8 O 0.3841(3) 0.4908(2) 0.5682(3)
C7 C 0.0025(4) 0.9246(3) 0.8098(4)
C8 C -0.0649(4) 0.6482(3) 0.5536(4)
C9 C 0.6137(4) 0.2474(3) 0.7321(4)
C10 C 0.6221(4) 0.2849(3) 0.6303(4)
H4 H 0.6677 0.2642 0.5872
C11 C 0.4047(4) 0.4414(3) 0.6578(4)
C12 C 0.4926(4) 0.3740(3) 0.6721(4)
C13 C 0.5549(4) 0.3580(3) 0.5980(4)
H5 H 0.5531 0.3918 0.5328
Eu1A Eu -0.190224(17) 1.034464(12) 0.924056(18)
Eu1C Eu 0.190224(17) 0.965536(12) 1.075944(18)
Eu1B Eu -0.190224(17) 0.465536(12) 0.424056(18)
Eu1A_2 Eu 0.809776(17) 0.034464(12) 0.924056(18)
O2A O 0.0685(3) 0.47599(18) 0.6709(3)
O3C O 0.1186(3) 0.57079(19) 0.3567(3)
O5B O 0.1523(3) 0.40130(18) 0.4861(3)
O6A O 0.3114(3) 0.6592(2) 0.5935(3)
O7A O 0.2820(3) 0.62291(19) 0.7629(3)
N1 N -0.3092(5) 0.9684(3) 0.3244(4)
C6 C -0.2343(5) 1.0333(3) 0.3537(5)
H3 H -0.1931 1.0539 0.3061
N2 N -0.2284(4) 1.0638(3) 0.4635(4)
C14 C -0.1532(5) 1.1332(3) 0.5320(5)
H6 H -0.1795 1.1495 0.5981
H7 H -0.1668 1.1790 0.4751
C15 C -0.3030(6) 1.0165(4) 0.5023(6)
H8 H -0.3165 1.0240 0.5755
C16 C -0.3532(6) 0.9578(4) 0.4165(6)
H9 H -0.4077 0.9173 0.4191
C17 C -0.0156(5) 1.1129(4) 0.5899(5)
H10 H 0.0301 1.1600 0.6331
H11 H 0.0111 1.0974 0.5247
H12 H -0.0014 1.0686 0.6482
C18 C -0.3357(6) 0.9168(4) 0.2130(6)
H13 H -0.2933 0.9383 0.1638
H14 H -0.4232 0.9165 0.1635
H15 H -0.3079 0.8621 0.2389
loop_
_geom_bond_atom_site_label_1
_geom_bond_atom_site_label_2
_geom_bond_site_symmetry_1
_geom_bond_site_symmetry_2
Eu1 O1 1_555 1_555
S1 C2 1_555 1_555
O1 C8 1_555 1_555
C1 O6 1_555 1_555
C2 C3 1_555 1_555
C3 H1 1_555 1_555
C4 C3 1_555 1_555
H2 C4 1_555 1_555
C5 S1 1_555 1_555
S2 C9 1_555 1_555
O2 C7 1_555 1_555
O3 C7 1_555 1_555
O4 Eu1 1_555 1_555
O5 C8 1_555 1_555
O6 Eu1A_2 1_555 1_555
O7 C1 1_555 1_555
N1 C6 1_555 1_555
O8 Eu1 1_555 1_555
C6 H3 1_555 1_555
C7 C2 1_555 1_555
C8 C5 1_555 1_555
N2 C6 1_555 1_555
C9 C1 1_555 1_555
C10 C9 1_555 1_555
H4 C10 1_555 1_555
C11 O4 1_555 1_555
C12 S2 1_555 1_555
C13 C10 1_555 1_555
H5 C13 1_555 1_555
C14 N2 1_555 1_555
H6 C14 1_555 1_555
H7 C14 1_555 1_555
C15 N2 1_555 1_555
H8 C15 1_555 1_555
C16 N1 1_555 1_555
H9 C16 1_555 1_555
C17 C14 1_555 1_555
H10 C17 1_555 1_555
H11 C17 1_555 1_555
H12 C17 1_555 1_555
C18 N1 1_555 1_555
H13 C18 1_555 1_555
H14 C18 1_555 1_555
H15 C18 1_555 1_555
Eu1A O2 1_555 1_555
Eu1C O3 1_555 1_555
Eu1B O5 1_555 1_555
Eu1A_2 O7 1_555 1_555
O2A Eu1 1_555 1_555
O3C Eu1 1_555 1_555
O5B Eu1 1_555 1_555
O6A Eu1 1_555 1_555
O7A Eu1 1_555 1_555
C4 C5 1_555 1_555
O8 C11 1_555 1_555
C11 C12 1_555 1_555
C12 C13 1_555 1_555
C15 C16 1_555 1_555

#END
