
#######################################################################
#
#                 Cambridge Crystallographic Data Centre
#                                CCDC 
#
#######################################################################
#
# If this CIF has been generated from an entry in the Cambridge 
# Structural Database, then it will include bibliographic, chemical, 
# crystal, experimental, refinement or atomic coordinate data resulting 
# from the CCDC's data processing and validation procedures.
#
#######################################################################

data_IYOVEY
_symmetry_cell_setting           orthorhombic
_symmetry_space_group_name_H-M   'P 21 21 2'
_symmetry_Int_Tables_number      18
_space_group_name_Hall           'P 2 2ab'
loop_
_symmetry_equiv_pos_site_id
_symmetry_equiv_pos_as_xyz
1 x,y,z
2 -x,-y,z
3 1/2-x,1/2+y,-z
4 1/2+x,1/2-y,-z
_cell_length_a                   16.3890(3)
_cell_length_b                   12.0113(2)
_cell_length_c                   12.2966(2)
_cell_angle_alpha                90
_cell_angle_beta                 90
_cell_angle_gamma                90
_cell_volume                     2420.63
loop_
_atom_site_label
_atom_site_type_symbol
_atom_site_fract_x
_atom_site_fract_y
_atom_site_fract_z
N1 N 0.0192(2) 0.4173(2) -0.2375(3)
C13 C 0.0137(3) 0.4499(3) -0.3445(3)
H5 H 0.0275 0.4066 -0.4065
C16 C 0.0475(4) 0.3055(4) -0.1952(5)
H8 H 0.0448 0.3050 -0.1148
H9 H 0.0109 0.2463 -0.2228
H10 H 0.0906 0.2961 -0.2070
C17 C 0.1301(6) 0.2832(8) -0.2297(11)
H11 H 0.1469 0.2097 -0.2032
H12 H 0.1666 0.3402 -0.1999
H13 H 0.1328 0.2846 -0.3093
C18 C 0.0000 0.5000 -0.1759(4)
H14 H 0.0000 0.5000 -0.0986
N1A N -0.0192(2) 0.5827(2) -0.2375(3)
C13A C -0.0137(3) 0.5501(3) -0.3445(3)
H5A H -0.0275 0.5934 -0.4065
C16A C -0.0475(4) 0.6945(4) -0.1952(5)
H8A H -0.0448 0.6950 -0.1148
H9A H -0.0109 0.7537 -0.2228
H10A H -0.0906 0.7039 -0.2070
C17A C -0.1301(6) 0.7168(8) -0.2297(11)
H11A H -0.1469 0.7903 -0.2032
H12A H -0.1666 0.6598 -0.1999
H13A H -0.1328 0.7154 -0.3093
N2 N 0.0643(2) 0.9838(3) -0.2488(2)
C14 C 0.0000 1.0000 -0.3101(5)
H6 H 0.0000 1.0000 -0.3874
C15 C 0.0396(3) 0.9897(4) -0.1427(3)
H7 H 0.0733 0.9807 -0.0804
C19 C 0.1492(3) 0.9650(4) -0.2861(5)
H15 H 0.1566 0.9989 -0.3588
H16 H 0.1875 1.0019 -0.2352
H17 H 0.1605 0.9035 -0.2935
C20 C 0.1680(9) 0.8481(13) -0.2917(11)
H18 H 0.2245 0.8384 -0.3159
H19 H 0.1311 0.8118 -0.3434
H20 H 0.1612 0.8145 -0.2196
N2A N -0.0643(2) 1.0162(3) -0.2488(2)
C15A C -0.0396(3) 1.0103(4) -0.1427(3)
H7A H -0.0733 1.0193 -0.0804
C19A C -0.1492(3) 1.0350(4) -0.2861(5)
H15A H -0.1566 1.0011 -0.3588
H16A H -0.1875 0.9981 -0.2352
H17A H -0.1605 1.0965 -0.2935
C20A C -0.1680(9) 1.1519(13) -0.2917(11)
H18A H -0.2245 1.1616 -0.3159
H19A H -0.1311 1.1882 -0.3434
H20A H -0.1612 1.1855 -0.2196
Nd1 Nd 0.0000 0.5000 0.195880(17)
Nd2 Nd -0.029847(9) 0.161725(11) 0.281049(12)
Cl1 Cl -0.0198(3) 0.2004(3) 0.5076(3)
Cl2 Cl 0.0000 0.0000 0.11748(8)
S1 S -0.21042(5) 0.52046(6) 0.52027(7)
O1 O -0.08636(11) 0.35390(14) 0.30198(16)
O2 O -0.07628(11) 0.72878(15) 0.21078(19)
C1 C -0.34937(18) 0.5026(2) 0.6418(2)
O3 O -0.33047(12) 0.59859(15) 0.67836(17)
O4 O -0.41823(12) 0.46058(15) 0.66110(18)
O5 O -0.08468(14) 0.52686(15) 0.35943(19)
C2 C -0.12928(18) 0.6840(3) 0.1514(3)
O6 O -0.12727(15) 0.58251(16) 0.1266(2)
C3 C -0.29123(18) 0.4455(2) 0.5700(3)
C4 C -0.18051(19) 0.4103(2) 0.4409(3)
C5 C -0.11251(19) 0.4298(2) 0.3650(3)
C6 C -0.29370(19) 0.3408(3) 0.5280(3)
H1 H -0.3340 0.2872 0.5465
C7 C -0.19709(19) 0.7508(2) 0.1081(3)
S2 S -0.26761(5) 0.68505(6) 0.02505(7)
O7 O -0.44532(12) 0.88528(14) -0.05348(17)
O8 O -0.40519(13) 0.71960(15) -0.11775(18)
C8 C -0.39733(18) 0.8034(2) -0.0587(2)
C9 C -0.2883(2) 0.8917(2) 0.0671(3)
H2 H -0.3101 0.9650 0.0690
C10 C -0.32386(18) 0.8055(2) 0.0121(3)
C11 C -0.22954(19) 0.3206(2) 0.4539(3)
H3 H -0.2217 0.2518 0.4173
C12 C -0.2159(2) 0.8601(2) 0.1206(3)
H4 H -0.1834 0.9104 0.1614
Nd1B Nd -0.5000 1.0000 -0.195880(17)
Nd1B_2 Nd -0.5000 0.0000 -0.195880(17)
Nd2A Nd 0.029847(9) 0.838275(11) 0.281049(12)
Nd2A_2 Nd 0.029847(9) -0.161725(11) 0.281049(12)
Nd2B Nd -0.470153(9) 0.661725(11) 0.718951(12)
Nd2C Nd -0.529847(9) 0.338275(11) 0.718951(12)
Nd2B_2 Nd -0.470153(9) 0.661725(11) -0.281049(12)
Nd2C_2 Nd -0.529847(9) 0.338275(11) -0.281049(12)
Nd2C_3 Nd 0.470153(9) 0.338275(11) 0.718951(12)
Nd2B_3 Nd 0.529847(9) 0.661725(11) 0.718951(12)
Cl1A Cl 0.0198(3) 0.7996(3) 0.5076(3)
Cl2_2 Cl 0.0000 1.0000 0.11748(8)
S1A S 0.21042(5) 0.47954(6) 0.52027(7)
O1A O 0.08636(11) 0.64610(14) 0.30198(16)
O2B O -0.42372(11) 0.22878(15) -0.21078(19)
O2A O 0.07628(11) 0.27122(15) 0.21078(19)
C1A C 0.34937(18) 0.4974(2) 0.6418(2)
O3A O 0.33047(12) 0.40141(15) 0.67836(17)
O3B O -0.16953(12) 0.09859(15) 0.32164(17)
O3C O 0.16953(12) 0.90141(15) 0.32164(17)
O4A O 0.41823(12) 0.53942(15) 0.66110(18)
O4B O -0.08177(12) -0.03942(15) 0.33890(18)
O4C O 0.08177(12) 0.03942(15) 0.33890(18)
O4C_2 O 0.08177(12) 1.03942(15) 0.33890(18)
O4B_2 O -0.08177(12) 0.96058(15) 0.33890(18)
O5A O 0.08468(14) 0.47314(15) 0.35943(19)
C2B C -0.37072(18) 0.1840(3) -0.1514(3)
O6B O -0.37273(15) 0.08251(16) -0.1266(2)
O6A O 0.12727(15) 0.41749(16) 0.1266(2)
C3A C 0.29123(18) 0.5545(2) 0.5700(3)
C4A C 0.18051(19) 0.5897(2) 0.4409(3)
C5A C 0.11251(19) 0.5702(2) 0.3650(3)
C6A C 0.29370(19) 0.6592(3) 0.5280(3)
H1A H 0.3340 0.7128 0.5465
C7B C -0.30291(19) 0.2508(2) -0.1081(3)
S2B S -0.23239(5) 0.18505(6) -0.02505(7)
O7B O -0.05468(12) 0.38528(14) 0.05348(17)
O7C O 0.05468(12) 0.61472(14) 0.05348(17)
O8B O -0.09481(13) 0.21960(15) 0.11775(18)
O8C O 0.09481(13) 0.78040(15) 0.11775(18)
C8B C -0.10267(18) 0.3034(2) 0.0587(2)
C9B C -0.2117(2) 0.3917(2) -0.0671(3)
H2B H -0.1899 0.4650 -0.0690
C10B C -0.17614(18) 0.3055(2) -0.0121(3)
C11A C 0.22954(19) 0.6794(2) 0.4539(3)
H3A H 0.2217 0.7482 0.4173
C12B C -0.2841(2) 0.3601(2) -0.1206(3)
H4B H -0.3166 0.4104 -0.1614
Br1? Br -0.02123(5) 0.20020(6) 0.50922(6)
loop_
_geom_bond_atom_site_label_1
_geom_bond_atom_site_label_2
_geom_bond_site_symmetry_1
_geom_bond_site_symmetry_2
Nd1 O1 1_555 1_555
Nd2 Cl1 1_555 1_555
Cl2 Nd2 1_555 1_555
S1 C3 1_555 1_555
O1 Nd2 1_555 1_555
O2 C2 1_555 1_555
C1 O3 1_555 1_555
O3 Nd2B 1_555 1_555
O4 C1 1_555 1_555
O5 Nd1 1_555 1_555
C2 O6 1_555 1_555
O6 Nd1 1_555 1_555
C3 C1 1_555 1_555
C4 S1 1_555 1_555
C5 O1 1_555 1_555
C6 C3 1_555 1_555
H1 C6 1_555 1_555
C7 C2 1_555 1_555
S2 C7 1_555 1_555
O7 C8 1_555 1_555
O8 C8 1_555 1_555
C8 C10 1_555 1_555
C9 H2 1_555 1_555
C10 S2 1_555 1_555
C11 C4 1_555 1_555
H3 C11 1_555 1_555
C12 C7 1_555 1_555
H4 C12 1_555 1_555
N1 C13 1_555 1_555
N2 C14 1_555 1_555
C13 H5 1_555 1_555
C14 H6 1_555 1_555
C15 N2 1_555 1_555
H7 C15 1_555 1_555
C16 N1 1_555 1_555
H8 C16 1_555 1_555
H9 C16 1_555 1_555
H10 C16 1_555 1_555
C17 C16 1_555 1_555
H11 C17 1_555 1_555
H12 C17 1_555 1_555
H13 C17 1_555 1_555
C18 N1 1_555 1_555
H14 C18 1_555 1_555
C19 N2 1_555 1_555
H15 C19 1_555 1_555
H16 C19 1_555 1_555
H17 C19 1_555 1_555
C20 C19 1_555 1_555
H18 C20 1_555 1_555
H19 C20 1_555 1_555
H20 C20 1_555 1_555
Nd1B O7 1_555 1_555
Nd1B_2 O6B 1_555 1_555
Nd2A O2 1_555 1_555
Nd2A_2 Cl2 1_555 1_555
Nd2B O4 1_555 1_555
Nd2C O4 1_555 1_555
Nd2B_2 O8 1_555 1_555
Nd2C_2 O2B 1_555 1_555
Nd2C_3 O3A 1_555 1_555
Nd2B_3 O4A 1_555 1_555
Cl1A Nd2A 1_555 1_555
Cl2_2 Nd2A 1_555 1_555
S1A C3A 1_555 1_555
O1A Nd1 1_555 1_555
O2B C2B 1_555 1_555
O2A Nd2 1_555 1_555
C1A O3A 1_555 1_555
O3B Nd2 1_555 1_555
O3C Nd2A 1_555 1_555
O4A Nd2C_3 1_555 1_555
O4B Nd2 1_555 1_555
O4C Nd2 1_555 1_555
O4C_2 Nd2A 1_555 1_555
O4B_2 Nd2A 1_555 1_555
O5A Nd1 1_555 1_555
C2B O6B 1_555 1_555
O6A Nd1 1_555 1_555
C3A C1A 1_555 1_555
C4A S1A 1_555 1_555
C5A O1A 1_555 1_555
C6A C3A 1_555 1_555
H1A C6A 1_555 1_555
C7B C2B 1_555 1_555
S2B C7B 1_555 1_555
O7B Nd1 1_555 1_555
O7C Nd1 1_555 1_555
O8B Nd2 1_555 1_555
O8C Nd2A 1_555 1_555
C8B O7B 1_555 1_555
C9B H2B 1_555 1_555
C10B S2B 1_555 1_555
C11A C4A 1_555 1_555
H3A C11A 1_555 1_555
C12B C7B 1_555 1_555
H4B C12B 1_555 1_555
N1A C18 1_555 1_555
N2A C14 1_555 1_555
C13A C13 1_555 1_555
H5A C13A 1_555 1_555
C15A C15 1_555 1_555
H7A C15A 1_555 1_555
C16A N1A 1_555 1_555
H8A C16A 1_555 1_555
H9A C16A 1_555 1_555
H10A C16A 1_555 1_555
C17A C16A 1_555 1_555
H11A C17A 1_555 1_555
H12A C17A 1_555 1_555
H13A C17A 1_555 1_555
C19A N2A 1_555 1_555
H15A C19A 1_555 1_555
H16A C19A 1_555 1_555
H17A C19A 1_555 1_555
C20A C19A 1_555 1_555
H18A C20A 1_555 1_555
H19A C20A 1_555 1_555
H20A C20A 1_555 1_555
O5 C5 1_555 1_555
C4 C5 1_555 1_555
C6 C11 1_555 1_555
C9 C10 1_555 1_555
C9 C12 1_555 1_555
H10 C17 1_555 1_555
H17 C20 1_555 1_555
Nd2A O1A 1_555 1_555
Nd2A_2 O4B 1_555 1_555
Nd2A_2 O4C 1_555 1_555
C1A O4A 1_555 1_555
O5A C5A 1_555 1_555
C4A C5A 1_555 1_555
C6A C11A 1_555 1_555
O8B C8B 1_555 1_555
C8B C10B 1_555 1_555
C9B C10B 1_555 1_555
C9B C12B 1_555 1_555
N1A C13A 1_555 1_555
N2A C15A 1_555 1_555
H10A C17A 1_555 1_555
H17A C20A 1_555 1_555

#END
