
#######################################################################
#
#                 Cambridge Crystallographic Data Centre
#                                CCDC 
#
#######################################################################
#
# If this CIF has been generated from an entry in the Cambridge 
# Structural Database, then it will include bibliographic, chemical, 
# crystal, experimental, refinement or atomic coordinate data resulting 
# from the CCDC's data processing and validation procedures.
#
#######################################################################

data_IYOVOI
_symmetry_cell_setting           monoclinic
_symmetry_space_group_name_H-M   'P 21/c'
_symmetry_Int_Tables_number      14
_space_group_name_Hall           '-P 2ybc'
loop_
_symmetry_equiv_pos_site_id
_symmetry_equiv_pos_as_xyz
1 x,y,z
2 -x,1/2+y,1/2-z
3 -x,-y,-z
4 x,1/2-y,1/2+z
_cell_length_a                   11.7380(4)
_cell_length_b                   16.5818(4)
_cell_length_c                   11.5785(4)
_cell_angle_alpha                90
_cell_angle_beta                 113.514(4)
_cell_angle_gamma                90
_cell_volume                     2066.47
loop_
_atom_site_label
_atom_site_type_symbol
_atom_site_fract_x
_atom_site_fract_y
_atom_site_fract_z
Nd1 Nd 0.30994(2) 0.534071(16) 0.42474(2)
S1 S -0.01950(13) 0.30060(8) 0.21143(13)
O1 O 0.4606(3) 0.6379(2) 0.4447(4)
O2 O 0.1477(4) 0.4457(2) 0.2647(4)
O3 O 0.1104(3) 0.4916(2) 0.4268(4)
C1 C 0.6778(5) 0.8314(3) 0.3280(5)
H1 H 0.7420 0.8610 0.3213
C2 C -0.1226(5) 0.2837(3) 0.3683(5)
H2 H -0.1677 0.2622 0.4113
C3 C -0.0566(5) 0.3583(3) 0.4003(5)
H3 H -0.0563 0.3924 0.4642
C4 C 0.0067(5) 0.3734(3) 0.3244(5)
C5 C 0.0929(5) 0.4420(3) 0.3396(5)
C6 C -0.1115(5) 0.2474(3) 0.2666(5)
C7 C 0.5531(5) 0.8535(3) 0.2732(5)
C8 C 0.6942(5) 0.7589(3) 0.3946(5)
H4 H 0.7717 0.7355 0.4378
C9 C 0.5869(5) 0.7259(3) 0.3905(5)
O4 O -0.1865(4) 0.1602(2) 0.0929(4)
O5 O 0.3781(3) 0.9274(2) 0.1477(3)
O6 O 0.6558(3) 0.5997(2) 0.4835(4)
O7 O -0.2124(4) 0.1224(2) 0.2667(4)
C10 C 0.5652(5) 0.6490(3) 0.4459(5)
C11 C -0.1742(5) 0.1720(3) 0.2056(5)
C12 C 0.4943(5) 0.9229(3) 0.1913(5)
S2 S 0.46058(12) 0.78384(8) 0.30356(12)
O8 O 0.5632(4) 0.9741(2) 0.1679(4)
Nd1A Nd -0.30994(2) 0.034071(16) 0.07526(2)
Nd1C Nd 0.30994(2) 0.965929(16) -0.07526(2)
Nd1B Nd 0.69006(2) 0.465929(16) 0.57526(2)
Nd1A_2 Nd 0.69006(2) 1.034071(16) 0.07526(2)
O4A O 0.1865(4) 0.6602(2) 0.4071(4)
O5C O 0.3781(3) 0.5726(2) 0.6477(3)
O6B O 0.3442(3) 0.4003(2) 0.5165(4)
O7A O 0.2124(4) 0.6224(2) 0.2333(4)
O8A O 0.4368(4) 0.4741(2) 0.3321(4)
N1 N -0.1905(5) 0.5328(3) 0.1745(5)
N2 N -0.2684(5) 0.4381(3) 0.0377(4)
C13 C -0.2635(6) 0.4690(3) 0.1464(6)
H5 H -0.3047 0.4488 0.1941
C14 C -0.3417(6) 0.3683(4) -0.0293(6)
H6 H -0.3287 0.3240 0.0293
H7 H -0.3139 0.3512 -0.0938
C15 C -0.1430(7) 0.5438(4) 0.0849(6)
H8 H -0.0882 0.5838 0.0830
C16 C -0.1933(6) 0.4839(4) -0.0008(6)
H9 H -0.1790 0.4756 -0.0733
C17 C -0.4796(7) 0.3886(4) -0.0899(7)
H10 H -0.5254 0.3419 -0.1327
H11 H -0.4929 0.4317 -0.1492
H12 H -0.5075 0.4049 -0.0260
C18 C -0.1610(7) 0.5848(5) 0.2865(7)
H13 H -0.2044 0.5654 0.3359
H14 H -0.1864 0.6391 0.2601
H15 H -0.0732 0.5836 0.3362
loop_
_geom_bond_atom_site_label_1
_geom_bond_atom_site_label_2
_geom_bond_site_symmetry_1
_geom_bond_site_symmetry_2
Nd1 O1 1_555 1_555
S1 C4 1_555 1_555
O1 C10 1_555 1_555
O2 Nd1 1_555 1_555
O3 Nd1 1_555 1_555
C1 H1 1_555 1_555
C2 H2 1_555 1_555
C3 C2 1_555 1_555
H3 C3 1_555 1_555
C4 C3 1_555 1_555
C5 O2 1_555 1_555
C6 S1 1_555 1_555
C7 C1 1_555 1_555
C8 C1 1_555 1_555
H4 C8 1_555 1_555
C9 C8 1_555 1_555
O4 C11 1_555 1_555
O5 C12 1_555 1_555
O6 C10 1_555 1_555
O7 C11 1_555 1_555
C10 C9 1_555 1_555
C11 C6 1_555 1_555
N1 C13 1_555 1_555
C12 C7 1_555 1_555
N2 C13 1_555 1_555
C13 H5 1_555 1_555
C14 N2 1_555 1_555
H6 C14 1_555 1_555
H7 C14 1_555 1_555
C15 N1 1_555 1_555
H8 C15 1_555 1_555
C16 N2 1_555 1_555
H9 C16 1_555 1_555
C17 C14 1_555 1_555
H10 C17 1_555 1_555
H11 C17 1_555 1_555
H12 C17 1_555 1_555
C18 N1 1_555 1_555
H13 C18 1_555 1_555
H14 C18 1_555 1_555
H15 C18 1_555 1_555
S2 C7 1_555 1_555
O8 C12 1_555 1_555
Nd1A O4 1_555 1_555
Nd1C O5 1_555 1_555
Nd1B O6 1_555 1_555
Nd1A_2 O8 1_555 1_555
O4A Nd1 1_555 1_555
O5C Nd1 1_555 1_555
O6B Nd1 1_555 1_555
O7A Nd1 1_555 1_555
O8A Nd1 1_555 1_555
O3 C5 1_555 1_555
C2 C6 1_555 1_555
C4 C5 1_555 1_555
C9 S2 1_555 1_555
O7 Nd1A 1_555 1_555
C15 C16 1_555 1_555

#END
