
#######################################################################
#
#                 Cambridge Crystallographic Data Centre
#                                CCDC 
#
#######################################################################
#
# If this CIF has been generated from an entry in the Cambridge 
# Structural Database, then it will include bibliographic, chemical, 
# crystal, experimental, refinement or atomic coordinate data resulting 
# from the CCDC's data processing and validation procedures.
#
#######################################################################

data_IZEBEV
_symmetry_cell_setting           monoclinic
_symmetry_space_group_name_H-M   'P 21/c'
_symmetry_Int_Tables_number      14
_space_group_name_Hall           '-P 2ybc'
loop_
_symmetry_equiv_pos_site_id
_symmetry_equiv_pos_as_xyz
1 x,y,z
2 -x,1/2+y,1/2-z
3 -x,-y,-z
4 x,1/2-y,1/2+z
_cell_length_a                   14.465(6)
_cell_length_b                   17.773(8)
_cell_length_c                   6.770(3)
_cell_angle_alpha                90
_cell_angle_beta                 91.276(8)
_cell_angle_gamma                90
_cell_volume                     1740.04
loop_
_atom_site_label
_atom_site_type_symbol
_atom_site_fract_x
_atom_site_fract_y
_atom_site_fract_z
Cd1 Cd 1.0000 0.5000 0.0000
Cd2 Cd 1.13684(5) 0.53255(4) 0.44300(11)
C1 C 0.8525(6) 0.7011(5) -0.2374(13)
C2 C 0.9198(6) 0.7551(5) -0.1812(13)
H1 H 0.9774 0.7396 -0.1327
C3 C 0.9000(6) 0.8309(5) -0.1983(14)
C4 C 0.8132(6) 0.8545(5) -0.2643(14)
H2 H 0.8000 0.9056 -0.2734
C5 C 0.7464(7) 0.8022(6) -0.3163(15)
C6 C 0.7672(7) 0.7247(5) -0.3030(14)
H3 H 0.7225 0.6894 -0.3390
C7 C 0.8775(6) 0.6200(5) -0.2269(13)
C8 C 0.9719(6) 0.8859(5) -0.1432(14)
C9 C 0.2910(9) 0.9270(8) -0.852(2)
C10 C 0.3799(10) 0.9119(9) -0.741(2)
C11 C 0.6398(9) 0.8972(8) -0.422(2)
H4 H 0.6880 0.9204 -0.4988
H5 H 0.6356 0.9237 -0.2978
C12 C 0.5490(10) 0.9011(9) -0.534(2)
C13 C 0.5498(10) 0.9169(10) -0.742(2)
H6 H 0.6053 0.9228 -0.8069
C14 C 0.4641(10) 0.9234(10) -0.844(2)
H7 H 0.4622 0.9351 -0.9778
C15 C 0.3813(10) 0.8994(9) -0.544(2)
H8 H 0.3264 0.8985 -0.4747
C16 C 0.4657(10) 0.8876(10) -0.444(2)
H9 H 0.4660 0.8704 -0.3146
O1 O 0.9508(5) 0.6033(4) -0.1342(11)
O2 O 1.1336(5) 0.5717(4) 0.0778(11)
H10 H 1.1130 0.6114 0.0224
H11 H 1.1694 0.5628 -0.0173
O3 O 0.8238(5) 0.5749(4) -0.3155(11)
O5 O 0.9591(5) 0.9580(3) -0.1806(10)
O7 O 1.0473(5) 0.8649(4) -0.0652(11)
O8 O 0.6605(5) 0.8214(4) -0.3887(12)
O9 O 0.2222(5) 0.9519(5) -0.7630(12)
O10 O 0.2875(6) 0.9210(6) -1.0362(13)
Cd1A Cd 1.0000 1.0000 -0.5000
Cd1A_2 Cd 1.0000 0.0000 0.5000
Cd2B Cd 0.86316(5) 0.46745(4) -0.44300(11)
Cd2A Cd 0.86316(5) 1.03255(4) 0.05700(11)
Cd2C Cd 1.13684(5) 0.96745(4) -0.05700(11)
Cd2C_2 Cd 0.13684(5) 0.96745(4) -1.05700(11)
Cd2C_3 Cd 1.13684(5) -0.03255(4) -0.05700(11)
Cd2A_2 Cd 0.86316(5) 0.03255(4) 0.05700(11)
Cd2A_3 Cd 1.86316(5) 0.03255(4) 1.05700(11)
C1B C 1.1475(6) 0.2989(5) 0.2374(13)
C2B C 1.0802(6) 0.2449(5) 0.1812(13)
H1B H 1.0226 0.2604 0.1327
C3B C 1.1000(6) 0.1691(5) 0.1983(14)
C4B C 1.1868(6) 0.1455(5) 0.2643(14)
H2B H 1.2000 0.0944 0.2734
C5B C 1.2536(7) 0.1978(6) 0.3163(15)
C6B C 1.2328(7) 0.2753(5) 0.3030(14)
H3B H 1.2775 0.3106 0.3390
C7B C 1.1225(6) 0.3800(5) 0.2269(13)
C8B C 1.0281(6) 0.1141(5) 0.1432(14)
C9B C 1.7090(9) 0.0730(8) 0.852(2)
C10B C 1.6201(10) 0.0881(9) 0.741(2)
C11B C 1.3602(9) 0.1028(8) 0.422(2)
H4B H 1.3120 0.0796 0.4988
H5B H 1.3644 0.0763 0.2978
C12B C 1.4510(10) 0.0989(9) 0.534(2)
C13B C 1.4502(10) 0.0831(10) 0.742(2)
H6B H 1.3947 0.0772 0.8069
C14B C 1.5359(10) 0.0766(10) 0.844(2)
H7B H 1.5378 0.0649 0.9778
C15B C 1.6187(10) 0.1006(9) 0.544(2)
H8B H 1.6736 0.1015 0.4747
C16B C 1.5343(10) 0.1124(10) 0.444(2)
H9B H 1.5340 0.1296 0.3146
O1B O 1.0492(5) 0.3967(4) 0.1342(11)
O2B O 0.8664(5) 0.4283(4) -0.0778(11)
H10B H 0.8870 0.3886 -0.0224
H11B H 0.8306 0.4372 0.0173
O3B O 1.1762(5) 0.4251(4) 0.3155(11)
O5B O 1.0409(5) 0.0420(3) 0.1806(10)
O5A O 1.0409(5) 0.4580(3) -0.3194(10)
O5C O 0.9591(5) 0.5420(3) 0.3194(10)
O5A_2 O 1.0409(5) 0.4580(3) 0.6806(10)
O5C_2 O 0.9591(5) 0.5420(3) -0.6806(10)
O7B O 0.9527(5) 0.1351(4) 0.0652(11)
O7C O 1.0473(5) 0.6351(4) 0.4348(11)
O7A O 0.9527(5) 0.3649(4) -0.4348(11)
O8B O 1.3395(5) 0.1786(4) 0.3887(12)
O9B O 1.7778(5) 0.0481(5) 0.7630(12)
O9C O 1.2222(5) 0.5481(5) 0.7370(12)
O9A O 0.7778(5) 0.4519(5) -0.7370(12)
O10B O 1.7125(6) 0.0790(6) 1.0362(13)
O10C O 1.2875(6) 0.5790(6) 0.4638(13)
O10A O 0.7125(6) 0.4210(6) -0.4638(13)
O4 O 1.1474(7) 0.7271(5) 0.0557(17)
H12 H 1.1519 0.7206 -0.0681
H13 H 1.2039 0.7214 0.0891
O6 O 1.2918(16) 0.7282(13) 0.292(4)
H14 H 1.2875 0.6822 0.3253
H15 H 1.2990 0.7486 0.4045
loop_
_geom_bond_atom_site_label_1
_geom_bond_atom_site_label_2
_geom_bond_site_symmetry_1
_geom_bond_site_symmetry_2
Cd1 O1 1_555 1_555
Cd2 O2 1_555 1_555
C1 C2 1_555 1_555
C2 H1 1_555 1_555
C3 C2 1_555 1_555
C4 C3 1_555 1_555
H2 C4 1_555 1_555
C5 C4 1_555 1_555
C6 C1 1_555 1_555
H3 C6 1_555 1_555
C7 C1 1_555 1_555
C8 C3 1_555 1_555
C9 C10 1_555 1_555
C10 C14 1_555 1_555
C11 H4 1_555 1_555
H5 C11 1_555 1_555
C12 C11 1_555 1_555
C13 C12 1_555 1_555
H6 C13 1_555 1_555
C14 C13 1_555 1_555
H7 C14 1_555 1_555
C15 C10 1_555 1_555
H8 C15 1_555 1_555
C16 C12 1_555 1_555
H9 C16 1_555 1_555
O1 C7 1_555 1_555
O2 Cd1 1_555 1_555
H10 O2 1_555 1_555
H11 O2 1_555 1_555
O3 C7 1_555 1_555
O4 H12 1_555 1_555
H13 O4 1_555 1_555
O5 C8 1_555 1_555
O6 H14 1_555 1_555
H15 O6 1_555 1_555
O7 C8 1_555 1_555
O8 C5 1_555 1_555
O9 C9 1_555 1_555
O10 C9 1_555 1_555
Cd1A O5 1_555 1_555
Cd1A_2 O5B 1_555 1_555
Cd2B O3 1_555 1_555
Cd2A O5 1_555 1_555
Cd2C O7 1_555 1_555
Cd2C_2 O9 1_555 1_555
Cd2C_3 O5B 1_555 1_555
Cd2A_2 O7B 1_555 1_555
Cd2A_3 O9B 1_555 1_555
C1B C2B 1_555 1_555
C2B H1B 1_555 1_555
C3B C2B 1_555 1_555
C4B C3B 1_555 1_555
H2B C4B 1_555 1_555
C5B C4B 1_555 1_555
C6B C1B 1_555 1_555
H3B C6B 1_555 1_555
C7B C1B 1_555 1_555
C8B C3B 1_555 1_555
C9B C10B 1_555 1_555
C10B C14B 1_555 1_555
C11B H4B 1_555 1_555
H5B C11B 1_555 1_555
C12B C11B 1_555 1_555
C13B C12B 1_555 1_555
H6B C13B 1_555 1_555
C14B C13B 1_555 1_555
H7B C14B 1_555 1_555
C15B C10B 1_555 1_555
H8B C15B 1_555 1_555
C16B C12B 1_555 1_555
H9B C16B 1_555 1_555
O1B Cd1 1_555 1_555
O2B Cd1 1_555 1_555
H10B O2B 1_555 1_555
H11B O2B 1_555 1_555
O3B Cd2 1_555 1_555
O5B C8B 1_555 1_555
O5A Cd1 1_555 1_555
O5C Cd1 1_555 1_555
O5A_2 Cd2 1_555 1_555
O5C_2 Cd2B 1_555 1_555
O7B C8B 1_555 1_555
O7C Cd2 1_555 1_555
O7A Cd2B 1_555 1_555
O8B C5B 1_555 1_555
O9B C9B 1_555 1_555
O9C Cd2 1_555 1_555
O9A Cd2B 1_555 1_555
O10B Cd2A_3 1_555 1_555
O10C Cd2 1_555 1_555
O10A Cd2B 1_555 1_555
C5 C6 1_555 1_555
C11 O8 1_555 1_555
C15 C16 1_555 1_555
O10 Cd2C_2 1_555 1_555
Cd2B O2B 1_555 1_555
C5B C6B 1_555 1_555
C7B O1B 1_555 1_555
C7B O3B 1_555 1_555
C9B O10B 1_555 1_555
C11B O8B 1_555 1_555
C15B C16B 1_555 1_555

#END
