
#######################################################################
#
#                 Cambridge Crystallographic Data Centre
#                                CCDC 
#
#######################################################################
#
# If this CIF has been generated from an entry in the Cambridge 
# Structural Database, then it will include bibliographic, chemical, 
# crystal, experimental, refinement or atomic coordinate data resulting 
# from the CCDC's data processing and validation procedures.
#
#######################################################################

data_IZOWAW
_symmetry_cell_setting           orthorhombic
_symmetry_space_group_name_H-M   'I 2 2 2'
_symmetry_Int_Tables_number      23
_space_group_name_Hall           'I 2 2'
loop_
_symmetry_equiv_pos_site_id
_symmetry_equiv_pos_as_xyz
1 x,y,z
2 -x,-y,z
3 -x,y,-z
4 x,-y,-z
5 1/2+x,1/2+y,1/2+z
6 1/2-x,1/2-y,1/2+z
7 1/2-x,1/2+y,1/2-z
8 1/2+x,1/2-y,1/2-z
_cell_length_a                   21.6212(10)
_cell_length_b                   22.5502(10)
_cell_length_c                   42.1069(17)
_cell_angle_alpha                90
_cell_angle_beta                 90
_cell_angle_gamma                90
_cell_volume                     20529.7
loop_
_atom_site_label
_atom_site_type_symbol
_atom_site_fract_x
_atom_site_fract_y
_atom_site_fract_z
P1 P 0.5000 0.5000 0.75098(5)
O5 O 0.5239(2) 0.4499(2) 0.77148(10)
O16 O 0.5518(3) 0.5256(2) 0.73038(11)
O5A O 0.4761(2) 0.5501(2) 0.77148(10)
O16A O 0.4482(3) 0.4744(2) 0.73038(11)
P2 P 1.0000 0.5000 1.0000
O27 O 0.9587(3) 0.4590(2) 0.97959(9)
O27A O 1.0413(3) 0.5410(2) 0.97959(9)
O27B O 1.0413(3) 0.4590(2) 1.02041(9)
O27C O 0.9587(3) 0.5410(2) 1.02041(9)
Mo1 Mo 0.46495(3) 0.56205(3) 0.832665(14)
Mo2 Mo 0.50420(4) 0.65938(3) 0.773382(16)
Mo3 Mo 0.35855(4) 0.58253(3) 0.772790(17)
Mo4 Mo 0.33401(3) 0.50422(4) 0.728910(16)
Mo5 Mo 0.43508(4) 0.46650(3) 0.669635(15)
Mo6 Mo 0.58580(4) 0.63540(3) 0.729337(17)
Mo7 Mo -0.04539(6) 0.45656(5) 0.918440(18)
Mo8 Mo -0.04426(8) 0.34773(6) 0.97686(3)
Mo9 Mo 0.15711(6) 0.54937(8) 0.97445(2)
Zn1 Zn 0.38221(5) 0.43944(4) 0.80491(2)
Zn2 Zn 0.43690(5) 0.61211(4) 0.69732(2)
Zn3 Zn 0.10197(8) 0.40961(8) 0.94980(3)
O1 O 0.4582(3) 0.5735(2) 0.87339(10)
O2 O 0.3846(3) 0.5743(3) 0.81844(13)
O3 O 0.4977(3) 0.6326(2) 0.81886(10)
O4 O 0.4464(2) 0.4772(2) 0.82875(10)
O6 O 0.5141(3) 0.7314(3) 0.77954(13)
O7 O 0.5862(3) 0.6224(2) 0.77529(12)
O8 O 0.4989(2) 0.64697(18) 0.72806(10)
O9 O 0.4087(3) 0.6616(2) 0.77153(11)
O10 O 0.2823(3) 0.6080(3) 0.77859(14)
O11 O 0.3460(2) 0.49602(18) 0.77449(9)
O12 O 0.3728(3) 0.5823(2) 0.72573(10)
O13 O 0.2557(2) 0.5148(4) 0.72260(12)
O14 O 0.3596(3) 0.5003(3) 0.68387(10)
O15 O 0.3320(2) 0.4098(3) 0.73111(13)
O17 O 0.4239(3) 0.4585(3) 0.62877(10)
O18 O 0.5788(3) 0.6095(3) 0.68506(12)
O19 O 0.4712(3) 0.5481(2) 0.67376(11)
O20 O 0.6180(3) 0.7029(3) 0.72431(13)
O21 O 0.3136(4) 0.4041(3) 0.82970(15)
O22 O 0.1003(3) 0.1767(3) 0.82631(15)
O23 O -0.0573(4) 0.4447(4) 0.88117(14)
O24 O 0.0390(3) 0.4613(4) 0.92673(14)
O25 O -0.0435(5) 0.3722(5) 0.9321(2)
O26 O -0.1336(4) 0.4617(4) 0.93193(15)
O28 O -0.0566(6) 0.2794(3) 0.97114(18)
O29 O 0.0439(4) 0.3648(3) 0.97695(12)
O30 O 0.2380(3) 0.5568(4) 0.9731(2)
O31 O 0.1483(4) 0.4611(4) 0.97917(14)
O32 O 0.1665(4) 0.3866(4) 0.9180(2)
O33 O 0.0807(5) 0.3356(5) 0.9113(3)
O34 O -0.1372(4) 0.3710(4) 0.97527(14)
O35 O 0.2799(3) 0.3718(3) 0.78486(17)
O36 O 0.1293(4) 0.2114(4) 0.78215(12)
C1 C 0.2231(4) 0.3454(4) 0.8264(3)
C2 C 0.1934(4) 0.2993(3) 0.8096(2)
H1 H 0.2012 0.2919 0.7882
C3 C 0.1534(4) 0.2671(3) 0.82639(16)
C4 C 0.1354(5) 0.2861(5) 0.8548(3)
H2 H 0.0999 0.2684 0.8629
C5 C 0.1619(4) 0.3281(4) 0.8734(2)
C6 C 0.2034(4) 0.3619(5) 0.8575(2)
H3 H 0.2191 0.3961 0.8669
C7 C 0.2746(5) 0.3777(4) 0.81092(17)
C8 C 0.1257(5) 0.2145(4) 0.8089(2)
C9 C 0.1341(8) 0.3460(6) 0.9023(2)
Mo1A Mo 0.53505(3) 0.43795(3) 0.832665(14)
Mo1F Mo 0.03505(3) 0.06205(3) 0.667335(14)
Mo1G Mo 0.96495(3) 0.93795(3) 0.667335(14)
Mo1F_2 Mo 0.03505(3) 1.06205(3) 0.667335(14)
Mo1G_2 Mo -0.03505(3) 0.93795(3) 0.667335(14)
Mo1G_3 Mo -0.03505(3) -0.06205(3) 0.667335(14)
Mo2A Mo 0.49580(4) 0.34062(3) 0.773382(16)
Mo2F Mo -0.00420(4) 0.15938(3) 0.726618(16)
Mo2G Mo 1.00420(4) 0.84062(3) 0.726618(16)
Mo3A Mo 0.64145(4) 0.41747(3) 0.772790(17)
Mo3F Mo 0.14145(4) 0.08253(3) 0.727210(17)
Mo3G Mo 0.85855(4) 0.91747(3) 0.727210(17)
Mo4A Mo 0.66599(3) 0.49578(4) 0.728910(16)
Mo4F Mo 0.16599(3) 0.00422(4) 0.771090(16)
Mo4G Mo 0.83401(3) 0.99578(4) 0.771090(16)
Mo5A Mo 0.56492(4) 0.53350(3) 0.669635(15)
Mo5F Mo 0.06492(4) -0.03350(3) 0.830365(15)
Mo5G Mo 0.93508(4) 1.03350(3) 0.830365(15)
Mo5G_2 Mo -0.06492(4) 0.03350(3) 0.830365(15)
Mo5F_2 Mo 1.06492(4) 0.96650(3) 0.830365(15)
Mo6A Mo 0.41420(4) 0.36460(3) 0.729337(17)
Mo6F Mo -0.08580(4) 0.13540(3) 0.770663(17)
Mo6G Mo 1.08580(4) 0.86460(3) 0.770663(17)
Mo6G_2 Mo 0.08580(4) -0.13540(3) 0.770663(17)
Mo6F_2 Mo 0.91420(4) 1.13540(3) 0.770663(17)
Mo7A Mo 1.04539(6) 0.54344(5) 0.918440(18)
Mo7A_2 Mo 0.04539(6) 0.54344(5) 0.918440(18)
Mo7_2 Mo 0.95461(6) 0.45656(5) 0.918440(18)
Mo8A Mo 1.04426(8) 0.65227(6) 0.97686(3)
Mo8B Mo 0.04426(8) 0.34773(6) 1.02314(3)
Mo8C Mo 0.95574(8) 0.65227(6) 1.02314(3)
Mo8A_2 Mo 0.04426(8) 0.65227(6) 0.97686(3)
Mo8_2 Mo 0.95574(8) 0.34773(6) 0.97686(3)
Mo9A Mo 0.84289(6) 0.45063(8) 0.97445(2)
Mo9C Mo 0.15711(6) 0.45063(8) 1.02555(2)
Mo9B Mo 0.84289(6) 0.54937(8) 1.02555(2)
Mo9A_2 Mo -0.15711(6) 0.45063(8) 0.97445(2)
Mo9_2 Mo 1.15711(6) 0.54937(8) 0.97445(2)
Zn1A Zn 0.61779(5) 0.56056(4) 0.80491(2)
Zn1F Zn 0.11779(5) 0.93944(4) 0.69509(2)
Zn1G Zn -0.11779(5) 0.06056(4) 0.69509(2)
Zn1F_2 Zn 1.11779(5) 0.93944(4) 0.69509(2)
Zn1F_3 Zn 0.11779(5) -0.06056(4) 0.69509(2)
Zn1G_2 Zn 0.88221(5) 1.06056(4) 0.69509(2)
Zn1G_3 Zn 0.88221(5) 0.06056(4) 0.69509(2)
Zn2F Zn 0.06310(5) 0.11211(4) 0.80268(2)
Zn2G Zn 0.93690(5) 0.88789(4) 0.80268(2)
Zn2A Zn 0.56310(5) 0.38789(4) 0.69732(2)
Zn3A Zn 0.89803(8) 0.59039(8) 0.94980(3)
Zn3F Zn 0.39803(8) 0.90961(8) 0.55020(3)
Zn3G Zn 0.60197(8) 0.09039(8) 0.55020(3)
Zn3A_2 Zn -0.10197(8) 0.59039(8) 0.94980(3)
Zn3B Zn -0.10197(8) 0.40961(8) 1.05020(3)
Zn3C Zn 0.10197(8) 0.59039(8) 1.05020(3)
Zn3_2 Zn 1.10197(8) 0.40961(8) 0.94980(3)
Zn3C_2 Zn 1.10197(8) 0.59039(8) 1.05020(3)
Zn3B_2 Zn 0.89803(8) 0.40961(8) 1.05020(3)
O1A O 0.5418(3) 0.4265(2) 0.87339(10)
O1F O 0.0418(3) 0.0735(2) 0.62661(10)
O1G O 0.9582(3) 0.9265(2) 0.62661(10)
O2A O 0.6154(3) 0.4257(3) 0.81844(13)
O2F O 0.1154(3) 0.0743(3) 0.68156(13)
O2G O 0.8846(3) 0.9257(3) 0.68156(13)
O3A O 0.5023(3) 0.3674(2) 0.81886(10)
O3F O 0.0023(3) 0.1326(2) 0.68114(10)
O3G O 0.9977(3) 0.8674(2) 0.68114(10)
O4A O 0.5536(2) 0.5228(2) 0.82875(10)
O4F O 0.0536(2) 0.9772(2) 0.67125(10)
O4F_2 O 0.0536(2) -0.0228(2) 0.67125(10)
O4G O -0.0536(2) 0.0228(2) 0.67125(10)
O4G_2 O 0.9464(2) 1.0228(2) 0.67125(10)
O4F_3 O 1.0536(2) 0.9772(2) 0.67125(10)
O6A O 0.4859(3) 0.2686(3) 0.77954(13)
O6F O -0.0141(3) 0.2314(3) 0.72046(13)
O6G O 1.0141(3) 0.7686(3) 0.72046(13)
O7A O 0.4138(3) 0.3776(2) 0.77529(12)
O7F O -0.0862(3) 0.1224(2) 0.72471(12)
O7G O 1.0862(3) 0.8776(2) 0.72471(12)
O7G_2 O 0.0862(3) 0.8776(2) 0.72471(12)
O8A O 0.5011(2) 0.35303(18) 0.72806(10)
O8F O 0.0011(2) 0.14697(18) 0.77194(10)
O8G O 0.9989(2) 0.85303(18) 0.77194(10)
O9A O 0.5913(3) 0.3384(2) 0.77153(11)
O9F O 0.0913(3) 0.1616(2) 0.72847(11)
O9G O 0.9087(3) 0.8384(2) 0.72847(11)
O10A O 0.7177(3) 0.3920(3) 0.77859(14)
O10F O 0.2177(3) 0.1080(3) 0.72141(14)
O10G O 0.7823(3) 0.8920(3) 0.72141(14)
O11A O 0.6540(2) 0.50398(18) 0.77449(9)
O11F O 0.1540(2) -0.00398(18) 0.72551(9)
O11G O 0.8460(2) 1.00398(18) 0.72551(9)
O11F_2 O 0.1540(2) 0.99602(18) 0.72551(9)
O11G_2 O -0.1540(2) 0.00398(18) 0.72551(9)
O12A O 0.6272(3) 0.4177(2) 0.72573(10)
O12F O 0.1272(3) 0.0823(2) 0.77427(10)
O12G O 0.8728(3) 0.9177(2) 0.77427(10)
O13A O 0.7443(2) 0.4852(4) 0.72260(12)
O13F O 0.2443(2) 0.0148(4) 0.77740(12)
O13G O 0.7557(2) 0.9852(4) 0.77740(12)
O14A O 0.6404(3) 0.4997(3) 0.68387(10)
O14F O 0.1404(3) 0.0003(3) 0.81613(10)
O14G O 0.8596(3) 0.9997(3) 0.81613(10)
O15A O 0.6680(2) 0.5902(3) 0.73111(13)
O15F O 0.1680(2) -0.0902(3) 0.76889(13)
O15G O 0.8320(2) 1.0902(3) 0.76889(13)
O15G_2 O -0.1680(2) 0.0902(3) 0.76889(13)
O15F_2 O 1.1680(2) 0.9098(3) 0.76889(13)
O17A O 0.5761(3) 0.5415(3) 0.62877(10)
O17F O 0.0761(3) -0.0415(3) 0.87123(10)
O17G O 0.9239(3) 1.0415(3) 0.87123(10)
O18A O 0.4212(3) 0.3905(3) 0.68506(12)
O18G O 0.0788(3) -0.1095(3) 0.81494(12)
O18F O 0.9212(3) 1.1095(3) 0.81494(12)
O18F_2 O -0.0788(3) 0.1095(3) 0.81494(12)
O18G_2 O 1.0788(3) 0.8905(3) 0.81494(12)
O19F O 0.0288(3) 0.0481(2) 0.82624(11)
O19G O 0.9712(3) 0.9519(2) 0.82624(11)
O19A O 0.5288(3) 0.4519(2) 0.67376(11)
O19G_2 O -0.0288(3) -0.0481(2) 0.82624(11)
O19F_2 O 1.0288(3) 1.0481(2) 0.82624(11)
O20A O 0.3820(3) 0.2971(3) 0.72431(13)
O20F O -0.1180(3) 0.2029(3) 0.77569(13)
O20G O 1.1180(3) 0.7971(3) 0.77569(13)
O21A O 0.6864(4) 0.5959(3) 0.82970(15)
O21F O 0.1864(4) 0.9041(3) 0.67030(15)
O21G O 0.8136(4) 0.0959(3) 0.67030(15)
O21G_2 O -0.1864(4) 0.0959(3) 0.67030(15)
O22A O 0.8997(3) 0.8233(3) 0.82631(15)
O22F O 0.3997(3) 0.6767(3) 0.67369(15)
O22G O 0.6003(3) 0.3233(3) 0.67369(15)
O23A O 1.0573(4) 0.5553(4) 0.88117(14)
O23A_2 O 0.0573(4) 0.5553(4) 0.88117(14)
O23_2 O 0.9427(4) 0.4447(4) 0.88117(14)
O24A O 0.9610(3) 0.5387(4) 0.92673(14)
O24A_2 O -0.0390(3) 0.5387(4) 0.92673(14)
O24_2 O 1.0390(3) 0.4613(4) 0.92673(14)
O24F O 0.4610(3) 0.9613(4) 0.57327(14)
O24G O 0.5390(3) 0.0387(4) 0.57327(14)
O25A O 1.0435(5) 0.6278(5) 0.9321(2)
O25A_2 O 0.0435(5) 0.6278(5) 0.9321(2)
O25_2 O 0.9565(5) 0.3722(5) 0.9321(2)
O25B O 0.0435(5) 0.3722(5) 1.0679(2)
O25C O 0.9565(5) 0.6278(5) 1.0679(2)
O26A O 0.1336(4) 0.5383(4) 0.93193(15)
O26A_2 O 1.1336(4) 0.5383(4) 0.93193(15)
O26_2 O 0.8664(4) 0.4617(4) 0.93193(15)
O26B O 0.1336(4) 0.4617(4) 1.06807(15)
O26C O 0.8664(4) 0.5383(4) 1.06807(15)
O28A O 1.0566(6) 0.7206(3) 0.97114(18)
O28B O 0.0566(6) 0.2794(3) 1.02886(18)
O28C O 0.9434(6) 0.7206(3) 1.02886(18)
O29A O 0.9561(4) 0.6352(3) 0.97695(12)
O29B O -0.0439(4) 0.3648(3) 1.02305(12)
O29C O 1.0439(4) 0.6352(3) 1.02305(12)
O29F O 0.4561(4) 0.8648(3) 0.52305(12)
O29G O 0.5439(4) 0.1352(3) 0.52305(12)
O30A O 0.7620(3) 0.4432(4) 0.9731(2)
O30C O 0.2380(3) 0.4432(4) 1.0269(2)
O30B O 0.7620(3) 0.5568(4) 1.0269(2)
O31A O 0.8517(4) 0.5389(4) 0.97917(14)
O31C O 0.1483(4) 0.5389(4) 1.02083(14)
O31B O 0.8517(4) 0.4611(4) 1.02083(14)
O31F O 0.3517(4) 0.9611(4) 0.52083(14)
O31G O 0.6483(4) 0.0389(4) 0.52083(14)
O32A O 0.8335(4) 0.6134(4) 0.9180(2)
O32F O 0.3335(4) 0.8866(4) 0.5820(2)
O32G O 0.6665(4) 0.1134(4) 0.5820(2)
O33A O 0.9193(5) 0.6644(5) 0.9113(3)
O33F O 0.4193(5) 0.8356(5) 0.5887(3)
O33G O 0.5807(5) 0.1644(5) 0.5887(3)
O34A O 0.1372(4) 0.6290(4) 0.97527(14)
O34A_2 O 1.1372(4) 0.6290(4) 0.97527(14)
O34B O 0.1372(4) 0.3710(4) 1.02473(14)
O34C O 0.8628(4) 0.6290(4) 1.02473(14)
O34_2 O 0.8628(4) 0.3710(4) 0.97527(14)
O35A O 0.7201(3) 0.6282(3) 0.78486(17)
O35F O 0.2201(3) 0.8718(3) 0.71514(17)
O35G O 0.7799(3) 0.1282(3) 0.71514(17)
O36A O 0.8707(4) 0.7886(4) 0.78215(12)
O36F O 0.3707(4) 0.7114(4) 0.71785(12)
O36G O 0.6293(4) 0.2886(4) 0.71785(12)
C1A C 0.7769(4) 0.6546(4) 0.8264(3)
C1F C 0.2769(4) 0.8454(4) 0.6736(3)
C1G C 0.7231(4) 0.1546(4) 0.6736(3)
C2A C 0.8066(4) 0.7007(3) 0.8096(2)
C2F C 0.3066(4) 0.7993(3) 0.6904(2)
C2G C 0.6934(4) 0.2007(3) 0.6904(2)
H1A H 0.7988 0.7081 0.7882
H1F H 0.2988 0.7919 0.7118
H1G H 0.7012 0.2081 0.7118
C3A C 0.8466(4) 0.7329(3) 0.82639(16)
C3F C 0.3466(4) 0.7671(3) 0.67361(16)
C3G C 0.6534(4) 0.2329(3) 0.67361(16)
C4A C 0.8646(5) 0.7139(5) 0.8548(3)
C4F C 0.3646(5) 0.7861(5) 0.6452(3)
C4G C 0.6354(5) 0.2139(5) 0.6452(3)
H2A H 0.9001 0.7316 0.8629
H2F H 0.4001 0.7684 0.6371
H2G H 0.5999 0.2316 0.6371
C5A C 0.8381(4) 0.6719(4) 0.8734(2)
C5F C 0.3381(4) 0.8281(4) 0.6266(2)
C5G C 0.6619(4) 0.1719(4) 0.6266(2)
C6A C 0.7966(4) 0.6381(5) 0.8575(2)
C6F C 0.2966(4) 0.8619(5) 0.6425(2)
C6G C 0.7034(4) 0.1381(5) 0.6425(2)
H3A H 0.7809 0.6039 0.8669
H3F H 0.2809 0.8961 0.6331
H3G H 0.7191 0.1039 0.6331
C7A C 0.7254(5) 0.6223(4) 0.81092(17)
C7F C 0.2254(5) 0.8777(4) 0.68908(17)
C7G C 0.7746(5) 0.1223(4) 0.68908(17)
C8A C 0.8743(5) 0.7855(4) 0.8089(2)
C8F C 0.3743(5) 0.7145(4) 0.6911(2)
C8G C 0.6257(5) 0.2855(4) 0.6911(2)
C9A C 0.8659(8) 0.6540(6) 0.9023(2)
C9F C 0.3659(8) 0.8460(6) 0.5977(2)
C9G C 0.6341(8) 0.1540(6) 0.5977(2)
loop_
_geom_bond_atom_site_label_1
_geom_bond_atom_site_label_2
_geom_bond_site_symmetry_1
_geom_bond_site_symmetry_2
Mo1 O1 1_555 1_555
Mo2 O3 1_555 1_555
Mo3 O2 1_555 1_555
Mo4 O11 1_555 1_555
Mo5 O14 1_555 1_555
Mo6 O7 1_555 1_555
Mo7 O23 1_555 1_555
Mo8 O25 1_555 1_555
Mo9 O30 1_555 1_555
Zn1 O4 1_555 1_555
Zn2 O8 1_555 1_555
Zn3 O24 1_555 1_555
P1 O5 1_555 1_555
P2 O27 1_555 1_555
O2 Mo1 1_555 1_555
O3 Mo1 1_555 1_555
O4 Mo1 1_555 1_555
O6 Mo2 1_555 1_555
O7 Mo2 1_555 1_555
O8 Mo2 1_555 1_555
O9 Mo2 1_555 1_555
O10 Mo3 1_555 1_555
O11 Mo3 1_555 1_555
O12 Mo3 1_555 1_555
O13 Mo4 1_555 1_555
O14 Mo4 1_555 1_555
O15 Mo4 1_555 1_555
O16 P1 1_555 1_555
O17 Mo5 1_555 1_555
O18 Mo6 1_555 1_555
O19 Mo5 1_555 1_555
O20 Mo6 1_555 1_555
O21 Zn1 1_555 1_555
O22 C8 1_555 1_555
O24 Mo7 1_555 1_555
O25 Mo7 1_555 1_555
O26 Mo7 1_555 1_555
O28 Mo8 1_555 1_555
O29 Mo8 1_555 1_555
O31 Mo9 1_555 1_555
O32 Zn3 1_555 1_555
O33 Zn3 1_555 1_555
O34 Mo8 1_555 1_555
O35 C7 1_555 1_555
O36 C8 1_555 1_555
C1 C2 1_555 1_555
C2 H1 1_555 1_555
C3 C2 1_555 1_555
C4 C3 1_555 1_555
H2 C4 1_555 1_555
C5 C4 1_555 1_555
C6 C1 1_555 1_555
H3 C6 1_555 1_555
C7 O21 1_555 1_555
C8 C3 1_555 1_555
C9 O32 1_555 1_555
Mo1A O4 1_555 1_555
Mo1F O1F 1_555 1_555
Mo1G O1G 1_555 1_555
Mo1F_2 O4F 1_555 1_555
Mo1G_2 O4F 1_555 1_555
Mo1G_3 O4F_2 1_555 1_555
Mo2A O3A 1_555 1_555
Mo2F O3F 1_555 1_555
Mo2G O3G 1_555 1_555
Mo3A O2A 1_555 1_555
Mo3F O2F 1_555 1_555
Mo3G O2G 1_555 1_555
Mo4A O11A 1_555 1_555
Mo4F O11F 1_555 1_555
Mo4G O11G 1_555 1_555
Mo5A O18 1_555 1_555
Mo5F O14F 1_555 1_555
Mo5G O14G 1_555 1_555
Mo5G_2 O18F_2 1_555 1_555
Mo5F_2 O18G_2 1_555 1_555
Mo6A O15 1_555 1_555
Mo6F O7F 1_555 1_555
Mo6G O7G 1_555 1_555
Mo6G_2 O15F 1_555 1_555
Mo6F_2 O15G 1_555 1_555
Mo7A O23A 1_555 1_555
Mo7A_2 O24 1_555 1_555
Mo7_2 O23_2 1_555 1_555
Mo8A O25A 1_555 1_555
Mo8B O29 1_555 1_555
Mo8C O25C 1_555 1_555
Mo8A_2 O25A_2 1_555 1_555
Mo8_2 O25_2 1_555 1_555
Mo9A O26_2 1_555 1_555
Mo9C O31 1_555 1_555
Mo9B O26C 1_555 1_555
Mo9A_2 O26 1_555 1_555
Mo9_2 O26A_2 1_555 1_555
Zn1A O7 1_555 1_555
Zn1F O4F 1_555 1_555
Zn1G O4G 1_555 1_555
Zn1F_2 O4F_3 1_555 1_555
Zn1F_3 O4F_2 1_555 1_555
Zn1G_2 O4G_2 1_555 1_555
Zn1G_3 O21G 1_555 1_555
Zn2F O22 1_555 1_555
Zn2G O8G 1_555 1_555
Zn2A O8A 1_555 1_555
Zn3A O24A 1_555 1_555
Zn3F O24F 1_555 1_555
Zn3G O24G 1_555 1_555
Zn3A_2 O24A_2 1_555 1_555
Zn3B O29B 1_555 1_555
Zn3C O31C 1_555 1_555
Zn3_2 O24_2 1_555 1_555
Zn3C_2 O29C 1_555 1_555
Zn3B_2 O31B 1_555 1_555
O1A Mo1A 1_555 1_555
O2A Mo1A 1_555 1_555
O2F Mo1F 1_555 1_555
O2G Mo1G 1_555 1_555
O3A Mo1A 1_555 1_555
O3F Mo1F 1_555 1_555
O3G Mo1G 1_555 1_555
O4A Mo1 1_555 1_555
O4F_2 Mo1F 1_555 1_555
O4G Mo1F 1_555 1_555
O4G_2 Mo1G 1_555 1_555
O4F_3 Mo1G 1_555 1_555
O5A P1 1_555 1_555
O6A Mo2A 1_555 1_555
O6F Mo2F 1_555 1_555
O6G Mo2G 1_555 1_555
O7A Zn1 1_555 1_555
O7F Mo2F 1_555 1_555
O7G Mo2G 1_555 1_555
O7G_2 Zn1F 1_555 1_555
O8A Mo2A 1_555 1_555
O8F Mo2F 1_555 1_555
O8G Mo2G 1_555 1_555
O9A Mo2A 1_555 1_555
O9F Mo2F 1_555 1_555
O9G Mo2G 1_555 1_555
O10A Mo3A 1_555 1_555
O10F Mo3F 1_555 1_555
O10G Mo3G 1_555 1_555
O11A Mo3A 1_555 1_555
O11F Mo3F 1_555 1_555
O11G Mo3G 1_555 1_555
O11F_2 Zn1F 1_555 1_555
O11G_2 Zn1G 1_555 1_555
O12A Mo3A 1_555 1_555
O12F Mo3F 1_555 1_555
O12G Mo3G 1_555 1_555
O13A Mo4A 1_555 1_555
O13F Mo4F 1_555 1_555
O13G Mo4G 1_555 1_555
O14A Mo4A 1_555 1_555
O14F Mo4F 1_555 1_555
O14G Mo4G 1_555 1_555
O15A Mo6 1_555 1_555
O15F Mo4F 1_555 1_555
O15G Mo4G 1_555 1_555
O15G_2 Mo6F 1_555 1_555
O15F_2 Mo6G 1_555 1_555
O16A P1 1_555 1_555
O17A Mo5A 1_555 1_555
O17F Mo5F 1_555 1_555
O17G Mo5G 1_555 1_555
O18A Mo5 1_555 1_555
O18G Mo5F 1_555 1_555
O18F Mo5G 1_555 1_555
O18F_2 Mo6F 1_555 1_555
O18G_2 Mo6G 1_555 1_555
O19F Mo5F 1_555 1_555
O19G Mo5G 1_555 1_555
O19A Mo5 1_555 1_555
O19G_2 Mo5F 1_555 1_555
O19F_2 Mo5G 1_555 1_555
O20A Mo6A 1_555 1_555
O20F Mo6F 1_555 1_555
O20G Mo6G 1_555 1_555
O21A Zn1A 1_555 1_555
O21F Zn1F 1_555 1_555
O21G C7G 1_555 1_555
O21G_2 Zn1G 1_555 1_555
O22A Zn2G 1_555 1_555
O22F Zn2 1_555 1_555
O22G Zn2A 1_555 1_555
O23A_2 Mo7A_2 1_555 1_555
O24A Mo7A 1_555 1_555
O24A_2 Mo7 1_555 1_555
O24_2 Mo7A 1_555 1_555
O25A Mo7A 1_555 1_555
O25A_2 Mo7A_2 1_555 1_555
O25_2 Mo7_2 1_555 1_555
O25B Mo8B 1_555 1_555
O26A Mo9 1_555 1_555
O26A_2 Mo7A 1_555 1_555
O26_2 Mo7_2 1_555 1_555
O26B Mo9C 1_555 1_555
O27A P2 1_555 1_555
O27B P2 1_555 1_555
O27C P2 1_555 1_555
O28A Mo8A 1_555 1_555
O28B Mo8B 1_555 1_555
O28C Mo8C 1_555 1_555
O29A Mo8A 1_555 1_555
O29B Mo8 1_555 1_555
O29C Mo8A 1_555 1_555
O29F Zn3F 1_555 1_555
O29G Zn3G 1_555 1_555
O30A Mo9A 1_555 1_555
O30C Mo9C 1_555 1_555
O30B Mo9B 1_555 1_555
O31A Mo9A 1_555 1_555
O31C Mo9 1_555 1_555
O31B Mo9A 1_555 1_555
O31F Zn3F 1_555 1_555
O31G Zn3G 1_555 1_555
O32A Zn3A 1_555 1_555
O32F Zn3F 1_555 1_555
O32G Zn3G 1_555 1_555
O33A Zn3A 1_555 1_555
O33F Zn3F 1_555 1_555
O33G Zn3G 1_555 1_555
O34A Mo9 1_555 1_555
O34A_2 Mo8A 1_555 1_555
O34B Mo8B 1_555 1_555
O34C Mo8C 1_555 1_555
O34_2 Mo8_2 1_555 1_555
O35A C7A 1_555 1_555
O35F C7F 1_555 1_555
O35G C7G 1_555 1_555
O36A C8A 1_555 1_555
O36F C8F 1_555 1_555
O36G C8G 1_555 1_555
C1A C2A 1_555 1_555
C1F C2F 1_555 1_555
C1G C2G 1_555 1_555
C2A H1A 1_555 1_555
C2F H1F 1_555 1_555
C2G H1G 1_555 1_555
C3A C2A 1_555 1_555
C3F C2F 1_555 1_555
C3G C2G 1_555 1_555
C4A C3A 1_555 1_555
C4F C3F 1_555 1_555
C4G C3G 1_555 1_555
H2A C4A 1_555 1_555
H2F C4F 1_555 1_555
H2G C4G 1_555 1_555
C5A C4A 1_555 1_555
C5F C4F 1_555 1_555
C5G C4G 1_555 1_555
C6A C1A 1_555 1_555
C6F C1F 1_555 1_555
C6G C1G 1_555 1_555
H3A C6A 1_555 1_555
H3F C6F 1_555 1_555
H3G C6G 1_555 1_555
C7A O21A 1_555 1_555
C7F O21F 1_555 1_555
C7G C1G 1_555 1_555
C8A O22A 1_555 1_555
C8F O22F 1_555 1_555
C8G O22G 1_555 1_555
C9A O32A 1_555 1_555
C9F O32F 1_555 1_555
C9G O32G 1_555 1_555
Mo3 O9 1_555 1_555
Mo4 O12 1_555 1_555
Mo6 O8 1_555 1_555
Zn1 O11 1_555 1_555
Zn2 O12 1_555 1_555
Zn2 O19 1_555 1_555
Zn3 O29 1_555 1_555
Zn3 O31 1_555 1_555
O19 Mo5A 1_555 1_555
O33 C9 1_555 1_555
O34 Mo9A_2 1_555 1_555
C1 C7 1_555 1_555
C5 C6 1_555 1_555
C5 C9 1_555 1_555
Mo1A O4A 1_555 1_555
Mo1G_3 O4G 1_555 1_555
Mo2A O7A 1_555 1_555
Mo3A O9A 1_555 1_555
Mo3F O9F 1_555 1_555
Mo3G O9G 1_555 1_555
Mo4A O12A 1_555 1_555
Mo4A O15A 1_555 1_555
Mo4F O12F 1_555 1_555
Mo4G O12G 1_555 1_555
Mo5A O14A 1_555 1_555
Mo5A O19A 1_555 1_555
Mo5G_2 O19F 1_555 1_555
Mo5G_2 O19G_2 1_555 1_555
Mo5F_2 O19G 1_555 1_555
Mo5F_2 O19F_2 1_555 1_555
Mo6A O7A 1_555 1_555
Mo6A O8A 1_555 1_555
Mo6A O18A 1_555 1_555
Mo6F O8F 1_555 1_555
Mo6G O8G 1_555 1_555
Mo6G_2 O18G 1_555 1_555
Mo6F_2 O18F 1_555 1_555
Mo7A_2 O24A_2 1_555 1_555
Mo7A_2 O26A 1_555 1_555
Mo7_2 O24A 1_555 1_555
Mo7_2 O24_2 1_555 1_555
Mo8B O29B 1_555 1_555
Mo8C O29A 1_555 1_555
Mo8C O29C 1_555 1_555
Mo8A_2 O34A 1_555 1_555
Mo9A O34_2 1_555 1_555
Mo9C O31C 1_555 1_555
Mo9C O34B 1_555 1_555
Mo9B O31A 1_555 1_555
Mo9B O31B 1_555 1_555
Mo9B O34C 1_555 1_555
Mo9_2 O34A_2 1_555 1_555
Zn1A O4A 1_555 1_555
Zn1A O11A 1_555 1_555
Zn1G O7F 1_555 1_555
Zn1F_2 O7G 1_555 1_555
Zn1F_3 O11F 1_555 1_555
Zn1G_2 O11G 1_555 1_555
Zn2F O8F 1_555 1_555
Zn2F O12F 1_555 1_555
Zn2F O19F 1_555 1_555
Zn2G O12G 1_555 1_555
Zn2G O19G 1_555 1_555
Zn2A O12A 1_555 1_555
Zn2A O19A 1_555 1_555
Zn3A O29A 1_555 1_555
Zn3A O31A 1_555 1_555
O33A C9A 1_555 1_555
O33F C9F 1_555 1_555
O33G C9G 1_555 1_555
C1A C7A 1_555 1_555
C1F C7F 1_555 1_555
C3A C8A 1_555 1_555
C3F C8F 1_555 1_555
C3G C8G 1_555 1_555
C5A C6A 1_555 1_555
C5A C9A 1_555 1_555
C5F C6F 1_555 1_555
C5F C9F 1_555 1_555
C5G C6G 1_555 1_555
C5G C9G 1_555 1_555

#END
