
#######################################################################
#
#                 Cambridge Crystallographic Data Centre
#                                CCDC 
#
#######################################################################
#
# If this CIF has been generated from an entry in the Cambridge 
# Structural Database, then it will include bibliographic, chemical, 
# crystal, experimental, refinement or atomic coordinate data resulting 
# from the CCDC's data processing and validation procedures.
#
#######################################################################

data_JEJWIF
_symmetry_cell_setting           triclinic
_symmetry_space_group_name_H-M   'P -1'
_symmetry_Int_Tables_number      2
_space_group_name_Hall           '-P 1'
loop_
_symmetry_equiv_pos_site_id
_symmetry_equiv_pos_as_xyz
1 x,y,z
2 -x,-y,-z
_cell_length_a                   13.703(3)
_cell_length_b                   14.120(3)
_cell_length_c                   15.810(4)
_cell_angle_alpha                105.069(4)
_cell_angle_beta                 103.355(4)
_cell_angle_gamma                109.052(5)
_cell_volume                     2619.52
loop_
_atom_site_label
_atom_site_type_symbol
_atom_site_fract_x
_atom_site_fract_y
_atom_site_fract_z
Co1 Co 0.0000 0.0000 0.0000
Co2 Co 1.02888(6) 0.10451(5) 0.83952(5)
C1 C 0.9481(7) 0.1824(5) 0.7259(5)
C2 C 0.9267(5) 0.2534(4) 0.6753(4)
C3 C 1.0052(5) 0.3483(4) 0.6885(4)
H1 H 1.0773 0.3682 0.7277
C4 C 0.9849(5) 0.4164(4) 0.6478(4)
H2 H 1.0421 0.4822 0.6591
C5 C 0.8759(5) 0.3879(4) 0.5873(4)
C6 C 0.7938(5) 0.2899(4) 0.5697(5)
H3 H 0.7221 0.2683 0.5289
C7 C 0.8205(6) 0.2224(5) 0.6152(5)
H4 H 0.7654 0.1555 0.6046
C8 C 0.2192(5) 0.1269(4) -0.0215(5)
C9 C 0.3394(4) 0.1646(4) 0.0213(4)
C10 C 0.3815(5) 0.1704(4) 0.1099(4)
H5 H 0.3334 0.1479 0.1415
C11 C 0.4946(5) 0.2090(4) 0.1551(4)
H6 H 0.5224 0.2117 0.2163
C12 C 0.5650(4) 0.2429(4) 0.1091(4)
C13 C 0.5216(5) 0.2340(4) 0.0193(4)
H7 H 0.5686 0.2543 -0.0138
C14 C 0.4104(5) 0.1958(4) -0.0231(4)
H8 H 0.3824 0.1910 -0.0849
C15 C 0.6958(4) 0.4089(4) 0.3029(4)
H9 H 0.6466 0.4316 0.2707
C16 C 0.7376(4) 0.4508(4) 0.3989(4)
H10 H 0.7157 0.5011 0.4318
C17 C 0.8114(4) 0.4199(4) 0.4476(4)
C18 C 0.8434(4) 0.3477(4) 0.3988(4)
H11 H 0.8947 0.3269 0.4307
C19 C 0.7995(4) 0.3047(4) 0.3008(4)
H12 H 0.8218 0.2549 0.2677
C20 C 0.7259(4) 0.3336(4) 0.2533(4)
C21 C 0.7491(4) 0.2633(4) 0.1052(4)
C22 C 0.8419(4) 0.3451(4) 0.1124(4)
H13 H 0.8588 0.4167 0.1481
C23 C 0.9099(5) 0.3217(4) 0.0671(4)
H14 H 0.9727 0.3779 0.0706
C24 C 0.8875(4) 0.2162(4) 0.0162(4)
C25 C 0.7955(5) 0.1357(4) 0.0117(4)
H15 H 0.7807 0.0638 -0.0209
C26 C 0.7245(5) 0.1578(4) 0.0536(4)
H16 H 0.6598 0.1018 0.0475
C27 C 0.8742(4) 0.5616(4) 0.6030(4)
C28 C 0.8740(5) 0.5798(4) 0.6929(4)
H17 H 0.8543 0.5220 0.7137
C29 C 0.9032(5) 0.6839(4) 0.7529(4)
H18 H 0.9042 0.6956 0.8145
C30 C 0.9302(4) 0.7688(4) 0.7245(4)
C31 C 0.9275(4) 0.7486(4) 0.6342(4)
H19 H 0.9442 0.8063 0.6130
C32 C 0.9015(4) 0.6479(4) 0.5739(4)
H20 H 0.9021 0.6373 0.5128
C33 C 0.9642(5) 0.8809(5) 0.7917(5)
C34 C 0.9629(5) 0.1934(5) -0.0320(4)
N1 N 0.8503(4) 0.4569(3) 0.5460(3)
N2 N 0.6801(4) 0.2872(3) 0.1548(3)
O1 O 1.0451(4) 0.1995(3) 0.7626(3)
O2 O 0.8714(5) 0.1138(4) 0.7335(4)
O3 O 0.1865(3) 0.1392(3) -0.0976(3)
O4 O 0.1600(3) 0.0880(3) 0.0209(3)
O5 O 1.0364(4) 0.2657(3) -0.0382(3)
O6 O 0.9768(3) 0.9539(3) 0.7567(3)
O7 O 0.9762(3) 0.8922(3) 0.8746(3)
O8 O 0.9438(3) 0.0942(3) -0.0721(3)
Co1_2 Co 1.0000 1.0000 1.0000
Co1_3 Co 1.0000 0.0000 0.0000
Co1_4 Co -1.0000 -1.0000 -1.0000
Co1_5 Co -1.0000 0.0000 0.0000
Co2A Co -1.02888(6) -0.10451(5) -0.83952(5)
Co2_2 Co 0.02888(6) 0.10451(5) -0.16048(5)
Co2_3 Co 1.02888(6) 1.10451(5) 0.83952(5)
Co2_4 Co 1.02888(6) 0.10451(5) -0.16048(5)
Co2A_2 Co -0.02888(6) -0.10451(5) 0.16048(5)
Co2A_3 Co -1.02888(6) -1.10451(5) -0.83952(5)
Co2A_4 Co -1.02888(6) -0.10451(5) 0.16048(5)
C1A C -0.9481(7) -0.1824(5) -0.7259(5)
C2A C -0.9267(5) -0.2534(4) -0.6753(4)
C3A C -1.0052(5) -0.3483(4) -0.6885(4)
H1A H -1.0773 -0.3682 -0.7277
C4A C -0.9849(5) -0.4164(4) -0.6478(4)
H2A H -1.0421 -0.4822 -0.6591
C5A C -0.8759(5) -0.3879(4) -0.5873(4)
C6A C -0.7938(5) -0.2899(4) -0.5697(5)
H3A H -0.7221 -0.2683 -0.5289
C7A C -0.8205(6) -0.2224(5) -0.6152(5)
H4A H -0.7654 -0.1555 -0.6046
C8A C -0.2192(5) -0.1269(4) 0.0215(5)
C9A C -0.3394(4) -0.1646(4) -0.0213(4)
C10A C -0.3815(5) -0.1704(4) -0.1099(4)
H5A H -0.3334 -0.1479 -0.1415
C11A C -0.4946(5) -0.2090(4) -0.1551(4)
H6A H -0.5224 -0.2117 -0.2163
C12A C -0.5650(4) -0.2429(4) -0.1091(4)
C13A C -0.5216(5) -0.2340(4) -0.0193(4)
H7A H -0.5686 -0.2543 0.0138
C14A C -0.4104(5) -0.1958(4) 0.0231(4)
H8A H -0.3824 -0.1910 0.0849
C15A C -0.6958(4) -0.4089(4) -0.3029(4)
H9A H -0.6466 -0.4316 -0.2707
C16A C -0.7376(4) -0.4508(4) -0.3989(4)
H10A H -0.7157 -0.5011 -0.4318
C17A C -0.8114(4) -0.4199(4) -0.4476(4)
C18A C -0.8434(4) -0.3477(4) -0.3988(4)
H11A H -0.8947 -0.3269 -0.4307
C19A C -0.7995(4) -0.3047(4) -0.3008(4)
H12A H -0.8218 -0.2549 -0.2677
C20A C -0.7259(4) -0.3336(4) -0.2533(4)
C21A C -0.7491(4) -0.2633(4) -0.1052(4)
C22A C -0.8419(4) -0.3451(4) -0.1124(4)
H13A H -0.8588 -0.4167 -0.1481
C23A C -0.9099(5) -0.3217(4) -0.0671(4)
H14A H -0.9727 -0.3779 -0.0706
C24A C -0.8875(4) -0.2162(4) -0.0162(4)
C25A C -0.7955(5) -0.1357(4) -0.0117(4)
H15A H -0.7807 -0.0638 0.0209
C26A C -0.7245(5) -0.1578(4) -0.0536(4)
H16A H -0.6598 -0.1018 -0.0475
C27A C -0.8742(4) -0.5616(4) -0.6030(4)
C28A C -0.8740(5) -0.5798(4) -0.6929(4)
H17A H -0.8543 -0.5220 -0.7137
C29A C -0.9032(5) -0.6839(4) -0.7529(4)
H18A H -0.9042 -0.6956 -0.8145
C30A C -0.9302(4) -0.7688(4) -0.7245(4)
C31A C -0.9275(4) -0.7486(4) -0.6342(4)
H19A H -0.9442 -0.8063 -0.6130
C32A C -0.9015(4) -0.6479(4) -0.5739(4)
H20A H -0.9021 -0.6373 -0.5128
C33A C -0.9642(5) -0.8809(5) -0.7917(5)
C34A C -0.9629(5) -0.1934(5) 0.0320(4)
N1A N -0.8503(4) -0.4569(3) -0.5460(3)
N2A N -0.6801(4) -0.2872(3) -0.1548(3)
O1A O -1.0451(4) -0.1995(3) -0.7626(3)
O2A O -0.8714(5) -0.1138(4) -0.7335(4)
O3A O -0.1865(3) -0.1392(3) 0.0976(3)
O3_2 O 1.1865(3) 0.1392(3) 0.9024(3)
O3A_2 O -1.1865(3) -0.1392(3) -0.9024(3)
O4A O -0.1600(3) -0.0880(3) -0.0209(3)
O5A O -1.0364(4) -0.2657(3) 0.0382(3)
O6A O -0.9768(3) -0.9539(3) -0.7567(3)
O6_2 O 0.9768(3) -0.0461(3) 0.7567(3)
O6A_2 O -0.9768(3) 0.0461(3) -0.7567(3)
O7A O -0.9762(3) -0.8922(3) -0.8746(3)
O7_2 O -0.0238(3) -0.1078(3) -0.1254(3)
O7A_2 O 0.0238(3) 0.1078(3) 0.1254(3)
O8A O -0.9438(3) -0.0942(3) 0.0721(3)
O8_2 O -0.0562(3) 0.0942(3) -0.0721(3)
O8A_2 O 0.0562(3) -0.0942(3) 0.0721(3)
O8_3 O 0.9438(3) 0.0942(3) 0.9279(3)
O8A_3 O -0.9438(3) -0.0942(3) -0.9279(3)
loop_
_geom_bond_atom_site_label_1
_geom_bond_atom_site_label_2
_geom_bond_site_symmetry_1
_geom_bond_site_symmetry_2
Co1 O4 1_555 1_555
Co2 O1 1_555 1_555
C1 C2 1_555 1_555
C2 C3 1_555 1_555
C3 H1 1_555 1_555
C4 C3 1_555 1_555
H2 C4 1_555 1_555
C5 C4 1_555 1_555
C6 C5 1_555 1_555
H3 C6 1_555 1_555
C7 C2 1_555 1_555
H4 C7 1_555 1_555
C8 C9 1_555 1_555
C9 C10 1_555 1_555
C10 H5 1_555 1_555
C11 C10 1_555 1_555
H6 C11 1_555 1_555
C12 C11 1_555 1_555
C13 C12 1_555 1_555
H7 C13 1_555 1_555
C14 C9 1_555 1_555
H8 C14 1_555 1_555
C15 H9 1_555 1_555
C16 C15 1_555 1_555
H10 C16 1_555 1_555
C17 C16 1_555 1_555
C18 C17 1_555 1_555
H11 C18 1_555 1_555
C19 C18 1_555 1_555
H12 C19 1_555 1_555
C20 C15 1_555 1_555
C21 C22 1_555 1_555
C22 H13 1_555 1_555
C23 C22 1_555 1_555
H14 C23 1_555 1_555
C24 C23 1_555 1_555
C25 C24 1_555 1_555
H15 C25 1_555 1_555
C26 C21 1_555 1_555
H16 C26 1_555 1_555
C27 C28 1_555 1_555
C28 H17 1_555 1_555
C29 C28 1_555 1_555
H18 C29 1_555 1_555
C30 C29 1_555 1_555
C31 C30 1_555 1_555
H19 C31 1_555 1_555
C32 C27 1_555 1_555
H20 C32 1_555 1_555
C33 C30 1_555 1_555
C34 C24 1_555 1_555
N1 C5 1_555 1_555
N2 C12 1_555 1_555
O1 C1 1_555 1_555
O2 C1 1_555 1_555
O3 C8 1_555 1_555
O4 C8 1_555 1_555
O5 C34 1_555 1_555
O6 C33 1_555 1_555
O7 C33 1_555 1_555
O8 C34 1_555 1_555
Co1_2 O7 1_555 1_555
Co1_3 O8 1_555 1_555
Co1_4 O7A 1_555 1_555
Co1_5 O8A 1_555 1_555
Co2A O1A 1_555 1_555
Co2_2 O3 1_555 1_555
Co2_3 O6 1_555 1_555
Co2_4 O8 1_555 1_555
Co2A_2 O3A 1_555 1_555
Co2A_3 O6A 1_555 1_555
Co2A_4 O8A 1_555 1_555
C1A C2A 1_555 1_555
C2A C3A 1_555 1_555
C3A H1A 1_555 1_555
C4A C3A 1_555 1_555
H2A C4A 1_555 1_555
C5A C4A 1_555 1_555
C6A C5A 1_555 1_555
H3A C6A 1_555 1_555
C7A C2A 1_555 1_555
H4A C7A 1_555 1_555
C8A C9A 1_555 1_555
C9A C10A 1_555 1_555
C10A H5A 1_555 1_555
C11A C10A 1_555 1_555
H6A C11A 1_555 1_555
C12A C11A 1_555 1_555
C13A C12A 1_555 1_555
H7A C13A 1_555 1_555
C14A C9A 1_555 1_555
H8A C14A 1_555 1_555
C15A H9A 1_555 1_555
C16A C15A 1_555 1_555
H10A C16A 1_555 1_555
C17A C16A 1_555 1_555
C18A C17A 1_555 1_555
H11A C18A 1_555 1_555
C19A C18A 1_555 1_555
H12A C19A 1_555 1_555
C20A C15A 1_555 1_555
C21A C22A 1_555 1_555
C22A H13A 1_555 1_555
C23A C22A 1_555 1_555
H14A C23A 1_555 1_555
C24A C23A 1_555 1_555
C25A C24A 1_555 1_555
H15A C25A 1_555 1_555
C26A C21A 1_555 1_555
H16A C26A 1_555 1_555
C27A C28A 1_555 1_555
C28A H17A 1_555 1_555
C29A C28A 1_555 1_555
H18A C29A 1_555 1_555
C30A C29A 1_555 1_555
C31A C30A 1_555 1_555
H19A C31A 1_555 1_555
C32A C27A 1_555 1_555
H20A C32A 1_555 1_555
C33A C30A 1_555 1_555
C34A C24A 1_555 1_555
N1A C5A 1_555 1_555
N2A C12A 1_555 1_555
O1A C1A 1_555 1_555
O2A C1A 1_555 1_555
O3A C8A 1_555 1_555
O3_2 Co2 1_555 1_555
O3A_2 Co2A 1_555 1_555
O4A Co1 1_555 1_555
O5A C34A 1_555 1_555
O6A C33A 1_555 1_555
O6_2 Co2 1_555 1_555
O6A_2 Co2A 1_555 1_555
O7A C33A 1_555 1_555
O7_2 Co1 1_555 1_555
O7A_2 Co1 1_555 1_555
O8A C34A 1_555 1_555
O8_2 Co1 1_555 1_555
O8A_2 Co1 1_555 1_555
O8_3 Co2 1_555 1_555
O8A_3 Co2A 1_555 1_555
C6 C7 1_555 1_555
C13 C14 1_555 1_555
C17 N1 1_555 1_555
C19 C20 1_555 1_555
C20 N2 1_555 1_555
C21 N2 1_555 1_555
C25 C26 1_555 1_555
C27 N1 1_555 1_555
C31 C32 1_555 1_555
Co2_2 O8_2 1_555 1_555
Co2A_2 O8A_2 1_555 1_555
C6A C7A 1_555 1_555
C8A O4A 1_555 1_555
C13A C14A 1_555 1_555
C17A N1A 1_555 1_555
C19A C20A 1_555 1_555
C20A N2A 1_555 1_555
C21A N2A 1_555 1_555
C25A C26A 1_555 1_555
C27A N1A 1_555 1_555
C31A C32A 1_555 1_555

#END
