
#######################################################################
#
#                 Cambridge Crystallographic Data Centre
#                                CCDC 
#
#######################################################################
#
# If this CIF has been generated from an entry in the Cambridge 
# Structural Database, then it will include bibliographic, chemical, 
# crystal, experimental, refinement or atomic coordinate data resulting 
# from the CCDC's data processing and validation procedures.
#
#######################################################################

data_JEJWOL
_symmetry_cell_setting           triclinic
_symmetry_space_group_name_H-M   'P -1'
_symmetry_Int_Tables_number      2
_space_group_name_Hall           '-P 1'
loop_
_symmetry_equiv_pos_site_id
_symmetry_equiv_pos_as_xyz
1 x,y,z
2 -x,-y,-z
_cell_length_a                   15.156(3)
_cell_length_b                   15.657(2)
_cell_length_c                   26.967(4)
_cell_angle_alpha                81.603(16)
_cell_angle_beta                 78.042(12)
_cell_angle_gamma                73.529(12)
_cell_volume                     5977.39
loop_
_atom_site_label
_atom_site_type_symbol
_atom_site_fract_x
_atom_site_fract_y
_atom_site_fract_z
Nd1 Nd 0.13391(3) 0.77203(3) 0.207569(18)
Nd2 Nd 0.04501(4) 0.14412(3) -0.325520(18)
S1 S 0.1158(3) 0.8603(2) 0.08283(12)
O1 O 0.1455(5) 0.6089(4) 0.2264(2)
O2 O 0.1104(4) 0.6759(4) 0.1495(2)
O3 O 0.1585(4) 0.1041(4) -0.2656(2)
O4 O 0.0356(3) 0.2096(4) -0.2395(2)
O5 O 0.0736(5) 0.2397(4) 0.5917(2)
O6 O 0.1330(5) 0.2590(4) 0.6546(2)
O7 O 0.0722(4) -0.0904(4) 0.24889(18)
O8 O -0.0425(5) 0.0122(4) 0.2924(2)
O9 O 0.7437(4) 0.1566(4) -0.1625(2)
O10 O 0.7040(5) 0.3038(4) -0.1644(3)
O11 O 0.0972(4) 0.7384(4) 0.3087(2)
O12 O 0.2387(5) 0.7354(5) 0.2718(2)
O13 O 0.0677(4) 0.8711(4) 0.1379(2)
O14 O -0.0523(6) 0.1105(5) -0.3744(3)
O15 O 0.1730(6) 0.0537(5) -0.3756(3)
N1 N 0.1390(6) 0.2703(5) 0.1182(3)
N2 N 0.3030(5) 0.2210(6) -0.0872(3)
N3 N 0.3221(6) 0.5116(6) 0.4827(3)
C1 C 0.1283(6) 0.6062(6) 0.1805(4)
C2 C 0.0300(12) 0.8496(13) 0.0524(5)
H1 H 0.0160 0.7931 0.0640
H2 H 0.0518 0.8525 0.0163
H3 H -0.0254 0.8972 0.0601
C3 C 0.1269(7) 0.5189(6) 0.1658(3)
C4 C 0.1257(10) 0.9679(8) 0.0562(4)
H4 H 0.1726 0.9831 0.0697
H5 H 0.0668 1.0110 0.0645
H6 H 0.1432 0.9682 0.0199
C5 C 0.1520(7) 0.4392(6) 0.1995(3)
H7 H 0.1655 0.4416 0.2313
C6 C 0.1553(8) 0.3592(6) 0.1827(4)
H8 H 0.1730 0.3068 0.2036
C7 C 0.1336(7) 0.3535(6) 0.1364(4)
C8 C 0.1067(7) 0.4329(6) 0.1033(3)
H9 H 0.0924 0.4310 0.0717
C9 C 0.1033(7) 0.5130(6) 0.1210(3)
H10 H 0.0836 0.5657 0.1008
C10 C 0.1171(6) 0.1628(6) -0.2362(3)
C11 C 0.1644(6) 0.1814(6) -0.1968(3)
C12 C 0.1158(6) 0.2371(6) -0.1585(3)
H11 H 0.0524 0.2644 -0.1570
C13 C 0.1603(6) 0.2508(6) -0.1245(3)
H12 H 0.1278 0.2902 -0.1002
C14 C 0.2570(6) 0.2072(7) -0.1237(4)
C15 C 0.3050(7) 0.1550(7) -0.1627(4)
H13 H 0.3691 0.1300 -0.1653
C16 C 0.2584(7) 0.1397(7) -0.1978(4)
H14 H 0.2903 0.1009 -0.2225
C17 C 0.1234(7) 0.2763(7) 0.6095(4)
C18 C 0.1736(6) 0.3390(6) 0.5764(3)
C19 C 0.2256(7) 0.3791(7) 0.5956(4)
H15 H 0.2297 0.3668 0.6300
C20 C 0.2732(7) 0.4380(7) 0.5658(4)
H16 H 0.3070 0.4659 0.5803
C21 C 0.2695(7) 0.4548(7) 0.5133(4)
C22 C 0.2166(7) 0.4117(7) 0.4932(4)
H17 H 0.2130 0.4225 0.4587
C23 C 0.1704(7) 0.3539(7) 0.5237(4)
H18 H 0.1371 0.3247 0.5097
C24 C 0.6831(6) 0.2311(7) -0.1557(3)
C25 C 0.5132(6) 0.2995(7) -0.1509(4)
H19 H 0.5273 0.3483 -0.1720
C26 C 0.5835(6) 0.2300(6) -0.1364(3)
C27 C 0.5617(6) 0.1594(7) -0.1056(4)
H20 H 0.6098 0.1119 -0.0961
C28 C 0.0279(7) -0.0080(6) 0.2592(3)
C29 C 0.0595(7) 0.0649(6) 0.2183(3)
C30 C 0.1329(7) 0.0453(6) 0.1795(4)
H21 H 0.1648 -0.0140 0.1749
C31 C 0.1602(7) 0.1129(6) 0.1469(3)
H22 H 0.2104 0.0987 0.1204
C32 C 0.4091(7) 0.5058(8) 0.4912(4)
C33 C 0.4730(7) 0.4227(7) 0.4997(4)
H23 H 0.4560 0.3700 0.5001
C34 C 0.4382(8) 0.5805(8) 0.4925(4)
H24 H 0.3965 0.6362 0.4879
C35 C 0.2858(7) 0.5635(7) 0.4411(3)
C36 C 0.1912(7) 0.6066(7) 0.4425(4)
H25 H 0.1495 0.6020 0.4727
C37 C 0.1575(7) 0.6562(6) 0.3999(3)
H26 H 0.0937 0.6806 0.4011
C38 C 0.3115(7) 0.6314(7) 0.3555(3)
H27 H 0.3538 0.6400 0.3261
C39 C 0.3442(7) 0.5809(7) 0.3977(4)
H28 H 0.4083 0.5581 0.3963
C40 C 0.1810(7) 0.7177(6) 0.3118(3)
C41 C 0.2190(7) 0.6687(7) 0.3562(3)
C42 C 0.2615(6) 0.2330(6) -0.0346(3)
C43 C 0.1869(7) 0.1963(6) -0.0107(4)
H29 H 0.1634 0.1630 -0.0281
C44 C 0.1507(7) 0.2109(6) 0.0380(4)
H30 H 0.0998 0.1886 0.0533
C45 C 0.1828(7) 0.2557(5) 0.0668(3)
C46 C 0.2594(7) 0.2883(6) 0.0430(4)
H31 H 0.2841 0.3190 0.0613
C47 C 0.2978(7) 0.2763(6) -0.0055(4)
H32 H 0.3497 0.2974 -0.0200
C48 C 0.4205(7) 0.2974(8) -0.1342(4)
H33 H 0.3725 0.3453 -0.1434
C49 C 0.3996(6) 0.2226(7) -0.1033(3)
C50 C 0.4709(7) 0.1562(7) -0.0881(4)
H34 H 0.4582 0.1084 -0.0657
C51 C 0.1158(7) 0.1986(6) 0.1528(3)
C52 C 0.0389(8) 0.2222(6) 0.1918(4)
H35 H 0.0069 0.2818 0.1949
C53 C 0.0111(8) 0.1547(6) 0.2259(3)
H36 H -0.0381 0.1685 0.2529
S2 S -0.1092(6) 0.0575(5) -0.3796(3)
S3 S 0.2530(8) 0.0462(9) -0.4132(5)
C54 C -0.2001(18) 0.1352(15) -0.4178(12)
C55 C 0.220(3) 0.062(3) -0.4790(8)
C56 C 0.248(6) -0.005(4) -0.443(4)
C57 C -0.091(4) 0.019(4) -0.422(2)
Nd1A Nd -0.13391(3) 0.22797(3) -0.207569(18)
Nd1_2 Nd 0.13391(3) -0.22797(3) 0.207569(18)
Nd1A_2 Nd 0.86609(3) 0.22797(3) -0.207569(18)
Nd1A_3 Nd 0.86609(3) 0.22797(3) 0.792431(18)
Nd1A_4 Nd -0.13391(3) 1.22797(3) -0.207569(18)
Nd1_3 Nd -0.86609(3) 0.77203(3) 0.207569(18)
Nd2A Nd -0.04501(4) 0.85588(3) 0.325520(18)
Nd2_2 Nd 0.04501(4) 0.14412(3) 0.674480(18)
Nd2A_2 Nd -0.04501(4) -0.14412(3) 0.325520(18)
Nd2A_3 Nd 0.95499(4) 0.85588(3) 0.325520(18)
Nd2_3 Nd 1.04501(4) 0.14412(3) 0.674480(18)
Nd2_4 Nd 0.04501(4) 1.14412(3) -0.325520(18)
S1A S -0.1158(3) 0.1397(2) -0.08283(12)
O1A O -0.1455(5) 0.3911(4) -0.2264(2)
O2A O -0.1104(4) 0.3241(4) -0.1495(2)
O3A O -0.1585(4) 0.8959(4) 0.2656(2)
O4A O -0.0356(3) 0.7904(4) 0.2395(2)
O5A O 0.9264(5) 0.7603(4) 0.4083(2)
O5_2 O 0.0736(5) 0.2397(4) -0.4083(2)
O5A_2 O -0.0736(5) 0.7603(4) 0.4083(2)
O6A O 0.8670(5) 0.7410(4) 0.3454(2)
O6_2 O 0.1330(5) 0.2590(4) -0.3454(2)
O6A_2 O -0.1330(5) 0.7410(4) 0.3454(2)
O7A O -0.0722(4) 1.0904(4) -0.24889(18)
O7_2 O 0.0722(4) 0.9096(4) 0.24889(18)
O7A_2 O -0.0722(4) 0.0904(4) -0.24889(18)
O8A O 0.0425(5) 0.9878(4) -0.2924(2)
O8A_2 O 0.0425(5) -0.0122(4) -0.2924(2)
O8_2 O -0.0425(5) 1.0122(4) 0.2924(2)
O9A O -0.7437(4) 0.8434(4) 0.1625(2)
O9A_2 O 0.2563(4) 0.8434(4) 0.1625(2)
O9_2 O -0.2563(4) 0.1566(4) -0.1625(2)
O10A O -0.7040(5) 0.6962(4) 0.1644(3)
O10A_2 O 0.2960(5) 0.6962(4) 0.1644(3)
O10_2 O -0.2960(5) 0.3038(4) -0.1644(3)
O11A O 0.9028(4) 0.2616(4) 0.6913(2)
O11A_2 O -0.0972(4) 0.2616(4) -0.3087(2)
O12A O 0.7613(5) 0.2646(5) 0.7282(2)
O12A_2 O -0.2387(5) 0.2646(5) -0.2718(2)
O13A O -0.0677(4) 0.1289(4) -0.1379(2)
O14A O 0.0523(6) 0.8895(5) 0.3744(3)
O15A O -0.1730(6) 0.9463(5) 0.3756(3)
N1A N -0.1390(6) 0.7297(5) -0.1182(3)
N2A N -0.3030(5) 0.7790(6) 0.0872(3)
N3A N 0.6779(6) 0.4884(6) 0.5173(3)
C1A C -0.1283(6) 0.3938(6) -0.1805(4)
C2A C -0.0300(12) 0.1504(13) -0.0524(5)
H1A H -0.0160 0.2069 -0.0640
H2A H -0.0518 0.1475 -0.0163
H3A H 0.0254 0.1028 -0.0601
C3A C -0.1269(7) 0.4811(6) -0.1658(3)
C4A C -0.1257(10) 0.0321(8) -0.0562(4)
H4A H -0.1726 0.0169 -0.0697
H5A H -0.0668 -0.0110 -0.0645
H6A H -0.1432 0.0318 -0.0199
C5A C -0.1520(7) 0.5608(6) -0.1995(3)
H7A H -0.1655 0.5584 -0.2313
C6A C -0.1553(8) 0.6408(6) -0.1827(4)
H8A H -0.1730 0.6932 -0.2036
C7A C -0.1336(7) 0.6465(6) -0.1364(4)
C8A C -0.1067(7) 0.5671(6) -0.1033(3)
H9A H -0.0924 0.5690 -0.0717
C9A C -0.1033(7) 0.4870(6) -0.1210(3)
H10A H -0.0836 0.4343 -0.1008
C10A C -0.1171(6) 0.8372(6) 0.2362(3)
C11A C -0.1644(6) 0.8186(6) 0.1968(3)
C12A C -0.1158(6) 0.7629(6) 0.1585(3)
H11A H -0.0524 0.7356 0.1570
C13A C -0.1603(6) 0.7492(6) 0.1245(3)
H12A H -0.1278 0.7098 0.1002
C14A C -0.2570(6) 0.7928(7) 0.1237(4)
C15A C -0.3050(7) 0.8450(7) 0.1627(4)
H13A H -0.3691 0.8700 0.1653
C16A C -0.2584(7) 0.8603(7) 0.1978(4)
H14A H -0.2903 0.8991 0.2225
C17A C 0.8766(7) 0.7237(7) 0.3905(4)
C18A C 0.8264(6) 0.6610(6) 0.4236(3)
C19A C 0.7744(7) 0.6209(7) 0.4044(4)
H15A H 0.7703 0.6332 0.3700
C20A C 0.7268(7) 0.5620(7) 0.4342(4)
H16A H 0.6930 0.5341 0.4197
C21A C 0.7305(7) 0.5452(7) 0.4867(4)
C22A C 0.7834(7) 0.5883(7) 0.5068(4)
H17A H 0.7870 0.5775 0.5413
C23A C 0.8296(7) 0.6461(7) 0.4763(4)
H18A H 0.8629 0.6753 0.4903
C24A C -0.6831(6) 0.7689(7) 0.1557(3)
C25A C -0.5132(6) 0.7005(7) 0.1509(4)
H19A H -0.5273 0.6517 0.1720
C26A C -0.5835(6) 0.7700(6) 0.1364(3)
C27A C -0.5617(6) 0.8406(7) 0.1056(4)
H20A H -0.6098 0.8881 0.0961
C28A C -0.0279(7) 1.0080(6) -0.2592(3)
C29A C -0.0595(7) 0.9351(6) -0.2183(3)
C30A C -0.1329(7) 0.9547(6) -0.1795(4)
H21A H -0.1648 1.0140 -0.1749
C31A C -0.1602(7) 0.8871(6) -0.1469(3)
H22A H -0.2104 0.9013 -0.1204
C32A C 0.5909(7) 0.4942(8) 0.5088(4)
C33A C 0.5270(7) 0.5773(7) 0.5003(4)
H23A H 0.5440 0.6300 0.4999
C34A C 0.5618(8) 0.4195(8) 0.5075(4)
H24A H 0.6035 0.3638 0.5121
C35A C 0.7142(7) 0.4365(7) 0.5589(3)
C36A C 0.8088(7) 0.3934(7) 0.5575(4)
H25A H 0.8505 0.3980 0.5273
C37A C 0.8425(7) 0.3438(6) 0.6001(3)
H26A H 0.9063 0.3194 0.5989
C38A C 0.6885(7) 0.3686(7) 0.6445(3)
H27A H 0.6462 0.3600 0.6739
C39A C 0.6558(7) 0.4191(7) 0.6023(4)
H28A H 0.5917 0.4419 0.6037
C40A C 0.8190(7) 0.2823(6) 0.6882(3)
C41A C 0.7810(7) 0.3313(7) 0.6438(3)
C42A C -0.2615(6) 0.7670(6) 0.0346(3)
C43A C -0.1869(7) 0.8037(6) 0.0107(4)
H29A H -0.1634 0.8370 0.0281
C44A C -0.1507(7) 0.7891(6) -0.0380(4)
H30A H -0.0998 0.8114 -0.0533
C45A C -0.1828(7) 0.7443(5) -0.0668(3)
C46A C -0.2594(7) 0.7117(6) -0.0430(4)
H31A H -0.2841 0.6810 -0.0613
C47A C -0.2978(7) 0.7237(6) 0.0055(4)
H32A H -0.3497 0.7026 0.0200
C48A C -0.4205(7) 0.7026(8) 0.1342(4)
H33A H -0.3725 0.6547 0.1434
C49A C -0.3996(6) 0.7774(7) 0.1033(3)
C50A C -0.4709(7) 0.8438(7) 0.0881(4)
H34A H -0.4582 0.8916 0.0657
C51A C -0.1158(7) 0.8014(6) -0.1528(3)
C52A C -0.0389(8) 0.7778(6) -0.1918(4)
H35A H -0.0069 0.7182 -0.1949
C53A C -0.0111(8) 0.8453(6) -0.2259(3)
H36A H 0.0381 0.8315 -0.2529
S2A S 0.1092(6) 0.9425(5) 0.3796(3)
S3A S -0.2530(8) 0.9538(9) 0.4132(5)
C54A C 0.2001(18) 0.8648(15) 0.4178(12)
C55A C -0.220(3) 0.938(3) 0.4790(8)
C56A C -0.248(6) 1.005(4) 0.443(4)
C57A C 0.091(4) 0.981(4) 0.422(2)
loop_
_geom_bond_atom_site_label_1
_geom_bond_atom_site_label_2
_geom_bond_site_symmetry_1
_geom_bond_site_symmetry_2
Nd1 O1 1_555 1_555
Nd2 O3 1_555 1_555
S1 O13 1_555 1_555
O1 C1 1_555 1_555
O2 Nd1 1_555 1_555
O3 C10 1_555 1_555
O4 Nd2 1_555 1_555
O5 C17 1_555 1_555
O6 C17 1_555 1_555
O7 C28 1_555 1_555
O8 C28 1_555 1_555
O9 C24 1_555 1_555
O10 C24 1_555 1_555
O11 Nd1 1_555 1_555
O12 Nd1 1_555 1_555
O13 Nd1 1_555 1_555
O14 Nd2 1_555 1_555
O15 Nd2 1_555 1_555
N1 C7 1_555 1_555
N2 C14 1_555 1_555
N3 C21 1_555 1_555
C1 O2 1_555 1_555
C2 S1 1_555 1_555
H1 C2 1_555 1_555
H2 C2 1_555 1_555
H3 C2 1_555 1_555
C3 C1 1_555 1_555
C4 S1 1_555 1_555
H4 C4 1_555 1_555
H5 C4 1_555 1_555
H6 C4 1_555 1_555
C5 C3 1_555 1_555
H7 C5 1_555 1_555
C6 C5 1_555 1_555
H8 C6 1_555 1_555
C7 C6 1_555 1_555
C8 C7 1_555 1_555
H9 C8 1_555 1_555
C9 C3 1_555 1_555
H10 C9 1_555 1_555
C10 O4 1_555 1_555
C11 C10 1_555 1_555
C12 C11 1_555 1_555
H11 C12 1_555 1_555
C13 C12 1_555 1_555
H12 C13 1_555 1_555
C14 C13 1_555 1_555
C15 C14 1_555 1_555
H13 C15 1_555 1_555
C16 C11 1_555 1_555
H14 C16 1_555 1_555
C17 C18 1_555 1_555
C18 C19 1_555 1_555
C19 H15 1_555 1_555
C20 C19 1_555 1_555
H16 C20 1_555 1_555
C21 C20 1_555 1_555
C22 C21 1_555 1_555
H17 C22 1_555 1_555
C23 C18 1_555 1_555
H18 C23 1_555 1_555
C24 C26 1_555 1_555
C25 H19 1_555 1_555
C26 C25 1_555 1_555
C27 C26 1_555 1_555
H20 C27 1_555 1_555
C28 C29 1_555 1_555
C29 C30 1_555 1_555
C30 H21 1_555 1_555
C31 C30 1_555 1_555
H22 C31 1_555 1_555
C32 N3 1_555 1_555
C33 C32 1_555 1_555
H23 C33 1_555 1_555
C34 C32 1_555 1_555
H24 C34 1_555 1_555
C35 N3 1_555 1_555
C36 C35 1_555 1_555
H25 C36 1_555 1_555
C37 C36 1_555 1_555
H26 C37 1_555 1_555
C38 H27 1_555 1_555
C39 C35 1_555 1_555
H28 C39 1_555 1_555
C40 O11 1_555 1_555
C41 C37 1_555 1_555
C42 N2 1_555 1_555
C43 C42 1_555 1_555
H29 C43 1_555 1_555
C44 C43 1_555 1_555
H30 C44 1_555 1_555
C45 N1 1_555 1_555
C46 C45 1_555 1_555
H31 C46 1_555 1_555
C47 C42 1_555 1_555
H32 C47 1_555 1_555
C48 C25 1_555 1_555
H33 C48 1_555 1_555
C49 N2 1_555 1_555
C50 C27 1_555 1_555
H34 C50 1_555 1_555
C51 N1 1_555 1_555
C52 C51 1_555 1_555
H35 C52 1_555 1_555
C53 C29 1_555 1_555
H36 C53 1_555 1_555
S2 O14 1_555 1_555
S3 O15 1_555 1_555
C54 S2 1_555 1_555
C55 S3 1_555 1_555
C56 S3 1_555 1_555
C57 S2 1_555 1_555
Nd1A O4 1_555 1_555
Nd1_2 O7 1_555 1_555
Nd1A_2 O9 1_555 1_555
Nd1A_3 O11A 1_555 1_555
Nd1A_4 O7A 1_555 1_555
Nd1_3 O9A 1_555 1_555
Nd2A O11 1_555 1_555
Nd2_2 O5 1_555 1_555
Nd2A_2 O7 1_555 1_555
Nd2A_3 O5A 1_555 1_555
Nd2_3 O11A 1_555 1_555
Nd2_4 O7A 1_555 1_555
S1A O13A 1_555 1_555
O1A Nd1A 1_555 1_555
O2A Nd1A 1_555 1_555
O3A Nd2A 1_555 1_555
O4A Nd1 1_555 1_555
O5A C17A 1_555 1_555
O5_2 Nd2 1_555 1_555
O5A_2 Nd2A 1_555 1_555
O6A Nd2A_3 1_555 1_555
O6_2 Nd2 1_555 1_555
O6A_2 Nd2A 1_555 1_555
O7A C28A 1_555 1_555
O7_2 Nd1 1_555 1_555
O7A_2 Nd2 1_555 1_555
O8A Nd2_4 1_555 1_555
O8A_2 Nd2 1_555 1_555
O8_2 Nd2A 1_555 1_555
O9A C24A 1_555 1_555
O9A_2 Nd1 1_555 1_555
O9_2 Nd1A 1_555 1_555
O10A Nd1_3 1_555 1_555
O10A_2 Nd1 1_555 1_555
O10_2 Nd1A 1_555 1_555
O11A C40A 1_555 1_555
O11A_2 Nd2 1_555 1_555
O12A Nd1A_3 1_555 1_555
O12A_2 Nd1A 1_555 1_555
O13A Nd1A 1_555 1_555
O14A Nd2A 1_555 1_555
O15A Nd2A 1_555 1_555
N1A C7A 1_555 1_555
N2A C14A 1_555 1_555
N3A C21A 1_555 1_555
C1A O1A 1_555 1_555
C2A S1A 1_555 1_555
H1A C2A 1_555 1_555
H2A C2A 1_555 1_555
H3A C2A 1_555 1_555
C3A C1A 1_555 1_555
C4A S1A 1_555 1_555
H4A C4A 1_555 1_555
H5A C4A 1_555 1_555
H6A C4A 1_555 1_555
C5A C3A 1_555 1_555
H7A C5A 1_555 1_555
C6A C5A 1_555 1_555
H8A C6A 1_555 1_555
C7A C6A 1_555 1_555
C8A C7A 1_555 1_555
H9A C8A 1_555 1_555
C9A C3A 1_555 1_555
H10A C9A 1_555 1_555
C10A O3A 1_555 1_555
C11A C10A 1_555 1_555
C12A C11A 1_555 1_555
H11A C12A 1_555 1_555
C13A C12A 1_555 1_555
H12A C13A 1_555 1_555
C14A C13A 1_555 1_555
C15A C14A 1_555 1_555
H13A C15A 1_555 1_555
C16A C11A 1_555 1_555
H14A C16A 1_555 1_555
C17A O6A 1_555 1_555
C18A C17A 1_555 1_555
C19A C18A 1_555 1_555
H15A C19A 1_555 1_555
C20A C19A 1_555 1_555
H16A C20A 1_555 1_555
C21A C20A 1_555 1_555
C22A C21A 1_555 1_555
H17A C22A 1_555 1_555
C23A C18A 1_555 1_555
H18A C23A 1_555 1_555
C24A O10A 1_555 1_555
C25A H19A 1_555 1_555
C26A C24A 1_555 1_555
C27A C26A 1_555 1_555
H20A C27A 1_555 1_555
C28A O8A 1_555 1_555
C29A C28A 1_555 1_555
C30A C29A 1_555 1_555
H21A C30A 1_555 1_555
C31A C30A 1_555 1_555
H22A C31A 1_555 1_555
C32A N3A 1_555 1_555
C33A C34 1_555 1_555
H23A C33A 1_555 1_555
C34A C33 1_555 1_555
H24A C34A 1_555 1_555
C35A N3A 1_555 1_555
C36A C35A 1_555 1_555
H25A C36A 1_555 1_555
C37A C36A 1_555 1_555
H26A C37A 1_555 1_555
C38A H27A 1_555 1_555
C39A C35A 1_555 1_555
H28A C39A 1_555 1_555
C40A O12A 1_555 1_555
C41A C37A 1_555 1_555
C42A N2A 1_555 1_555
C43A C42A 1_555 1_555
H29A C43A 1_555 1_555
C44A C43A 1_555 1_555
H30A C44A 1_555 1_555
C45A N1A 1_555 1_555
C46A C45A 1_555 1_555
H31A C46A 1_555 1_555
C47A C42A 1_555 1_555
H32A C47A 1_555 1_555
C48A C25A 1_555 1_555
H33A C48A 1_555 1_555
C49A N2A 1_555 1_555
C50A C27A 1_555 1_555
H34A C50A 1_555 1_555
C51A N1A 1_555 1_555
C52A C51A 1_555 1_555
H35A C52A 1_555 1_555
C53A C29A 1_555 1_555
H36A C53A 1_555 1_555
S2A O14A 1_555 1_555
S3A O15A 1_555 1_555
C54A S2A 1_555 1_555
C55A S3A 1_555 1_555
C56A S3A 1_555 1_555
C57A S2A 1_555 1_555
O6 Nd2_2 1_555 1_555
O8 Nd2A_2 1_555 1_555
O10 Nd1A_2 1_555 1_555
O12 C40 1_555 1_555
C8 C9 1_555 1_555
C15 C16 1_555 1_555
C22 C23 1_555 1_555
C31 C51 1_555 1_555
C38 C39 1_555 1_555
C38 C41 1_555 1_555
C40 C41 1_555 1_555
C44 C45 1_555 1_555
C46 C47 1_555 1_555
C48 C49 1_555 1_555
C49 C50 1_555 1_555
C52 C53 1_555 1_555
Nd1A O7A_2 1_555 1_555
Nd1A O11A_2 1_555 1_555
Nd2A O4A 1_555 1_555
Nd2A O7_2 1_555 1_555
O2A C1A 1_555 1_555
O4A C10A 1_555 1_555
C8A C9A 1_555 1_555
C15A C16A 1_555 1_555
C22A C23A 1_555 1_555
C25A C26A 1_555 1_555
C31A C51A 1_555 1_555
C32A C33A 1_555 1_555
C32A C34A 1_555 1_555
C38A C39A 1_555 1_555
C38A C41A 1_555 1_555
C40A C41A 1_555 1_555
C44A C45A 1_555 1_555
C46A C47A 1_555 1_555
C48A C49A 1_555 1_555
C49A C50A 1_555 1_555
C52A C53A 1_555 1_555

#END
