
#######################################################################
#
#                 Cambridge Crystallographic Data Centre
#                                CCDC 
#
#######################################################################
#
# If this CIF has been generated from an entry in the Cambridge 
# Structural Database, then it will include bibliographic, chemical, 
# crystal, experimental, refinement or atomic coordinate data resulting 
# from the CCDC's data processing and validation procedures.
#
#######################################################################

data_JEJWEB
_symmetry_cell_setting           cubic
_symmetry_space_group_name_H-M   'I 41 3 2'
_symmetry_Int_Tables_number      214
_space_group_name_Hall           'I 4bd 2c 3'
loop_
_symmetry_equiv_pos_site_id
_symmetry_equiv_pos_as_xyz
1 x,y,z
2 1/2-x,-y,1/2+z
3 -x,1/2+y,1/2-z
4 1/2+x,1/2-y,-z
5 z,x,y
6 1/2+z,1/2-x,-y
7 1/2-z,-x,1/2+y
8 -z,1/2+x,1/2-y
9 y,z,x
10 -y,1/2+z,1/2-x
11 1/2+y,1/2-z,-x
12 1/2-y,-z,1/2+x
13 3/4+y,1/4+x,1/4-z
14 3/4-y,3/4-x,3/4-z
15 1/4+y,1/4-x,3/4+z
16 1/4-y,3/4+x,1/4+z
17 3/4+x,1/4+z,1/4-y
18 1/4-x,3/4+z,1/4+y
19 3/4-x,3/4-z,3/4-y
20 1/4+x,1/4-z,3/4+y
21 3/4+z,1/4+y,1/4-x
22 1/4+z,1/4-y,3/4+x
23 1/4-z,3/4+y,1/4+x
24 3/4-z,3/4-y,3/4-x
25 1/2+x,1/2+y,1/2+z
26 -x,1/2-y,z
27 1/2-x,y,-z
28 x,-y,1/2-z
29 1/2+z,1/2+x,1/2+y
30 z,-x,1/2-y
31 -z,1/2-x,y
32 1/2-z,x,-y
33 1/2+y,1/2+z,1/2+x
34 1/2-y,z,-x
35 y,-z,1/2-x
36 -y,1/2-z,x
37 1/4+y,3/4+x,3/4-z
38 1/4-y,1/4-x,1/4-z
39 3/4+y,3/4-x,1/4+z
40 3/4-y,1/4+x,3/4+z
41 1/4+x,3/4+z,3/4-y
42 3/4-x,1/4+z,3/4+y
43 1/4-x,1/4-z,1/4-y
44 3/4+x,3/4-z,1/4+y
45 1/4+z,3/4+y,3/4-x
46 3/4+z,3/4-y,1/4+x
47 3/4-z,1/4+y,3/4+x
48 1/4-z,1/4-y,1/4-x
_cell_length_a                   38.3364(9)
_cell_length_b                   38.3364(9)
_cell_length_c                   38.3364(9)
_cell_angle_alpha                90
_cell_angle_beta                 90
_cell_angle_gamma                90
_cell_volume                     56342.2
loop_
_atom_site_label
_atom_site_type_symbol
_atom_site_fract_x
_atom_site_fract_y
_atom_site_fract_z
Zn1 Zn 0.04523(2) 0.47990(2) 0.99991(3)
Zn2 Zn -0.02999(3) 0.47001(3) 1.02999(3)
O1 O 0.00140(9) 0.50140(9) 0.99860(9)
O2 O 0.00211(18) 0.4374(3) 1.0471(2)
O3 O 0.05975(11) 0.46563(10) 0.95274(15)
O4 O 0.05386(16) 0.4393(2) 1.0308(2)
O5 O 0.01481(12) 0.48425(13) 0.91994(12)
N1 N 0.0473(5) 0.2973(5) 1.1250
N2 N 0.1250(4) 0.4499 0.8001(4)
C1 C 0.0452(3) 0.4740(2) 0.92310(19)
C2 C 0.0665(4) 0.4648(5) 0.8914(3)
C3 C 0.1007(6) 0.4497(5) 0.8906(3)
H1 H 0.1108 0.4437 0.9118
C4 C 0.1189(5) 0.4436(3) 0.8617(3)
H2 H 0.1409 0.4334 0.8638
C5 C 0.1073(4) 0.4514(6) 0.8301(4)
C6 C 0.0752(4) 0.4668(6) 0.8281(3)
H3 H 0.0666 0.4731 0.8063
C7 C 0.0532(7) 0.4738(2) 0.8599(2)
H4 H 0.0312 0.4840 0.8580
C8 C 0.1250(3) 0.4740 0.7760(3)
C9 C 0.12690(19) 0.5097(2) 0.78582(17)
H5 H 0.1306 0.5159 0.8090
C10 C 0.03017(19) 0.4263(4) 1.0427(3)
C11 C 0.0393(7) 0.3928(4) 1.0685(4)
C12 C 0.0688(4) 0.3765(6) 1.0694(4)
H6 H 0.0880 0.3844 1.0568
C13 C 0.0705(4) 0.3454(5) 1.0910(5)
H7 H 0.0926 0.3357 1.0933
C14 C 0.0463(6) 0.3294(6) 1.1072(4)
C15 C 0.0158(6) 0.3445(5) 1.1068(4)
H8 H -0.0028 0.3356 1.1197
C16 C 0.0113(6) 0.3789(6) 1.0836(5)
H9 H -0.0106 0.3890 1.0806
C17 C 0.0212(3) 0.2712(3) 1.1250
C18 C 0.0117(4) 0.2634(3) 1.0906(2)
H10 H 0.0201 0.2748 1.0709
Zn1J Zn -0.02010(2) 0.50009(3) 0.95477(2)
Zn1G Zn 0.00009(3) 0.54523(2) 1.02010(2)
Zn1L Zn 0.22990(2) 0.29523(2) 1.25009(3)
Zn1Y Zn -0.04523(2) 0.02010(2) 0.99991(3)
Zn1KA Zn -0.22990(2) 0.20477(2) 1.25009(3)
Zn1T Zn -0.25009(3) 0.72990(2) 1.20477(2)
Zn1DA Zn 0.00009(3) 0.45477(2) 1.47990(2)
Zn1SA Zn -0.25009(3) 0.27010(2) 1.29523(2)
Zn1P Zn -0.20477(2) 0.24991(3) 0.77010(2)
Zn1IA Zn -0.47990(2) 0.50009(3) 1.04523(2)
Zn1OA Zn -0.29523(2) 0.24991(3) 1.22990(2)
Zn1PA Zn 0.20477(2) 0.25009(3) 0.77010(2)
Zn1MA Zn 0.27010(2) 0.29523(2) 0.74991(3)
Zn1Q Zn 0.20477(2) 0.74991(3) 0.72990(2)
Zn1M Zn 0.27010(2) 0.70477(2) 0.75009(3)
Zn1AA Zn 0.04523(2) 0.52010(2) 0.50009(3)
Zn1FA Zn -0.02010(2) 0.49991(3) 0.54523(2)
Zn1LA Zn 0.22990(2) 0.70477(2) 1.24991(3)
Zn1UA Zn 0.25009(3) 0.77010(2) 1.20477(2)
Zn1U Zn 0.24991(3) 0.77010(2) 0.79523(2)
Zn1BA Zn 0.49991(3) 0.54523(2) 0.97990(2)
Zn1Z Zn 0.45477(2) 0.47990(2) 1.00009(3)
Zn1S Zn 0.29523(2) 0.25009(3) 1.22990(2)
Zn1V Zn 0.25009(3) 0.22990(2) 1.29523(2)
Zn1CA Zn -0.00009(3) -0.04523(2) 1.02010(2)
Zn1GA Zn 0.02010(2) -0.00009(3) 0.95477(2)
Zn1TA Zn -0.24991(3) 0.72990(2) 0.79523(2)
Zn1QA Zn -0.20477(2) 0.75009(3) 0.72990(2)
Zn1GA_2 Zn 0.02010(2) 0.99991(3) 0.95477(2)
Zn1CA_2 Zn -0.00009(3) 0.95477(2) 1.02010(2)
Zn2L Zn 0.22001(3) 0.22001(3) 1.22001(3)
Zn2Y Zn 0.02999(3) 0.02999(3) 1.02999(3)
Zn2KA Zn -0.22001(3) 0.27999(3) 1.22001(3)
Zn2O Zn -0.22001(3) 0.72001(3) 1.27999(3)
Zn2AA Zn -0.02999(3) 0.52999(3) 1.47001(3)
Zn2N Zn -0.27999(3) 0.27999(3) 0.77999(3)
Zn2Z Zn -0.47001(3) 0.47001(3) 0.97001(3)
O1L O 0.25140(9) 0.25140(9) 1.25140(9)
O1Y O -0.00140(9) -0.00140(9) 0.99860(9)
O1KA O -0.25140(9) 0.24860(9) 1.25140(9)
O1O O -0.25140(9) 0.75140(9) 1.24860(9)
O1AA O 0.00140(9) 0.49860(9) 1.50140(9)
O1N O -0.24860(9) 0.24860(9) 0.74860(9)
O1Z O -0.50140(9) 0.50140(9) 1.00140(9)
O2L O 0.1874(3) 0.25211(18) 1.2029(2)
O2Y O -0.00211(18) 0.0626(3) 1.0471(2)
O2KA O -0.1874(3) 0.24789(18) 1.2029(2)
O2G O -0.0471(2) 0.50211(18) 1.0626(3)
O2T O -0.2029(2) 0.6874(3) 1.24789(18)
O2DA O -0.0471(2) 0.49789(18) 1.4374(3)
O2SA O -0.2029(2) 0.3126(3) 1.25211(18)
O2J O -0.0626(3) 0.4529(2) 0.99789(18)
O2P O -0.24789(18) 0.2971(2) 0.8126(3)
O2IA O -0.4374(3) 0.4529(2) 1.00211(18)
O2OA O -0.25211(18) 0.2971(2) 1.1874(3)
O2S O 0.25211(18) 0.2029(2) 1.1874(3)
O2V O 0.2029(2) 0.1874(3) 1.25211(18)
O2CA O 0.0471(2) -0.00211(18) 1.0626(3)
O2GA O 0.0626(3) 0.0471(2) 0.99789(18)
O3PA O 0.19025(11) 0.29726(15) 0.78437(10)
O3Q O 0.19025(11) 0.70274(15) 0.71563(10)
O3AA O 0.05975(11) 0.53437(10) 0.54726(15)
O3G O 0.04726(15) 0.55975(11) 1.03437(10)
O3LA O 0.21563(10) 0.69025(11) 1.20274(15)
O3M O 0.28437(10) 0.69025(11) 0.79726(15)
O3BA O 0.45274(15) 0.55975(11) 0.96563(10)
O3J O -0.03437(10) 0.54726(15) 0.94025(11)
O3TA O -0.20274(15) 0.71563(10) 0.80975(11)
O3U O 0.20274(15) 0.78437(10) 0.80975(11)
O3GA O 0.03437(10) 0.95274(15) 0.94025(11)
O3L O 0.21563(10) 0.30975(11) 1.29726(15)
O3Y O -0.05975(11) 0.03437(10) 0.95274(15)
O3KA O -0.21563(10) 0.19025(11) 1.29726(15)
O3T O -0.29726(15) 0.71563(10) 1.19025(11)
O3DA O 0.04726(15) 0.44025(11) 1.46563(10)
O3SA O -0.29726(15) 0.28437(10) 1.30975(11)
O3P O -0.19025(11) 0.20274(15) 0.78437(10)
O3IA O -0.46563(10) 0.54726(15) 1.05975(11)
O3OA O -0.30975(11) 0.20274(15) 1.21563(10)
O4L O 0.1893(2) 0.30386(16) 1.2192(2)
O4Y O -0.05386(16) 0.0607(2) 1.0308(2)
O4KA O -0.1893(2) 0.19614(16) 1.2192(2)
O4G O -0.0308(2) 0.55386(16) 1.0607(2)
O4T O -0.2192(2) 0.6893(2) 1.19614(16)
O4DA O -0.0308(2) 0.44614(16) 1.4393(2)
O4SA O -0.2192(2) 0.3107(2) 1.30386(16)
O4J O -0.0607(2) 0.4692(2) 0.94614(16)
O4P O -0.19614(16) 0.2808(2) 0.8107(2)
O4IA O -0.4393(2) 0.4692(2) 1.05386(16)
O4OA O -0.30386(16) 0.2808(2) 1.1893(2)
O5PA O 0.23519(12) 0.33006(12) 0.76575(13)
O5Q O 0.23519(12) 0.66994(12) 0.73425(13)
O5AA O 0.01481(12) 0.51575(13) 0.58006(12)
O5G O 0.08006(12) 0.51481(12) 1.01575(13)
O5LA O 0.23425(13) 0.73519(12) 1.16994(12)
O5M O 0.26575(13) 0.73519(12) 0.83006(12)
O5BA O 0.41994(12) 0.51481(12) 0.98425(13)
O5J O -0.01575(13) 0.58006(12) 0.98519(12)
O5TA O -0.16994(12) 0.73425(13) 0.76481(12)
O5U O 0.16994(12) 0.76575(13) 0.76481(12)
O5GA O 0.01575(13) 0.91994(12) 0.98519(12)
O5S O 0.26481(12) 0.33006(12) 1.23425(13)
O5CA O -0.08006(12) -0.01481(12) 1.01575(13)
O5OA O -0.26481(12) 0.16994(12) 1.23425(13)
O5O O -0.23425(13) 0.76481(12) 1.16994(12)
O5FA O -0.01575(13) 0.41994(12) 1.51481(12)
O5KA O -0.23425(13) 0.23519(12) 1.33006(12)
O5W O -0.16994(12) 0.26575(13) 0.73519(12)
O5Z O -0.51481(12) 0.48425(13) 1.08006(12)
O5SA O -0.33006(12) 0.26575(13) 1.26481(12)
N1Y N -0.0473(5) 0.2027(5) 1.1250
N1G N -0.1250 0.5473(5) 1.2027(5)
N1DA N -0.1250 0.4527(5) 1.2973(5)
N1J N -0.2027(5) 0.3750 0.9527(5)
N1IA N -0.2973(5) 0.3750 1.0473(5)
N2Q N 0.1250(4) 0.5501(4) 0.6999
N2G N 0.1999(4) 0.6250(4) 1.0501
N2M N 0.3001 0.6250(4) 0.9499(4)
N2J N -0.0501 0.6999(4) 0.8750(4)
N2U N 0.0501(4) 0.8001 0.8750(4)
C1PA C 0.2048(3) 0.32690(19) 0.7760(2)
C1Q C 0.2048(3) 0.67310(19) 0.7240(2)
C1AA C 0.0452(3) 0.5260(2) 0.57690(19)
C1G C 0.07690(19) 0.5452(3) 1.0260(2)
C1LA C 0.2240(2) 0.7048(3) 1.17310(19)
C1M C 0.2760(2) 0.7048(3) 0.82690(19)
C1BA C 0.42310(19) 0.5452(3) 0.9740(2)
C1J C -0.0260(2) 0.57690(19) 0.9548(3)
C1TA C -0.17310(19) 0.7240(2) 0.7952(3)
C1U C 0.17310(19) 0.7760(2) 0.7952(3)
C1GA C 0.0260(2) 0.92310(19) 0.9548(3)
C2PA C 0.1835(4) 0.3586(3) 0.7852(5)
C2Q C 0.1835(4) 0.6414(3) 0.7148(5)
C2AA C 0.0665(4) 0.5352(5) 0.6086(3)
C2G C 0.1086(3) 0.5665(4) 1.0352(5)
C2LA C 0.2148(5) 0.6835(4) 1.1414(3)
C2M C 0.2852(5) 0.6835(4) 0.8586(3)
C2BA C 0.3914(3) 0.5665(4) 0.9648(5)
C2J C -0.0352(5) 0.6086(3) 0.9335(4)
C2TA C -0.1414(3) 0.7148(5) 0.8165(4)
C2U C 0.1414(3) 0.7852(5) 0.8165(4)
C2GA C 0.0352(5) 0.8914(3) 0.9335(4)
C3PA C 0.1493(6) 0.3594(3) 0.8003(5)
C3Q C 0.1493(6) 0.6406(3) 0.6997(5)
C3AA C 0.1007(6) 0.5503(5) 0.6094(3)
C3G C 0.1094(3) 0.6007(6) 1.0503(5)
C3LA C 0.1997(5) 0.6493(6) 1.1406(3)
C3M C 0.3003(5) 0.6493(6) 0.8594(3)
C3BA C 0.3906(3) 0.6007(6) 0.9497(5)
C3J C -0.0503(5) 0.6094(3) 0.8993(6)
C3TA C -0.1406(3) 0.6997(5) 0.8507(6)
C3U C 0.1406(3) 0.8003(5) 0.8507(6)
C3GA C 0.0503(5) 0.8906(3) 0.8993(6)
H1PA H 0.1392 0.3382 0.8063
H1Q H 0.1392 0.6618 0.6937
H1AA H 0.1108 0.5563 0.5882
H1G H 0.0882 0.6108 1.0563
H1LA H 0.1937 0.6392 1.1618
H1M H 0.3063 0.6392 0.8382
H1BA H 0.4118 0.6108 0.9437
H1J H -0.0563 0.5882 0.8892
H1TA H -0.1618 0.6937 0.8608
H1U H 0.1618 0.8063 0.8608
H1GA H 0.0563 0.9118 0.8892
C4PA C 0.1311(5) 0.3883(3) 0.8064(3)
C4Q C 0.1311(5) 0.6117(3) 0.6936(3)
C4AA C 0.1189(5) 0.5564(3) 0.6383(3)
C4G C 0.1383(3) 0.6189(5) 1.0564(3)
C4LA C 0.1936(3) 0.6311(5) 1.1117(3)
C4M C 0.3064(3) 0.6311(5) 0.8883(3)
C4BA C 0.3617(3) 0.6189(5) 0.9436(3)
C4J C -0.0564(3) 0.6383(3) 0.8811(5)
C4TA C -0.1117(3) 0.6936(3) 0.8689(5)
C4U C 0.1117(3) 0.8064(3) 0.8689(5)
C4GA C 0.0564(3) 0.8617(3) 0.8811(5)
H2PA H 0.1091 0.3862 0.8166
H2Q H 0.1091 0.6138 0.6834
H2AA H 0.1409 0.5666 0.6362
H2G H 0.1362 0.6409 1.0666
H2LA H 0.1834 0.6091 1.1138
H2M H 0.3166 0.6091 0.8862
H2BA H 0.3638 0.6409 0.9334
H2J H -0.0666 0.6362 0.8591
H2TA H -0.1138 0.6834 0.8909
H2U H 0.1138 0.8166 0.8909
H2GA H 0.0666 0.8638 0.8591
C5PA C 0.1427(4) 0.4199(4) 0.7986(6)
C5Q C 0.1427(4) 0.5801(4) 0.7014(6)
C5AA C 0.1073(4) 0.5486(6) 0.6699(4)
C5G C 0.1699(4) 0.6073(4) 1.0486(6)
C5LA C 0.2014(6) 0.6427(4) 1.0801(4)
C5M C 0.2986(6) 0.6427(4) 0.9199(4)
C5BA C 0.3301(4) 0.6073(4) 0.9514(6)
C5J C -0.0486(6) 0.6699(4) 0.8927(4)
C5TA C -0.0801(4) 0.7014(6) 0.8573(4)
C5U C 0.0801(4) 0.7986(6) 0.8573(4)
C5GA C 0.0486(6) 0.8301(4) 0.8927(4)
C6PA C 0.1748(4) 0.4219(3) 0.7832(6)
C6Q C 0.1748(4) 0.5781(3) 0.7168(6)
C6AA C 0.0752(4) 0.5332(6) 0.6719(3)
C6G C 0.1719(3) 0.5752(4) 1.0332(6)
C6LA C 0.2168(6) 0.6748(4) 1.0781(3)
C6M C 0.2832(6) 0.6748(4) 0.9219(3)
C6BA C 0.3281(3) 0.5752(4) 0.9668(6)
C6J C -0.0332(6) 0.6719(3) 0.9248(4)
C6TA C -0.0781(3) 0.7168(6) 0.8252(4)
C6U C 0.0781(3) 0.7832(6) 0.8252(4)
C6GA C 0.0332(6) 0.8281(3) 0.9248(4)
H3PA H 0.1834 0.4437 0.7769
H3Q H 0.1834 0.5563 0.7231
H3AA H 0.0666 0.5269 0.6937
H3G H 0.1937 0.5666 1.0269
H3LA H 0.2231 0.6834 1.0563
H3M H 0.2769 0.6834 0.9437
H3BA H 0.3063 0.5666 0.9731
H3J H -0.0269 0.6937 0.9334
H3TA H -0.0563 0.7231 0.8166
H3U H 0.0563 0.7769 0.8166
H3GA H 0.0269 0.8063 0.9334
C7PA C 0.1968(7) 0.3901(2) 0.7762(2)
C7Q C 0.1968(7) 0.6099(2) 0.7238(2)
C7AA C 0.0532(7) 0.5262(2) 0.6401(2)
C7G C 0.1401(2) 0.5532(7) 1.0262(2)
C7LA C 0.2238(2) 0.6968(7) 1.1099(2)
C7M C 0.2762(2) 0.6968(7) 0.8901(2)
C7BA C 0.3599(2) 0.5532(7) 0.9738(2)
C7J C -0.0262(2) 0.6401(2) 0.9468(7)
C7TA C -0.1099(2) 0.7238(2) 0.8032(7)
C7U C 0.1099(2) 0.7762(2) 0.8032(7)
C7GA C 0.0262(2) 0.8599(2) 0.9468(7)
H4PA H 0.2188 0.3920 0.7660
H4Q H 0.2188 0.6080 0.7340
H4AA H 0.0312 0.5160 0.6420
H4G H 0.1420 0.5312 1.0160
H4LA H 0.2340 0.7188 1.1080
H4M H 0.2660 0.7188 0.8920
H4BA H 0.3580 0.5312 0.9840
H4J H -0.0160 0.6420 0.9688
H4TA H -0.1080 0.7340 0.7812
H4U H 0.1080 0.7660 0.7812
H4GA H 0.0160 0.8580 0.9688
C8Q C 0.1250(3) 0.5260(3) 0.7240
C8G C 0.2240(3) 0.6250(3) 1.0260
C8M C 0.2760 0.6250(3) 0.9740(3)
C8J C -0.0260 0.7240(3) 0.8750(3)
C8U C 0.0260(3) 0.7760 0.8750(3)
C9Q C 0.12310(19) 0.53582(17) 0.7597(2)
C9AA C 0.12690(19) 0.4903(2) 0.71418(17)
C9PA C 0.12310(19) 0.46418(17) 0.7403(2)
C9G C 0.21418(17) 0.62690(19) 0.9903(2)
C9M C 0.2403(2) 0.62310(19) 0.96418(17)
C9BA C 0.28582(17) 0.62690(19) 1.0097(2)
C9LA C 0.2597(2) 0.62310(19) 1.03582(17)
C9J C 0.0097(2) 0.71418(17) 0.87310(19)
C9U C 0.03582(17) 0.7403(2) 0.87690(19)
C9GA C -0.0097(2) 0.78582(17) 0.87310(19)
C9TA C -0.03582(17) 0.7597(2) 0.87690(19)
H5PA H 0.1194 0.4410 0.7341
H5AA H 0.1306 0.4841 0.6910
H5Q H 0.1194 0.5590 0.7659
H5G H 0.1910 0.6306 0.9841
H5LA H 0.2659 0.6194 1.0590
H5BA H 0.3090 0.6306 1.0159
H5M H 0.2341 0.6194 0.9410
H5J H 0.0159 0.6910 0.8694
H5TA H -0.0590 0.7659 0.8806
H5GA H -0.0159 0.8090 0.8694
H5U H 0.0590 0.7341 0.8806
C10L C 0.1763(4) 0.28017(19) 1.2073(3)
C10Y C -0.03017(19) 0.0737(4) 1.0427(3)
C10KA C -0.1763(4) 0.21983(19) 1.2073(3)
C10G C -0.0427(3) 0.53017(19) 1.0737(4)
C10T C -0.2073(3) 0.6763(4) 1.21983(19)
C10DA C -0.0427(3) 0.46983(19) 1.4263(4)
C10SA C -0.2073(3) 0.3237(4) 1.28017(19)
C10J C -0.0737(4) 0.4573(3) 0.96983(19)
C10P C -0.21983(19) 0.2927(3) 0.8237(4)
C10IA C -0.4263(4) 0.4573(3) 1.03017(19)
C10OA C -0.28017(19) 0.2927(3) 1.1763(4)
C11L C 0.1428(4) 0.2893(7) 1.1815(4)
C11Y C -0.0393(7) 0.1072(4) 1.0685(4)
C11KA C -0.1428(4) 0.2107(7) 1.1815(4)
C11G C -0.0685(4) 0.5393(7) 1.1072(4)
C11T C -0.1815(4) 0.6428(4) 1.2107(7)
C11DA C -0.0685(4) 0.4607(7) 1.3928(4)
C11SA C -0.1815(4) 0.3572(4) 1.2893(7)
C11J C -0.1072(4) 0.4315(4) 0.9607(7)
C11P C -0.2107(7) 0.3185(4) 0.8572(4)
C11IA C -0.3928(4) 0.4315(4) 1.0393(7)
C11OA C -0.2893(7) 0.3185(4) 1.1428(4)
C12L C 0.1265(6) 0.3188(4) 1.1806(4)
C12Y C -0.0688(4) 0.1235(6) 1.0694(4)
C12KA C -0.1265(6) 0.1812(4) 1.1806(4)
C12G C -0.0694(4) 0.5688(4) 1.1235(6)
C12T C -0.1806(4) 0.6265(6) 1.1812(4)
C12DA C -0.0694(4) 0.4312(4) 1.3765(6)
C12SA C -0.1806(4) 0.3735(6) 1.3188(4)
C12J C -0.1235(6) 0.4306(4) 0.9312(4)
C12P C -0.1812(4) 0.3194(4) 0.8735(6)
C12IA C -0.3765(6) 0.4306(4) 1.0688(4)
C12OA C -0.3188(4) 0.3194(4) 1.1265(6)
H6L H 0.1344 0.3380 1.1932
H6Y H -0.0880 0.1156 1.0568
H6KA H -0.1344 0.1620 1.1932
H6G H -0.0568 0.5880 1.1156
H6T H -0.1932 0.6344 1.1620
H6DA H -0.0568 0.4120 1.3844
H6SA H -0.1932 0.3656 1.3380
H6J H -0.1156 0.4432 0.9120
H6P H -0.1620 0.3068 0.8656
H6IA H -0.3844 0.4432 1.0880
H6OA H -0.3380 0.3068 1.1344
C13L C 0.0954(5) 0.3205(4) 1.1590(5)
C13Y C -0.0705(4) 0.1546(5) 1.0910(5)
C13KA C -0.0954(5) 0.1795(4) 1.1590(5)
C13G C -0.0910(5) 0.5705(4) 1.1546(5)
C13T C -0.1590(5) 0.5954(5) 1.1795(4)
C13DA C -0.0910(5) 0.4295(4) 1.3454(5)
C13SA C -0.1590(5) 0.4046(5) 1.3205(4)
C13J C -0.1546(5) 0.4090(5) 0.9295(4)
C13P C -0.1795(4) 0.3410(5) 0.9046(5)
C13IA C -0.3454(5) 0.4090(5) 1.0705(4)
C13OA C -0.3205(4) 0.3410(5) 1.0954(5)
H7L H 0.0857 0.3426 1.1567
H7Y H -0.0926 0.1643 1.0933
H7KA H -0.0857 0.1574 1.1567
H7G H -0.0933 0.5926 1.1643
H7T H -0.1567 0.5857 1.1574
H7DA H -0.0933 0.4074 1.3357
H7SA H -0.1567 0.4143 1.3426
H7J H -0.1643 0.4067 0.9074
H7P H -0.1574 0.3433 0.9143
H7IA H -0.3357 0.4067 1.0926
H7OA H -0.3426 0.3433 1.0857
C14L C 0.0794(6) 0.2963(6) 1.1428(4)
C14Y C -0.0463(6) 0.1706(6) 1.1072(4)
C14KA C -0.0794(6) 0.2037(6) 1.1428(4)
C14G C -0.1072(4) 0.5463(6) 1.1706(6)
C14T C -0.1428(4) 0.5794(6) 1.2037(6)
C14DA C -0.1072(4) 0.4537(6) 1.3294(6)
C14SA C -0.1428(4) 0.4206(6) 1.2963(6)
C14J C -0.1706(6) 0.3928(4) 0.9537(6)
C14P C -0.2037(6) 0.3572(4) 0.9206(6)
C14IA C -0.3294(6) 0.3928(4) 1.0463(6)
C14OA C -0.2963(6) 0.3572(4) 1.0794(6)
C15L C 0.0945(5) 0.2658(6) 1.1432(4)
C15Y C -0.0158(6) 0.1555(5) 1.1068(4)
C15KA C -0.0945(5) 0.2342(6) 1.1432(4)
C15G C -0.1068(4) 0.5158(6) 1.1555(5)
C15T C -0.1432(4) 0.5945(5) 1.2342(6)
C15DA C -0.1068(4) 0.4842(6) 1.3445(5)
C15SA C -0.1432(4) 0.4055(5) 1.2658(6)
C15J C -0.1555(5) 0.3932(4) 0.9842(6)
C15P C -0.2342(6) 0.3568(4) 0.9055(5)
C15IA C -0.3445(5) 0.3932(4) 1.0158(6)
C15OA C -0.2658(6) 0.3568(4) 1.0945(5)
H8L H 0.0856 0.2472 1.1303
H8Y H 0.0028 0.1644 1.1197
H8KA H -0.0856 0.2528 1.1303
H8G H -0.1197 0.4972 1.1644
H8T H -0.1303 0.5856 1.2528
H8DA H -0.1197 0.5028 1.3356
H8SA H -0.1303 0.4144 1.2472
H8J H -0.1644 0.3803 1.0028
H8P H -0.2528 0.3697 0.9144
H8IA H -0.3356 0.3803 0.9972
H8OA H -0.2472 0.3697 1.0856
C16L C 0.1289(6) 0.2613(6) 1.1664(5)
C16Y C -0.0113(6) 0.1211(6) 1.0836(5)
C16KA C -0.1289(6) 0.2387(6) 1.1664(5)
C16G C -0.0836(5) 0.5113(6) 1.1211(6)
C16T C -0.1664(5) 0.6289(6) 1.2387(6)
C16DA C -0.0836(5) 0.4887(6) 1.3789(6)
C16SA C -0.1664(5) 0.3711(6) 1.2613(6)
C16J C -0.1211(6) 0.4164(5) 0.9887(6)
C16P C -0.2387(6) 0.3336(5) 0.8711(6)
C16IA C -0.3789(6) 0.4164(5) 1.0113(6)
C16OA C -0.2613(6) 0.3336(5) 1.1289(6)
H9L H 0.1390 0.2394 1.1694
H9Y H 0.0106 0.1110 1.0806
H9KA H -0.1390 0.2606 1.1694
H9G H -0.0806 0.4894 1.1110
H9T H -0.1694 0.6390 1.2606
H9DA H -0.0806 0.5106 1.3890
H9SA H -0.1694 0.3610 1.2394
H9J H -0.1110 0.4194 1.0106
H9P H -0.2606 0.3306 0.8610
H9IA H -0.3890 0.4194 0.9894
H9OA H -0.2394 0.3306 1.1390
C17Y C -0.0212(3) 0.2288(3) 1.1250
C17G C -0.1250 0.5212(3) 1.2288(3)
C17DA C -0.1250 0.4788(3) 1.2712(3)
C17J C -0.2288(3) 0.3750 0.9788(3)
C17IA C -0.2712(3) 0.3750 1.0212(3)
C18Y C -0.0117(4) 0.2366(3) 1.0906(2)
C18KA C -0.0134(3) 0.2383(4) 1.1594(2)
C18L C 0.0134(3) 0.2617(4) 1.1594(2)
C18G C -0.0906(2) 0.5117(4) 1.2366(3)
C18DA C -0.0906(2) 0.4883(4) 1.2634(3)
C18SA C -0.1594(2) 0.4866(3) 1.2617(4)
C18T C -0.1594(2) 0.5134(3) 1.2383(4)
C18J C -0.2366(3) 0.4094(2) 0.9883(4)
C18IA C -0.2634(3) 0.4094(2) 1.0117(4)
C18OA C -0.2617(4) 0.3406(2) 1.0134(3)
C18P C -0.2383(4) 0.3406(2) 0.9866(3)
H10L H 0.0248 0.2701 1.1791
H10KA H -0.0248 0.2299 1.1791
H10Y H -0.0201 0.2252 1.0709
H10G H -0.0709 0.5201 1.2252
H10T H -0.1791 0.5248 1.2299
H10SA H -0.1791 0.4752 1.2701
H10DA H -0.0709 0.4799 1.2748
H10J H -0.2252 0.4291 0.9799
H10P H -0.2299 0.3209 0.9752
H10OA H -0.2701 0.3209 1.0248
H10IA H -0.2748 0.4291 1.0201
loop_
_geom_bond_atom_site_label_1
_geom_bond_atom_site_label_2
_geom_bond_site_symmetry_1
_geom_bond_site_symmetry_2
Zn1 O1 1_555 1_555
Zn2 O1 1_555 1_555
O1 Zn1J 1_555 1_555
O2 Zn2 1_555 1_555
O3 Zn1 1_555 1_555
O4 Zn1 1_555 1_555
O5 C1 1_555 1_555
N1 C14 1_555 1_555
N2 C5 1_555 1_555
C1 O3 1_555 1_555
C2 C1 1_555 1_555
C3 C2 1_555 1_555
H1 C3 1_555 1_555
C4 C3 1_555 1_555
H2 C4 1_555 1_555
C5 C4 1_555 1_555
C6 C5 1_555 1_555
H3 C6 1_555 1_555
C7 C2 1_555 1_555
H4 C7 1_555 1_555
C8 N2 1_555 1_555
C9 C8 1_555 1_555
H5 C9 1_555 1_555
C10 O2 1_555 1_555
C11 C10 1_555 1_555
C12 C11 1_555 1_555
H6 C12 1_555 1_555
C13 C12 1_555 1_555
H7 C13 1_555 1_555
C14 C13 1_555 1_555
C15 C14 1_555 1_555
H8 C15 1_555 1_555
C16 C11 1_555 1_555
H9 C16 1_555 1_555
C17 N1 1_555 1_555
C18 C17 1_555 1_555
H10 C18 1_555 1_555
Zn1J O5 1_555 1_555
Zn1G O1 1_555 1_555
Zn1L O1L 1_555 1_555
Zn1Y O1Y 1_555 1_555
Zn1KA O1KA 1_555 1_555
Zn1T O1O 1_555 1_555
Zn1DA O1AA 1_555 1_555
Zn1SA O1KA 1_555 1_555
Zn1P O1N 1_555 1_555
Zn1IA O1Z 1_555 1_555
Zn1OA O1KA 1_555 1_555
Zn1PA O3PA 1_555 1_555
Zn1MA O5PA 1_555 1_555
Zn1Q O3Q 1_555 1_555
Zn1M O3M 1_555 1_555
Zn1AA O3AA 1_555 1_555
Zn1FA O5AA 1_555 1_555
Zn1LA O3LA 1_555 1_555
Zn1UA O5LA 1_555 1_555
Zn1U O3U 1_555 1_555
Zn1BA O3BA 1_555 1_555
Zn1Z O5BA 1_555 1_555
Zn1S O1L 1_555 1_555
Zn1V O1L 1_555 1_555
Zn1CA O1Y 1_555 1_555
Zn1GA O1Y 1_555 1_555
Zn1TA O3TA 1_555 1_555
Zn1QA O5TA 1_555 1_555
Zn1GA_2 O3GA 1_555 1_555
Zn1CA_2 O5GA 1_555 1_555
Zn2L O1L 1_555 1_555
Zn2Y O1Y 1_555 1_555
Zn2KA O1KA 1_555 1_555
Zn2O O1O 1_555 1_555
Zn2AA O1AA 1_555 1_555
Zn2N O1N 1_555 1_555
Zn2Z O1Z 1_555 1_555
O2L Zn2L 1_555 1_555
O2Y Zn2Y 1_555 1_555
O2KA Zn2KA 1_555 1_555
O2G Zn2 1_555 1_555
O2T Zn2O 1_555 1_555
O2DA Zn2AA 1_555 1_555
O2SA Zn2KA 1_555 1_555
O2J Zn2 1_555 1_555
O2P Zn2N 1_555 1_555
O2IA Zn2Z 1_555 1_555
O2OA Zn2KA 1_555 1_555
O2S Zn2L 1_555 1_555
O2V Zn2L 1_555 1_555
O2CA Zn2Y 1_555 1_555
O2GA Zn2Y 1_555 1_555
O3PA C1PA 1_555 1_555
O3Q C1Q 1_555 1_555
O3AA C1AA 1_555 1_555
O3G Zn1G 1_555 1_555
O3LA C1LA 1_555 1_555
O3M C1M 1_555 1_555
O3BA C1BA 1_555 1_555
O3J Zn1J 1_555 1_555
O3TA C1TA 1_555 1_555
O3U C1U 1_555 1_555
O3GA C1GA 1_555 1_555
O3L Zn1L 1_555 1_555
O3Y Zn1Y 1_555 1_555
O3KA Zn1KA 1_555 1_555
O3T Zn1T 1_555 1_555
O3DA Zn1DA 1_555 1_555
O3SA Zn1SA 1_555 1_555
O3P Zn1P 1_555 1_555
O3IA Zn1IA 1_555 1_555
O3OA Zn1OA 1_555 1_555
O4L Zn1L 1_555 1_555
O4Y Zn1Y 1_555 1_555
O4KA Zn1KA 1_555 1_555
O4G Zn1G 1_555 1_555
O4T Zn1T 1_555 1_555
O4DA Zn1DA 1_555 1_555
O4SA Zn1SA 1_555 1_555
O4J Zn1J 1_555 1_555
O4P Zn1P 1_555 1_555
O4IA Zn1IA 1_555 1_555
O4OA Zn1OA 1_555 1_555
O5PA C1PA 1_555 1_555
O5Q Zn1M 1_555 1_555
O5AA C1AA 1_555 1_555
O5G Zn1 1_555 1_555
O5LA C1LA 1_555 1_555
O5M Zn1U 1_555 1_555
O5BA C1BA 1_555 1_555
O5J Zn1G 1_555 1_555
O5TA C1TA 1_555 1_555
O5U Zn1Q 1_555 1_555
O5GA C1GA 1_555 1_555
O5S Zn1L 1_555 1_555
O5CA Zn1Y 1_555 1_555
O5OA Zn1KA 1_555 1_555
O5O Zn1T 1_555 1_555
O5FA Zn1DA 1_555 1_555
O5KA Zn1SA 1_555 1_555
O5W Zn1P 1_555 1_555
O5Z Zn1IA 1_555 1_555
O5SA Zn1OA 1_555 1_555
N1Y C14Y 1_555 1_555
N1G C14G 1_555 1_555
N1DA C14DA 1_555 1_555
N1J C14J 1_555 1_555
N1IA C14IA 1_555 1_555
N2Q C5Q 1_555 1_555
N2G C5G 1_555 1_555
N2M C5M 1_555 1_555
N2J C5J 1_555 1_555
N2U C5U 1_555 1_555
C1PA C2PA 1_555 1_555
C1Q O5Q 1_555 1_555
C1AA C2AA 1_555 1_555
C1G O3G 1_555 1_555
C1LA C2LA 1_555 1_555
C1M O5M 1_555 1_555
C1BA C2BA 1_555 1_555
C1J O3J 1_555 1_555
C1TA C2TA 1_555 1_555
C1U O5U 1_555 1_555
C1GA C2GA 1_555 1_555
C2PA C3PA 1_555 1_555
C2Q C1Q 1_555 1_555
C2AA C3AA 1_555 1_555
C2G C1G 1_555 1_555
C2LA C3LA 1_555 1_555
C2M C1M 1_555 1_555
C2BA C3BA 1_555 1_555
C2J C1J 1_555 1_555
C2TA C3TA 1_555 1_555
C2U C1U 1_555 1_555
C2GA C3GA 1_555 1_555
C3PA H1PA 1_555 1_555
C3Q C2Q 1_555 1_555
C3AA H1AA 1_555 1_555
C3G C2G 1_555 1_555
C3LA H1LA 1_555 1_555
C3M C2M 1_555 1_555
C3BA H1BA 1_555 1_555
C3J C2J 1_555 1_555
C3TA H1TA 1_555 1_555
C3U C2U 1_555 1_555
C3GA H1GA 1_555 1_555
H1Q C3Q 1_555 1_555
H1G C3G 1_555 1_555
H1M C3M 1_555 1_555
H1J C3J 1_555 1_555
H1U C3U 1_555 1_555
C4PA C3PA 1_555 1_555
C4Q C3Q 1_555 1_555
C4AA C3AA 1_555 1_555
C4G C3G 1_555 1_555
C4LA C3LA 1_555 1_555
C4M C3M 1_555 1_555
C4BA C3BA 1_555 1_555
C4J C3J 1_555 1_555
C4TA C3TA 1_555 1_555
C4U C3U 1_555 1_555
C4GA C3GA 1_555 1_555
H2PA C4PA 1_555 1_555
H2Q C4Q 1_555 1_555
H2AA C4AA 1_555 1_555
H2G C4G 1_555 1_555
H2LA C4LA 1_555 1_555
H2M C4M 1_555 1_555
H2BA C4BA 1_555 1_555
H2J C4J 1_555 1_555
H2TA C4TA 1_555 1_555
H2U C4U 1_555 1_555
H2GA C4GA 1_555 1_555
C5PA N2 1_555 1_555
C5Q C4Q 1_555 1_555
C5AA N2Q 1_555 1_555
C5G C4G 1_555 1_555
C5LA N2G 1_555 1_555
C5M C4M 1_555 1_555
C5BA N2M 1_555 1_555
C5J C4J 1_555 1_555
C5TA N2J 1_555 1_555
C5U C4U 1_555 1_555
C5GA N2U 1_555 1_555
C6PA C5PA 1_555 1_555
C6Q C5Q 1_555 1_555
C6AA C5AA 1_555 1_555
C6G C5G 1_555 1_555
C6LA C5LA 1_555 1_555
C6M C5M 1_555 1_555
C6BA C5BA 1_555 1_555
C6J C5J 1_555 1_555
C6TA C5TA 1_555 1_555
C6U C5U 1_555 1_555
C6GA C5GA 1_555 1_555
H3PA C6PA 1_555 1_555
H3Q C6Q 1_555 1_555
H3AA C6AA 1_555 1_555
H3G C6G 1_555 1_555
H3LA C6LA 1_555 1_555
H3M C6M 1_555 1_555
H3BA C6BA 1_555 1_555
H3J C6J 1_555 1_555
H3TA C6TA 1_555 1_555
H3U C6U 1_555 1_555
H3GA C6GA 1_555 1_555
C7PA C2PA 1_555 1_555
C7Q C2Q 1_555 1_555
C7AA C2AA 1_555 1_555
C7G C2G 1_555 1_555
C7LA C2LA 1_555 1_555
C7M C2M 1_555 1_555
C7BA C2BA 1_555 1_555
C7J C2J 1_555 1_555
C7TA C2TA 1_555 1_555
C7U C2U 1_555 1_555
C7GA C2GA 1_555 1_555
H4PA C7PA 1_555 1_555
H4Q C7Q 1_555 1_555
H4AA C7AA 1_555 1_555
H4G C7G 1_555 1_555
H4LA C7LA 1_555 1_555
H4M C7M 1_555 1_555
H4BA C7BA 1_555 1_555
H4J C7J 1_555 1_555
H4TA C7TA 1_555 1_555
H4U C7U 1_555 1_555
H4GA C7GA 1_555 1_555
C8Q N2Q 1_555 1_555
C8G N2G 1_555 1_555
C8M N2M 1_555 1_555
C8J N2J 1_555 1_555
C8U N2U 1_555 1_555
C9Q C9 1_555 1_555
C9AA C8Q 1_555 1_555
C9PA C8 1_555 1_555
C9G C8G 1_555 1_555
C9M C8M 1_555 1_555
C9BA C8M 1_555 1_555
C9LA C8G 1_555 1_555
C9J C8J 1_555 1_555
C9U C8U 1_555 1_555
C9GA C8U 1_555 1_555
C9TA C8J 1_555 1_555
H5PA C9PA 1_555 1_555
H5AA C9AA 1_555 1_555
H5Q C9Q 1_555 1_555
H5G C9G 1_555 1_555
H5LA C9LA 1_555 1_555
H5BA C9BA 1_555 1_555
H5M C9M 1_555 1_555
H5J C9J 1_555 1_555
H5TA C9TA 1_555 1_555
H5GA C9GA 1_555 1_555
H5U C9U 1_555 1_555
C10L O2L 1_555 1_555
C10Y O2Y 1_555 1_555
C10KA O2KA 1_555 1_555
C10G O2G 1_555 1_555
C10T O2T 1_555 1_555
C10DA O2DA 1_555 1_555
C10SA O2SA 1_555 1_555
C10J O2J 1_555 1_555
C10P O2P 1_555 1_555
C10IA O2IA 1_555 1_555
C10OA O2OA 1_555 1_555
C11L C10L 1_555 1_555
C11Y C10Y 1_555 1_555
C11KA C10KA 1_555 1_555
C11G C10G 1_555 1_555
C11T C10T 1_555 1_555
C11DA C10DA 1_555 1_555
C11SA C10SA 1_555 1_555
C11J C10J 1_555 1_555
C11P C10P 1_555 1_555
C11IA C10IA 1_555 1_555
C11OA C10OA 1_555 1_555
C12L C11L 1_555 1_555
C12Y C11Y 1_555 1_555
C12KA C11KA 1_555 1_555
C12G C11G 1_555 1_555
C12T C11T 1_555 1_555
C12DA C11DA 1_555 1_555
C12SA C11SA 1_555 1_555
C12J C11J 1_555 1_555
C12P C11P 1_555 1_555
C12IA C11IA 1_555 1_555
C12OA C11OA 1_555 1_555
H6L C12L 1_555 1_555
H6Y C12Y 1_555 1_555
H6KA C12KA 1_555 1_555
H6G C12G 1_555 1_555
H6T C12T 1_555 1_555
H6DA C12DA 1_555 1_555
H6SA C12SA 1_555 1_555
H6J C12J 1_555 1_555
H6P C12P 1_555 1_555
H6IA C12IA 1_555 1_555
H6OA C12OA 1_555 1_555
C13L C12L 1_555 1_555
C13Y C12Y 1_555 1_555
C13KA C12KA 1_555 1_555
C13G C12G 1_555 1_555
C13T C12T 1_555 1_555
C13DA C12DA 1_555 1_555
C13SA C12SA 1_555 1_555
C13J C12J 1_555 1_555
C13P C12P 1_555 1_555
C13IA C12IA 1_555 1_555
C13OA C12OA 1_555 1_555
H7L C13L 1_555 1_555
H7Y C13Y 1_555 1_555
H7KA C13KA 1_555 1_555
H7G C13G 1_555 1_555
H7T C13T 1_555 1_555
H7DA C13DA 1_555 1_555
H7SA C13SA 1_555 1_555
H7J C13J 1_555 1_555
H7P C13P 1_555 1_555
H7IA C13IA 1_555 1_555
H7OA C13OA 1_555 1_555
C14L N1 1_555 1_555
C14Y C13Y 1_555 1_555
C14KA N1Y 1_555 1_555
C14G C13G 1_555 1_555
C14T N1G 1_555 1_555
C14DA C13DA 1_555 1_555
C14SA N1DA 1_555 1_555
C14J C13J 1_555 1_555
C14P N1J 1_555 1_555
C14IA C13IA 1_555 1_555
C14OA N1IA 1_555 1_555
C15L C14L 1_555 1_555
C15Y C14Y 1_555 1_555
C15KA C14KA 1_555 1_555
C15G C14G 1_555 1_555
C15T C14T 1_555 1_555
C15DA C14DA 1_555 1_555
C15SA C14SA 1_555 1_555
C15J C14J 1_555 1_555
C15P C14P 1_555 1_555
C15IA C14IA 1_555 1_555
C15OA C14OA 1_555 1_555
H8L C15L 1_555 1_555
H8Y C15Y 1_555 1_555
H8KA C15KA 1_555 1_555
H8G C15G 1_555 1_555
H8T C15T 1_555 1_555
H8DA C15DA 1_555 1_555
H8SA C15SA 1_555 1_555
H8J C15J 1_555 1_555
H8P C15P 1_555 1_555
H8IA C15IA 1_555 1_555
H8OA C15OA 1_555 1_555
C16L C11L 1_555 1_555
C16Y C11Y 1_555 1_555
C16KA C11KA 1_555 1_555
C16G C11G 1_555 1_555
C16T C11T 1_555 1_555
C16DA C11DA 1_555 1_555
C16SA C11SA 1_555 1_555
C16J C11J 1_555 1_555
C16P C11P 1_555 1_555
C16IA C11IA 1_555 1_555
C16OA C11OA 1_555 1_555
H9L C16L 1_555 1_555
H9Y C16Y 1_555 1_555
H9KA C16KA 1_555 1_555
H9G C16G 1_555 1_555
H9T C16T 1_555 1_555
H9DA C16DA 1_555 1_555
H9SA C16SA 1_555 1_555
H9J C16J 1_555 1_555
H9P C16P 1_555 1_555
H9IA C16IA 1_555 1_555
H9OA C16OA 1_555 1_555
C17Y N1Y 1_555 1_555
C17G N1G 1_555 1_555
C17DA N1DA 1_555 1_555
C17J N1J 1_555 1_555
C17IA N1IA 1_555 1_555
C18Y C18 1_555 1_555
C18KA C17Y 1_555 1_555
C18L C17 1_555 1_555
C18G C17G 1_555 1_555
C18DA C17DA 1_555 1_555
C18SA C17DA 1_555 1_555
C18T C17G 1_555 1_555
C18J C17J 1_555 1_555
C18IA C17IA 1_555 1_555
C18OA C17IA 1_555 1_555
C18P C17J 1_555 1_555
H10L C18L 1_555 1_555
H10KA C18KA 1_555 1_555
H10Y C18Y 1_555 1_555
H10G C18G 1_555 1_555
H10T C18T 1_555 1_555
H10SA C18SA 1_555 1_555
H10DA C18DA 1_555 1_555
H10J C18J 1_555 1_555
H10P C18P 1_555 1_555
H10OA C18OA 1_555 1_555
H10IA C18IA 1_555 1_555
O4 C10 1_555 1_555
C6 C7 1_555 1_555
C15 C16 1_555 1_555
O4L C10L 1_555 1_555
O4Y C10Y 1_555 1_555
O4KA C10KA 1_555 1_555
O4G C10G 1_555 1_555
O4T C10T 1_555 1_555
O4DA C10DA 1_555 1_555
O4SA C10SA 1_555 1_555
O4J C10J 1_555 1_555
O4P C10P 1_555 1_555
O4IA C10IA 1_555 1_555
O4OA C10OA 1_555 1_555
O5G C1G 1_555 1_555
O5J C1J 1_555 1_555
C4PA C5PA 1_555 1_555
C4AA C5AA 1_555 1_555
C4LA C5LA 1_555 1_555
C4BA C5BA 1_555 1_555
C4TA C5TA 1_555 1_555
C4GA C5GA 1_555 1_555
C6PA C7PA 1_555 1_555
C6Q C7Q 1_555 1_555
C6AA C7AA 1_555 1_555
C6G C7G 1_555 1_555
C6LA C7LA 1_555 1_555
C6M C7M 1_555 1_555
C6BA C7BA 1_555 1_555
C6J C7J 1_555 1_555
C6TA C7TA 1_555 1_555
C6U C7U 1_555 1_555
C6GA C7GA 1_555 1_555
C8Q C9Q 1_555 1_555
C9AA C9PA 1_555 1_555
C9G C9M 1_555 1_555
C9BA C9LA 1_555 1_555
C9J C9U 1_555 1_555
C9GA C9TA 1_555 1_555
C13L C14L 1_555 1_555
C13KA C14KA 1_555 1_555
C13T C14T 1_555 1_555
C13SA C14SA 1_555 1_555
C13P C14P 1_555 1_555
C13OA C14OA 1_555 1_555
C15L C16L 1_555 1_555
C15Y C16Y 1_555 1_555
C15KA C16KA 1_555 1_555
C15G C16G 1_555 1_555
C15T C16T 1_555 1_555
C15DA C16DA 1_555 1_555
C15SA C16SA 1_555 1_555
C15J C16J 1_555 1_555
C15P C16P 1_555 1_555
C15IA C16IA 1_555 1_555
C15OA C16OA 1_555 1_555
C17Y C18Y 1_555 1_555
C18KA C18L 1_555 1_555
C18G C18DA 1_555 1_555
C18SA C18T 1_555 1_555
C18J C18IA 1_555 1_555
C18OA C18P 1_555 1_555

#END
