
#######################################################################
#
#                 Cambridge Crystallographic Data Centre
#                                CCDC 
#
#######################################################################
#
# If this CIF has been generated from an entry in the Cambridge 
# Structural Database, then it will include bibliographic, chemical, 
# crystal, experimental, refinement or atomic coordinate data resulting 
# from the CCDC's data processing and validation procedures.
#
#######################################################################

data_JIQVAH
_symmetry_cell_setting           monoclinic
_symmetry_space_group_name_H-M   'P 21/m'
_symmetry_Int_Tables_number      11
_space_group_name_Hall           '-P 2yb'
loop_
_symmetry_equiv_pos_site_id
_symmetry_equiv_pos_as_xyz
1 x,y,z
2 -x,1/2+y,-z
3 -x,-y,-z
4 x,1/2-y,z
_cell_length_a                   8.6800(6)
_cell_length_b                   25.0903(15)
_cell_length_c                   11.0863(7)
_cell_angle_alpha                90
_cell_angle_beta                 101.550(4)
_cell_angle_gamma                90
_cell_volume                     2365.53
loop_
_atom_site_label
_atom_site_type_symbol
_atom_site_fract_x
_atom_site_fract_y
_atom_site_fract_z
Yb1 Yb 1.19191(5) 0.405150(17) 0.14122(4)
Ru1 Ru 0.61214(10) 0.38901(3) 0.83557(7)
Ru2 Ru 0.98845(14) 0.2500 0.42710(10)
C1 C 0.7361(11) 0.3061(4) 0.6957(9)
C2 C 0.8105(11) 0.2784(4) 0.6151(9)
C3 C 0.8811(13) 0.3568(4) 0.5386(10)
H1 H 0.9308 0.3761 0.4857
C4 C 0.8058(13) 0.3850(4) 0.6204(10)
H2 H 0.8058 0.4220 0.6182
C5 C 0.5137(12) 0.2779(4) 0.9274(9)
H3 H 0.4619 0.2958 0.9809
C6 C 0.6568(13) 0.2777(4) 0.7776(9)
C7 C 0.8077(12) 0.3868(4) -0.0326(9)
C8 C 1.4867(13) 0.4036(4) -0.0386(10)
C9 C 1.3422(12) 0.5342(4) 0.1861(9)
C10 C 0.4105(14) 0.3998(4) 0.7094(10)
C11 C 1.1799(18) 0.2500 0.5619(12)
C12 C 1.0738(12) 0.3067(4) 0.3331(9)
C13 C 0.7984(18) 0.2500 0.2918(13)
N1 N 0.7346(10) 0.3604(3) 0.7010(8)
N2 N 0.8842(10) 0.3045(3) 0.5340(7)
N3 N 0.5858(9) 0.3061(3) 0.8528(7)
N4 N 0.9205(12) 0.3880(3) 0.0461(9)
N5 N 1.4076(11) 0.4087(3) 0.0343(9)
N6 N 1.3136(11) 0.4900(3) 0.1962(9)
N7 N 0.2943(15) 0.4099(6) 0.6426(12)
N8 N 1.2871(16) 0.2500 0.6421(13)
N9 N 0.690(2) 0.2500 0.2085(16)
N10 N 1.1182(11) 0.3408(4) 0.2801(9)
O1 O 1.4119(10) 0.3810(4) 0.2793(8)
H4 H 1.4226 0.3781 0.3569
H5 H 1.5062 0.3838 0.2694
O2 O 1.1888(10) 0.3236(3) 0.0419(8)
H6 H 1.1749 0.3252 -0.0361
H7 H 1.2526 0.2986 0.0686
O3 O 1.0352(9) 0.4550(3) 0.2455(7)
H8 H 1.0820 0.4626 0.3183
H9 H 0.9543 0.4369 0.2518
O4 O 1.1128(9) 0.4564(3) -0.0399(7)
H10 H 1.1722 0.4738 -0.0780
H11 H 1.0522 0.4797 -0.0189
Yb1C Yb 1.19191(5) 0.094850(17) 0.14122(4)
Yb1_2 Yb 1.19191(5) 0.405150(17) 1.14122(4)
Yb1_3 Yb 0.19191(5) 0.405150(17) 1.14122(4)
Yb1B Yb 0.80809(5) 0.594850(17) 0.85878(4)
Ru1C Ru 0.61214(10) 0.11099(3) 0.83557(7)
Ru1_2 Ru 0.61214(10) 0.38901(3) -0.16443(7)
Ru1_3 Ru 1.61214(10) 0.38901(3) -0.16443(7)
Ru1B Ru 1.38786(10) 0.61099(3) 0.16443(7)
C1C C 0.7361(11) 0.1939(4) 0.6957(9)
C2C C 0.8105(11) 0.2216(4) 0.6151(9)
C3C C 0.8811(13) 0.1432(4) 0.5386(10)
H1C H 0.9308 0.1239 0.4857
C4C C 0.8058(13) 0.1150(4) 0.6204(10)
H2C H 0.8058 0.0780 0.6182
C5C C 0.5137(12) 0.2221(4) 0.9274(9)
H3C H 0.4619 0.2042 0.9809
C6C C 0.6568(13) 0.2223(4) 0.7776(9)
C7_2 C 0.8077(12) 0.3868(4) 0.9674(9)
C7C C 0.8077(12) 0.1132(4) 0.9674(9)
C8_2 C 0.4867(13) 0.4036(4) 0.9614(10)
C8C C 0.4867(13) 0.0964(4) 0.9614(10)
C9B C 0.6578(12) 0.4658(4) 0.8139(9)
C9A C 0.6578(12) 0.0342(4) 0.8139(9)
C10C C 0.4105(14) 0.1002(4) 0.7094(10)
C12C C 1.0738(12) 0.1933(4) 0.3331(9)
N1C N 0.7346(10) 0.1396(3) 0.7010(8)
N2C N 0.8842(10) 0.1955(3) 0.5340(7)
N3C N 0.5858(9) 0.1939(3) 0.8528(7)
N4_2 N 0.9205(12) 0.3880(3) 1.0461(9)
N4C N 0.9205(12) 0.1120(3) 0.0461(9)
N5_2 N 0.4076(11) 0.4087(3) 1.0343(9)
N5C N 1.4076(11) 0.0913(3) 0.0343(9)
N6B N 0.6864(11) 0.5100(3) 0.8038(9)
N6C N 1.3136(11) 0.0100(3) 0.1962(9)
N7C N 0.2943(15) 0.0901(6) 0.6426(12)
N10C N 1.1182(11) 0.1592(4) 0.2801(9)
O1C O 1.4119(10) 0.1190(4) 0.2793(8)
H4C H 1.4226 0.1219 0.3569
H5C H 1.5062 0.1162 0.2694
O2C O 1.1888(10) 0.1764(3) 0.0419(8)
H6C H 1.1749 0.1748 -0.0361
H7C H 1.2526 0.2014 0.0686
O3C O 1.0352(9) 0.0450(3) 0.2455(7)
H8C H 1.0820 0.0374 0.3183
H9C H 0.9543 0.0631 0.2518
O4C O 1.1128(9) 0.0436(3) -0.0399(7)
H10C H 1.1722 0.0262 -0.0780
H11C H 1.0522 0.0203 -0.0189
O5 O 0.9296(14) 0.2500 0.0248(10)
O6 O 0.1456(11) 0.3283(4) 0.7961(9)
O7 O 0.3095(9) 0.5125(3) 0.8359(8)
O8 O 0.3763(14) 0.2500 0.2120(11)
O9 O 0.480(2) 0.5252(9) 0.5218(17)
O10 O 0.187(2) 0.4805(7) 0.4815(16)
O12 O 0.730(3) 0.3877(12) 0.268(2)
O14 O 0.460(2) 0.3281(8) 0.4904(16)
O11? O 0.099(2) 0.4893(7) 0.4712(16)
O13? O 0.715(4) 0.3643(15) 0.242(3)
O15? O 0.466(2) 0.2987(8) 0.4469(16)
loop_
_geom_bond_atom_site_label_1
_geom_bond_atom_site_label_2
_geom_bond_site_symmetry_1
_geom_bond_site_symmetry_2
Yb1 N4 1_555 1_555
Ru1 C10 1_555 1_555
Ru2 C11 1_555 1_555
C1 C2 1_555 1_555
C2 N2 1_555 1_555
C3 H1 1_555 1_555
C4 C3 1_555 1_555
H2 C4 1_555 1_555
C5 H3 1_555 1_555
C6 C1 1_555 1_555
C7 N4 1_555 1_555
C8 N5 1_555 1_555
C9 N6 1_555 1_555
C10 N7 1_555 1_555
C11 N8 1_555 1_555
C12 Ru2 1_555 1_555
C13 Ru2 1_555 1_555
N1 Ru1 1_555 1_555
N2 Ru2 1_555 1_555
N3 Ru1 1_555 1_555
N5 Yb1 1_555 1_555
N6 Yb1 1_555 1_555
N9 C13 1_555 1_555
N10 Yb1 1_555 1_555
O1 Yb1 1_555 1_555
H4 O1 1_555 1_555
H5 O1 1_555 1_555
O2 Yb1 1_555 1_555
H6 O2 1_555 1_555
H7 O2 1_555 1_555
O3 Yb1 1_555 1_555
H8 O3 1_555 1_555
H9 O3 1_555 1_555
O4 Yb1 1_555 1_555
H10 O4 1_555 1_555
H11 O4 1_555 1_555
Yb1C N4C 1_555 1_555
Yb1_2 N4_2 1_555 1_555
Yb1_3 N5_2 1_555 1_555
Yb1B N6B 1_555 1_555
Ru1C C7C 1_555 1_555
Ru1_2 C7 1_555 1_555
Ru1_3 C8 1_555 1_555
Ru1B C9 1_555 1_555
C1C C2C 1_555 1_555
C2C C2 1_555 1_555
C3C H1C 1_555 1_555
C4C C3C 1_555 1_555
H2C C4C 1_555 1_555
C5C C5 1_555 1_555
H3C C5C 1_555 1_555
C6C C6 1_555 1_555
C7_2 Ru1 1_555 1_555
C8_2 Ru1 1_555 1_555
C8C Ru1C 1_555 1_555
C9B Ru1 1_555 1_555
C9A Ru1C 1_555 1_555
C10C Ru1C 1_555 1_555
C12C Ru2 1_555 1_555
N1C Ru1C 1_555 1_555
N2C Ru2 1_555 1_555
N3C Ru1C 1_555 1_555
N4_2 C7_2 1_555 1_555
N5_2 C8_2 1_555 1_555
N5C Yb1C 1_555 1_555
N6B C9B 1_555 1_555
N6C Yb1C 1_555 1_555
N7C C10C 1_555 1_555
N10C Yb1C 1_555 1_555
O1C Yb1C 1_555 1_555
H4C O1C 1_555 1_555
H5C O1C 1_555 1_555
O2C Yb1C 1_555 1_555
H6C O2C 1_555 1_555
H7C O2C 1_555 1_555
O3C Yb1C 1_555 1_555
H8C O3C 1_555 1_555
H9C O3C 1_555 1_555
O4C Yb1C 1_555 1_555
H10C O4C 1_555 1_555
H11C O4C 1_555 1_555
C1 N1 1_555 1_555
C3 N2 1_555 1_555
C4 N1 1_555 1_555
C5 N3 1_555 1_555
C6 N3 1_555 1_555
C12 N10 1_555 1_555
C1C C6C 1_555 1_555
C1C N1C 1_555 1_555
C2C N2C 1_555 1_555
C3C N2C 1_555 1_555
C4C N1C 1_555 1_555
C5C N3C 1_555 1_555
C6C N3C 1_555 1_555
C12C N10C 1_555 1_555

#END
