
#######################################################################
#
#                 Cambridge Crystallographic Data Centre
#                                CCDC 
#
#######################################################################
#
# If this CIF has been generated from an entry in the Cambridge 
# Structural Database, then it will include bibliographic, chemical, 
# crystal, experimental, refinement or atomic coordinate data resulting 
# from the CCDC's data processing and validation procedures.
#
#######################################################################

data_JIVSAJ
_symmetry_cell_setting           monoclinic
_symmetry_space_group_name_H-M   'C 2'
_symmetry_Int_Tables_number      5
_space_group_name_Hall           'C 2y'
loop_
_symmetry_equiv_pos_site_id
_symmetry_equiv_pos_as_xyz
1 x,y,z
2 -x,y,-z
3 1/2+x,1/2+y,z
4 1/2-x,1/2+y,-z
_cell_length_a                   36.860(5)
_cell_length_b                   6.9900(7)
_cell_length_c                   6.2100(7)
_cell_angle_alpha                90
_cell_angle_beta                 97.020(6)
_cell_angle_gamma                90
_cell_volume                     1588.02
loop_
_atom_site_label
_atom_site_type_symbol
_atom_site_fract_x
_atom_site_fract_y
_atom_site_fract_z
Cl1 Cl -0.01527(17) 1.2256(14) 0.7483(10)
O8 O 0.0155(11) 1.229(12) 0.653(6)
O9 O -0.0260(6) 1.393(3) 0.670(3)
O10 O -0.0358(6) 1.044(3) 0.718(3)
O11 O 0.0000 1.238(4) 1.0000
Cl1A Cl 0.01527(17) 1.2256(14) 1.2517(10)
O8A O -0.0155(11) 1.229(12) 1.347(6)
O9A O 0.0260(6) 1.393(3) 1.330(3)
O10A O 0.0358(6) 1.044(3) 1.282(3)
Eu1 Eu 0.220007(5) 0.68912(15) 0.52238(3)
Cu1 Cu 0.0000 0.6898(11) 1.0000
O1 O 0.15366(12) 0.7447(7) 0.4888(7)
O2 O 0.18099(10) 0.6692(18) 0.8101(6)
O3 O 0.27263(18) 0.5314(11) 0.3498(10)
O4 O 0.27893(19) 0.8398(11) 0.4090(11)
O5 O 0.26658(10) 0.6677(13) -0.1636(6)
O6 O 0.2952(2) 0.3914(13) -0.2230(16)
N1 N 0.04671(13) 0.690(4) 0.9033(9)
C1 C 0.15208(13) 0.697(4) 0.6855(8)
C2 C 0.11530(13) 0.696(4) 0.7674(9)
C3 C 0.11095(17) 0.6422(10) 0.9724(11)
H1 H 0.1311 0.6076 1.0696
C4 C 0.0765(2) 0.6392(14) 1.0353(13)
H2 H 0.0738 0.6000 1.1755
C5 C 0.05139(19) 0.7569(13) 0.7066(14)
H3 H 0.0311 0.8016 0.6166
C6 C 0.08513(19) 0.7620(12) 0.6329(12)
H4 H 0.0876 0.8086 0.4952
C7 C 0.36005(17) 0.5939(10) -0.0549(11)
H5 H 0.3616 0.5424 -0.1916
C8 C 0.39160(16) 0.660(3) 0.0724(12)
H6 H 0.4140 0.6555 0.0178
C9 C 0.38975(16) 0.7298(12) 0.2761(13)
H7 H 0.4110 0.7675 0.3624
C10 C 0.35635(17) 0.7446(9) 0.3532(10)
H8 H 0.3552 0.7960 0.4903
C11 C 0.32464(11) 0.685(3) 0.2305(7)
C12 C 0.32608(15) 0.6061(9) 0.0245(9)
C13 C 0.28985(12) 0.678(3) 0.3336(7)
C14 C 0.29303(16) 0.5461(9) -0.1317(9)
O7 O 0.1968(2) 0.5090(12) 0.2070(15)
Eu1A Eu -0.220007(5) 0.68912(15) 1.47762(3)
Eu1C Eu 0.279993(5) 0.18912(15) 0.47762(3)
Eu1C_2 Eu 0.279993(5) 1.18912(15) 0.47762(3)
Eu1_2 Eu 0.220007(5) 0.68912(15) -0.47762(3)
Eu1C_3 Eu 0.279993(5) 0.18912(15) -0.52238(3)
Eu1_3 Eu 0.220007(5) 1.68912(15) 0.52238(3)
Eu1C_4 Eu 0.279993(5) 1.18912(15) 1.47762(3)
Eu1_4 Eu 0.220007(5) 0.68912(15) 1.52238(3)
O1A O -0.15366(12) 0.7447(7) 1.5112(7)
O2A O -0.18099(10) 0.6692(18) 1.1899(6)
O3C O 0.22737(18) 1.0314(11) 0.6502(10)
O3A O -0.27263(18) 0.5314(11) 1.6502(10)
O3B O -0.22737(18) 1.0314(11) 1.3498(10)
O4C O 0.22107(19) 1.3398(11) 0.5910(11)
O4C_2 O 0.22107(19) 0.3398(11) 0.5910(11)
O4A O -0.27893(19) 0.8398(11) 1.5910(11)
O4B O -0.22107(19) 0.3398(11) 1.4090(11)
O5C O 0.23342(10) 1.1677(13) 1.1636(6)
O5_2 O 0.26658(10) 0.6677(13) 0.8364(6)
O5A O -0.26658(10) 0.6677(13) 1.1636(6)
O6C O 0.2048(2) 0.8914(13) 1.2230(16)
O6C_2 O 0.2048(2) 0.8914(13) 0.2230(16)
O6B O -0.2048(2) 0.8914(13) 1.7770(16)
N1A N -0.04671(13) 0.690(4) 1.0967(9)
C1A C -0.15208(13) 0.697(4) 1.3145(8)
C2A C -0.11530(13) 0.696(4) 1.2326(9)
C3A C -0.11095(17) 0.6422(10) 1.0276(11)
H1A H -0.1311 0.6076 0.9304
C4A C -0.0765(2) 0.6392(14) 0.9647(13)
H2A H -0.0738 0.6000 0.8245
C5A C -0.05139(19) 0.7569(13) 1.2934(14)
H3A H -0.0311 0.8016 1.3834
C6A C -0.08513(19) 0.7620(12) 1.3671(12)
H4A H -0.0876 0.8086 1.5048
C7C C 0.13995(17) 1.0939(10) 1.0549(11)
H5C H 0.1384 1.0424 1.1916
C8C C 0.10840(16) 1.160(3) 0.9276(12)
H6C H 0.0860 1.1555 0.9822
C9C C 0.11025(16) 1.2298(12) 0.7239(13)
H7C H 0.0890 1.2675 0.6376
C10C C 0.14365(17) 1.2446(9) 0.6468(10)
H8C H 0.1448 1.2960 0.5097
C11C C 0.17536(11) 1.185(3) 0.7695(7)
C12C C 0.17392(15) 1.1061(9) 0.9755(9)
C13C C 0.21015(12) 1.178(3) 0.6664(7)
C14C C 0.20697(16) 1.0461(9) 1.1317(9)
O7A O -0.1968(2) 0.5090(12) 1.7930(15)
loop_
_geom_bond_atom_site_label_1
_geom_bond_atom_site_label_2
_geom_bond_site_symmetry_1
_geom_bond_site_symmetry_2
Eu1 O1 1_555 1_555
Cu1 N1 1_555 1_555
O1 C1 1_555 1_555
O2 Eu1 1_555 1_555
O3 Eu1 1_555 1_555
O4 Eu1 1_555 1_555
O5 C14 1_555 1_555
O6 C14 1_555 1_555
N1 C4 1_555 1_555
C1 O2 1_555 1_555
C2 C1 1_555 1_555
C3 C2 1_555 1_555
H1 C3 1_555 1_555
C4 C3 1_555 1_555
H2 C4 1_555 1_555
C5 N1 1_555 1_555
H3 C5 1_555 1_555
C6 C2 1_555 1_555
H4 C6 1_555 1_555
C7 H5 1_555 1_555
C8 C7 1_555 1_555
H6 C8 1_555 1_555
C9 C8 1_555 1_555
H7 C9 1_555 1_555
C10 C9 1_555 1_555
H8 C10 1_555 1_555
C11 C10 1_555 1_555
C12 C7 1_555 1_555
C13 O3 1_555 1_555
C14 C12 1_555 1_555
O7 Eu1 1_555 1_555
Cl1 O8 1_555 1_555
O9 Cl1 1_555 1_555
O10 Cl1 1_555 1_555
O11 Cl1 1_555 1_555
Eu1A O1A 1_555 1_555
Eu1C O3 1_555 1_555
Eu1C_2 O4 1_555 1_555
Eu1_2 O5 1_555 1_555
Eu1C_3 O6 1_555 1_555
Eu1_3 O4C 1_555 1_555
Eu1C_4 O5C 1_555 1_555
Eu1_4 O6C 1_555 1_555
O1A C1A 1_555 1_555
O2A Eu1A 1_555 1_555
O3C Eu1 1_555 1_555
O3A Eu1A 1_555 1_555
O3B Eu1A 1_555 1_555
O4C Eu1C_2 1_555 1_555
O4C_2 Eu1 1_555 1_555
O4A Eu1A 1_555 1_555
O4B Eu1A 1_555 1_555
O5C C14C 1_555 1_555
O5_2 Eu1 1_555 1_555
O5A Eu1A 1_555 1_555
O6C C14C 1_555 1_555
O6C_2 Eu1 1_555 1_555
O6B Eu1A 1_555 1_555
N1A Cu1 1_555 1_555
C1A O2A 1_555 1_555
C2A C1A 1_555 1_555
C3A C2A 1_555 1_555
H1A C3A 1_555 1_555
C4A N1A 1_555 1_555
H2A C4A 1_555 1_555
C5A N1A 1_555 1_555
H3A C5A 1_555 1_555
C6A C2A 1_555 1_555
H4A C6A 1_555 1_555
C7C H5C 1_555 1_555
C8C C7C 1_555 1_555
H6C C8C 1_555 1_555
C9C C8C 1_555 1_555
H7C C9C 1_555 1_555
C10C C9C 1_555 1_555
H8C C10C 1_555 1_555
C11C C10C 1_555 1_555
C12C C7C 1_555 1_555
C13C O3C 1_555 1_555
C14C C12C 1_555 1_555
O7A Eu1A 1_555 1_555
Cl1A O11 1_555 1_555
O8A Cl1A 1_555 1_555
O9A Cl1A 1_555 1_555
O10A Cl1A 1_555 1_555
O4 C13 1_555 1_555
C5 C6 1_555 1_555
C11 C12 1_555 1_555
C11 C13 1_555 1_555
Eu1C O4C_2 1_555 1_555
Eu1C_2 O3C 1_555 1_555
O4C C13C 1_555 1_555
C3A C4A 1_555 1_555
C5A C6A 1_555 1_555
C11C C12C 1_555 1_555
C11C C13C 1_555 1_555

#END
