
#######################################################################
#
#                 Cambridge Crystallographic Data Centre
#                                CCDC 
#
#######################################################################
#
# If this CIF has been generated from an entry in the Cambridge 
# Structural Database, then it will include bibliographic, chemical, 
# crystal, experimental, refinement or atomic coordinate data resulting 
# from the CCDC's data processing and validation procedures.
#
#######################################################################

data_JIXWUJ
_symmetry_cell_setting           monoclinic
_symmetry_space_group_name_H-M   'P 21/n'
_symmetry_Int_Tables_number      14
_space_group_name_Hall           '-P 2yn'
loop_
_symmetry_equiv_pos_site_id
_symmetry_equiv_pos_as_xyz
1 x,y,z
2 1/2-x,1/2+y,1/2-z
3 -x,-y,-z
4 1/2+x,1/2-y,1/2+z
_cell_length_a                   11.6954(11)
_cell_length_b                   10.1510(11)
_cell_length_c                   14.9162(16)
_cell_angle_alpha                90
_cell_angle_beta                 91.642(3)
_cell_angle_gamma                90
_cell_volume                     1770.12
loop_
_atom_site_label
_atom_site_type_symbol
_atom_site_fract_x
_atom_site_fract_y
_atom_site_fract_z
Mn1 Mn 0.5000 0.0000 0.5000
Mn2 Mn 1.0000 0.0000 0.5000
Mn3 Mn 0.23961(3) -0.10269(3) 0.81401(2)
Mn4 Mn 0.25679(3) 0.08260(3) 0.63099(2)
O1 O 0.19340(12) -0.29583(13) 0.75182(10)
O2 O 0.40130(12) 0.16091(14) 0.56094(10)
O3 O 0.81376(12) 0.02839(16) 0.47898(10)
O4 O 0.84640(12) -0.26108(14) 0.39283(10)
O5 O 0.35126(12) -0.07801(14) 0.69661(10)
O6 O 1.12746(12) -0.00284(14) 0.71834(10)
O7 O 0.96286(13) -0.0007(2) 0.64088(11)
O8 O 0.39287(14) 0.37593(16) 0.59266(12)
O9 O 0.18496(16) -0.42893(16) 0.63267(11)
O10 O 0.65363(13) 0.10463(19) 0.53738(12)
O11 O 0.51178(14) -0.1113(2) 0.62325(12)
O12 O 0.98167(14) -0.21121(18) 0.49580(12)
C1 C 0.1706(2) -0.3215(2) 0.67056(14)
C2 C 0.4476(2) -0.1313(2) 0.68527(16)
C3 C 1.01992(19) -0.0133(2) 0.71038(14)
C4 C 0.9265(2) -0.2895(2) 0.44850(16)
C5 C 0.4343(2) 0.2798(2) 0.55463(16)
C6 C 0.75784(19) 0.1001(2) 0.53272(16)
H1 H 0.1448 -0.2473 0.6286
H2 H 0.8088 0.1611 0.5707
H3 H 0.9831 -0.0130 0.7668
H4 H 0.9486 -0.3846 0.4562
H5 H 0.4770 -0.1966 0.7359
H6 H 0.5020 0.2941 0.5150
Mn2_2 Mn 0.0000 0.0000 0.5000
Mn3B Mn 0.76039(3) 0.10269(3) 0.18599(2)
Mn3C Mn 0.73961(3) -0.39731(3) 0.31401(2)
Mn3_2 Mn 1.23961(3) -0.10269(3) 0.81401(2)
Mn3A Mn 0.26039(3) 0.39731(3) 0.68599(2)
Mn3A_2 Mn 0.26039(3) -0.60269(3) 0.68599(2)
Mn3A_3 Mn 1.26039(3) 0.39731(3) 0.68599(2)
Mn4B Mn 0.74321(3) -0.08260(3) 0.36901(2)
Mn4A Mn 0.24321(3) -0.41740(3) 0.86901(2)
Mn4_2 Mn 1.25679(3) 0.08260(3) 0.63099(2)
O1A O 0.30660(12) 0.20417(13) 0.74818(10)
O1B O 0.80660(12) 0.29583(13) 0.24818(10)
O1C O 0.69340(12) -0.20417(13) 0.25182(10)
O2B O 0.59870(12) -0.16091(14) 0.43906(10)
O3B O 0.18624(12) -0.02839(16) 0.52102(10)
O3B_2 O 1.18624(12) -0.02839(16) 0.52102(10)
O4B O 1.15360(12) 0.26108(14) 0.60717(10)
O4C O 0.34640(12) -0.23892(14) 0.89283(10)
O4B_2 O 0.15360(12) 0.26108(14) 0.60717(10)
O4A O 0.65360(12) 0.23892(14) 0.10717(10)
O5B O 0.64874(12) 0.07801(14) 0.30339(10)
O6B O 0.87254(12) 0.00284(14) 0.28166(10)
O6_2 O 0.12746(12) -0.00284(14) 0.71834(10)
O7B O 1.03714(13) 0.0007(2) 0.35912(11)
O8B O 0.60713(14) -0.37593(16) 0.40734(12)
O8A O 0.10713(14) -0.12407(16) 0.90734(12)
O8C O 0.89287(14) 0.12407(16) 0.09266(12)
O9A O 0.31504(16) 0.07107(16) 0.86733(11)
O9C O 0.68496(16) -0.07107(16) 0.13267(11)
O10B O 0.34637(13) -0.10463(19) 0.46262(12)
O11B O 0.48822(14) 0.1113(2) 0.37675(12)
O12B O 1.01833(14) 0.21121(18) 0.50420(12)
C1A C 0.3294(2) 0.1785(2) 0.82944(14)
C2B C 0.5524(2) 0.1313(2) 0.31473(16)
C3B C 0.98008(19) 0.0133(2) 0.28962(14)
C4B C 1.0735(2) 0.2895(2) 0.55150(16)
C5B C 0.5657(2) -0.2798(2) 0.44537(16)
C6B C 0.24216(19) -0.1001(2) 0.46728(16)
H1A H 0.3552 0.2527 0.8714
H2B H 0.1912 -0.1611 0.4293
H3B H 1.0169 0.0130 0.2332
H4B H 1.0514 0.3846 0.5438
H5B H 0.5230 0.1966 0.2641
H6B H 0.4980 -0.2941 0.4850
O13 O 0.363(2) 0.781(2) 0.2694(18)
C7 C 0.351(2) 0.876(2) 0.2027(13)
C8 C 0.245(2) 0.868(3) 0.1603(16)
O14? O 0.347(4) 1.083(4) 0.161(2)
C9? C 0.283(6) 0.992(5) 0.105(2)
loop_
_geom_bond_atom_site_label_1
_geom_bond_atom_site_label_2
_geom_bond_site_symmetry_1
_geom_bond_site_symmetry_2
Mn1 O2 1_555 1_555
Mn2 O3 1_555 1_555
Mn3 O1 1_555 1_555
Mn4 O2 1_555 1_555
O1 C1 1_555 1_555
O2 C5 1_555 1_555
O3 C6 1_555 1_555
O4 C4 1_555 1_555
O5 Mn3 1_555 1_555
O6 C3 1_555 1_555
O7 Mn2 1_555 1_555
O8 C5 1_555 1_555
O9 C1 1_555 1_555
O10 Mn1 1_555 1_555
O11 Mn1 1_555 1_555
O12 Mn2 1_555 1_555
C1 H1 1_555 1_555
C2 O5 1_555 1_555
C3 O7 1_555 1_555
C4 O12 1_555 1_555
C5 H6 1_555 1_555
C6 O10 1_555 1_555
H2 C6 1_555 1_555
H3 C3 1_555 1_555
H4 C4 1_555 1_555
H5 C2 1_555 1_555
O13 C7 1_555 1_555
C7 C8 1_555 1_555
Mn2_2 O3B 1_555 1_555
Mn3B O1B 1_555 1_555
Mn3C O4 1_555 1_555
Mn3_2 O6 1_555 1_555
Mn3A O8 1_555 1_555
Mn3A_2 O9 1_555 1_555
Mn3A_3 O4B 1_555 1_555
Mn4B O3 1_555 1_555
Mn4A O1 1_555 1_555
Mn4_2 O6 1_555 1_555
O1A Mn4 1_555 1_555
O1C Mn3C 1_555 1_555
O2B Mn1 1_555 1_555
O3B Mn4 1_555 1_555
O3B_2 Mn2 1_555 1_555
O4B Mn4_2 1_555 1_555
O4C Mn3 1_555 1_555
O4B_2 Mn4 1_555 1_555
O4A Mn3B 1_555 1_555
O5B Mn3B 1_555 1_555
O6B Mn3B 1_555 1_555
O6_2 Mn3 1_555 1_555
O7B Mn2 1_555 1_555
O8B Mn3C 1_555 1_555
O8A Mn3 1_555 1_555
O8C Mn3B 1_555 1_555
O9A Mn3 1_555 1_555
O9C Mn3B 1_555 1_555
O10B Mn1 1_555 1_555
O11B Mn1 1_555 1_555
O12B Mn2 1_555 1_555
C1A O1A 1_555 1_555
C2B O5B 1_555 1_555
C3B O6B 1_555 1_555
C4B O4B 1_555 1_555
C5B O2B 1_555 1_555
C6B O3B 1_555 1_555
H1A C1A 1_555 1_555
H2B C6B 1_555 1_555
H3B C3B 1_555 1_555
H4B C4B 1_555 1_555
H5B C2B 1_555 1_555
H6B C5B 1_555 1_555
Mn4 O5 1_555 1_555
Mn4 O6_2 1_555 1_555
O4 Mn4B 1_555 1_555
O11 C2 1_555 1_555
Mn3A O1A 1_555 1_555
Mn3A O4B_2 1_555 1_555
Mn4B O1C 1_555 1_555
Mn4B O2B 1_555 1_555
Mn4B O5B 1_555 1_555
Mn4B O6B 1_555 1_555
Mn4A O4C 1_555 1_555
Mn4_2 O3B_2 1_555 1_555
O7B C3B 1_555 1_555
O8B C5B 1_555 1_555
O9A C1A 1_555 1_555
O10B C6B 1_555 1_555
O11B C2B 1_555 1_555
O12B C4B 1_555 1_555

#END
