
#######################################################################
#
#                 Cambridge Crystallographic Data Centre
#                                CCDC 
#
#######################################################################
#
# If this CIF has been generated from an entry in the Cambridge 
# Structural Database, then it will include bibliographic, chemical, 
# crystal, experimental, refinement or atomic coordinate data resulting 
# from the CCDC's data processing and validation procedures.
#
#######################################################################

data_JIYQEN
_symmetry_cell_setting           trigonal
_symmetry_space_group_name_H-M   'P -3'
_symmetry_Int_Tables_number      147
_space_group_name_Hall           '-P 3'
loop_
_symmetry_equiv_pos_site_id
_symmetry_equiv_pos_as_xyz
1 x,y,z
2 -y,x-y,z
3 -x+y,-x,z
4 -x,-y,-z
5 y,-x+y,-z
6 x-y,x,-z
_cell_length_a                   18.6754(4)
_cell_length_b                   18.6754(4)
_cell_length_c                   13.8500(4)
_cell_angle_alpha                90
_cell_angle_beta                 90
_cell_angle_gamma                120
_cell_volume                     4183.31
loop_
_atom_site_label
_atom_site_type_symbol
_atom_site_fract_x
_atom_site_fract_y
_atom_site_fract_z
V1 V -0.1980(1) 0.0731(1) -0.2064(1)
V2 V -0.3285(1) -0.2019(1) -0.0439(1)
V3 V -0.2921(1) -0.0912(1) -0.4696(1)
P1 P -0.3509(1) -0.1115(1) -0.2400(1)
P2 P -0.2673(1) 0.0924(1) -0.4201(1)
P3 P -0.3256(1) -0.0720(1) 0.1064(1)
O1 O -0.3328(2) -0.1315(2) -0.3382(3)
O2 O -0.3295(2) -0.1616(2) -0.1719(2)
O3 O -0.3094(2) -0.0212(2) -0.2164(2)
O4 O -0.2204(2) 0.1170(2) -0.3257(2)
O5 O -0.3079(2) 0.0002(2) -0.4449(2)
O6 O -0.2090(2) 0.1466(2) -0.4992(2)
O7 O -0.3157(2) -0.1008(2) 0.0051(2)
O8 O -0.2704(2) 0.0220(2) 0.1157(2)
O9 O -0.3082(2) -0.1166(2) 0.1898(2)
O10 O -0.1389(2) 0.0392(2) -0.2318(3)
O11 O -0.2188(2) 0.0646(2) -0.0694(2)
O12 O -0.4250(3) -0.2690(2) -0.0253(3)
O13 O -0.1958(2) -0.0617(2) -0.4666(3)
O14 O -0.3140(2) -0.0754(2) -0.6075(3)
C1 C -0.4581(4) -0.1478(4) -0.2333(6)
C2 C -0.4889(3) -0.1588(3) -0.1405(4)
C3 C -0.5704(3) -0.1819(3) -0.1232(4)
C4 C -0.6225(5) -0.1937(5) -0.2029(6)
C5 C -0.5923(5) -0.1821(6) -0.2914(7)
C6 C -0.5088(7) -0.1588(6) -0.3094(7)
C7 C -0.3488(3) 0.1143(3) -0.4090(4)
C8 C -0.4306(4) 0.0518(4) -0.3952(4)
C9 C -0.4921(4) 0.0719(4) -0.3886(4)
C10 C -0.4721(4) 0.1532(4) -0.3973(5)
C11 C -0.3934(4) 0.2133(4) -0.4091(5)
C12 C -0.3317(4) 0.1943(4) -0.4157(5)
C13 C -0.4292(3) -0.0946(3) 0.1252(4)
C14 C -0.4544(3) -0.0371(3) 0.1136(4)
C15 C -0.5361(5) -0.0577(5) 0.1245(6)
C16 C -0.5932(5) -0.1367(4) 0.1470(5)
C17 C -0.5698(4) -0.1972(4) 0.1612(4)
C18 C -0.4881(6) -0.1764(6) 0.1491(8)
H1 H -0.4540(3) -0.1504(3) -0.0886(4)
H2 H -0.5906(3) -0.1896(3) -0.0605(4)
H3 H -0.6777(5) -0.2094(5) -0.1931(6)
H4 H -0.6269(5) -0.1895(6) -0.3433(7)
H5 H -0.4888(7) -0.1511(6) -0.3723(7)
H6 H -0.4435(4) -0.0031(4) -0.3905(4)
H7 H -0.5466(4) 0.0308(4) -0.3783(4)
H8 H -0.5138(4) 0.1666(4) -0.3950(5)
H9 H -0.3807(4) 0.2682(4) -0.4128(5)
H10 H -0.2775(4) 0.2364(4) -0.4249(5)
H11 H -0.4152(3) 0.0171(3) 0.0979(4)
H12 H -0.5517(5) -0.0179(5) 0.1166(6)
H13 H -0.6485(5) -0.1513(4) 0.1531(5)
H14 H -0.6092(4) -0.2508(4) 0.1786(4)
H15 H -0.4724(6) -0.2161(6) 0.1567(8)
V2D V -0.2019(1) 0.1266(1) 0.0439(1)
V1E V -0.2711(1) -0.1980(1) 0.2064(1)
O9D O -0.1166(2) 0.1916(3) -0.1898(2)
O11E O -0.2834(3) -0.2188(2) 0.0694(2)
O8E O -0.2924(3) -0.2704(2) -0.1157(2)
O6E O -0.3556(3) -0.2090(2) -0.5008(2)
V3D V -0.0912(1) 0.2009(1) -0.5304(1)
O15 O 0.0000 0.0000 -0.1525(8)
O16 O 0.0320(3) 0.1579(3) -0.2733(4)
O17 O -0.2948(2) 0.0609(2) -0.6806(2)
O18 O 0.0682(2) 0.1688(2) -0.0679(3)
loop_
_geom_bond_atom_site_label_1
_geom_bond_atom_site_label_2
_geom_bond_site_symmetry_1
_geom_bond_site_symmetry_2
V1 O3 1_555 1_555
V2 O2 1_555 1_555
V3 O1 1_555 1_555
P1 O1 1_555 1_555
P2 O4 1_555 1_555
P3 O7 1_555 1_555
O2 P1 1_555 1_555
O3 P1 1_555 1_555
O4 V1 1_555 1_555
O5 V3 1_555 1_555
O6 P2 1_555 1_555
O7 V2 1_555 1_555
O8 P3 1_555 1_555
O9 P3 1_555 1_555
O10 V1 1_555 1_555
O11 V1 1_555 1_555
O12 V2 1_555 1_555
O13 V3 1_555 1_555
O14 V3 1_555 1_555
C1 P1 1_555 1_555
C2 C1 1_555 1_555
C3 C2 1_555 1_555
C4 C3 1_555 1_555
C5 C4 1_555 1_555
C6 C1 1_555 1_555
C7 P2 1_555 1_555
C8 C7 1_555 1_555
C9 C8 1_555 1_555
C10 C9 1_555 1_555
C11 C10 1_555 1_555
C12 C7 1_555 1_555
C13 P3 1_555 1_555
C14 C13 1_555 1_555
C15 C14 1_555 1_555
C16 C15 1_555 1_555
C17 C16 1_555 1_555
C18 C13 1_555 1_555
H1 C2 1_555 1_555
H2 C3 1_555 1_555
H3 C4 1_555 1_555
H4 C5 1_555 1_555
H5 C6 1_555 1_555
H6 C8 1_555 1_555
H7 C9 1_555 1_555
H8 C10 1_555 1_555
H9 C11 1_555 1_555
H10 C12 1_555 1_555
H11 C14 1_555 1_555
H12 C15 1_555 1_555
H13 C16 1_555 1_555
H14 C17 1_555 1_555
H15 C18 1_555 1_555
V2D O8 1_555 1_555
V1E O9 1_555 1_555
O9D V1 1_555 1_555
O11E V2 1_555 1_555
O8E V2 1_555 1_555
O6E V3 1_555 1_555
V3D O6 1_555 1_555
P2 O5 1_555 1_555
O11 V2D 1_555 1_555
C5 C6 1_555 1_555
C11 C12 1_555 1_555
C17 C18 1_555 1_555
V1E O11E 1_555 1_555

#END
