
#######################################################################
#
#                 Cambridge Crystallographic Data Centre
#                                CCDC 
#
#######################################################################
#
# If this CIF has been generated from an entry in the Cambridge 
# Structural Database, then it will include bibliographic, chemical, 
# crystal, experimental, refinement or atomic coordinate data resulting 
# from the CCDC's data processing and validation procedures.
#
#######################################################################

data_JIZJOT
_symmetry_cell_setting           tetragonal
_symmetry_space_group_name_H-M   'P -4 c 2'
_symmetry_Int_Tables_number      116
_space_group_name_Hall           'P -4 -2c'
loop_
_symmetry_equiv_pos_site_id
_symmetry_equiv_pos_as_xyz
1 x,y,z
2 -x,-y,z
3 y,-x,-z
4 -y,x,-z
5 x,-y,1/2+z
6 -x,y,1/2+z
7 y,x,1/2-z
8 -y,-x,1/2-z
_cell_length_a                   17.5096(4)
_cell_length_b                   17.5096(4)
_cell_length_c                   15.1902(7)
_cell_angle_alpha                90
_cell_angle_beta                 90
_cell_angle_gamma                90
_cell_volume                     4657.1
loop_
_atom_site_label
_atom_site_type_symbol
_atom_site_fract_x
_atom_site_fract_y
_atom_site_fract_z
Co1 Co -0.10233(4) -0.86035(4) -0.03218(5)
Co2 Co -0.14943(4) -0.85057(4) -0.2500
C1 C 0.0496(3) -0.8722(4) -0.0961(4)
C2 C 0.0029(4) -0.8544(5) -0.1782(4)
H1 H 0.0169 -0.8907 -0.2263
C3 C 0.0254(5) -0.7701(6) -0.2062(6)
H2 H -0.0032 -0.7557 -0.2591
H3 H 0.0802 -0.7678 -0.2186
H4 H 0.0130 -0.7348 -0.1583
C4 C -0.2657(3) -0.8579(3) -0.1158(5)
C5 C -0.3477(4) -0.8677(4) -0.0884(5)
C6 C -0.3726(4) -0.8721(5) -0.0015(5)
H5 H -0.3363 -0.8697 0.0450
C7 C -0.4491(4) -0.8800(4) 0.0182(5)
H6 H -0.4648 -0.8826 0.0780
C8 C -0.5029(3) -0.8841(3) -0.0471(4)
C9 C -0.4805(4) -0.8793(4) -0.1329(4)
H7 H -0.5179 -0.8837 -0.1779
C10 C -0.4038(4) -0.8681(4) -0.1567(5)
H8 H -0.3896 -0.8610 -0.2165
C11 C -0.5857(3) -0.8911(3) -0.0258(4)
C12 C -0.6348(3) -0.9320(4) -0.0786(4)
H9 H -0.6161 -0.9576 -0.1293
C13 C -0.7124(3) -0.9356(3) -0.0570(4)
H10 H -0.7455 -0.9642 -0.0941
C14 C -0.6946(4) -0.8627(3) 0.0656(5)
H11 H -0.7142 -0.8390 0.1171
C15 C -0.6155(4) -0.8558(4) 0.0480(5)
H12 H -0.5834 -0.8274 0.0863
N1 N -0.7427(3) -0.9004(3) 0.0140(3)
O1 O 0.1205(2) -0.8808(3) -0.1021(3)
O2 O 0.0167(2) -0.8777(2) -0.0229(3)
O3 O -0.0749(2) -0.8614(3) -0.1590(3)
O4 O -0.2502(2) -0.8515(3) -0.1933(3)
O5 O -0.2187(3) -0.8596(3) -0.0508(3)
Co1B Co -0.86035(4) -0.89767(4) 0.03218(5)
C1B C -0.8722(4) -1.0496(3) 0.0961(4)
C2B C -0.8544(5) -1.0029(4) 0.1782(4)
H1B H -0.8907 -1.0169 0.2263
C3B C -0.7701(6) -1.0254(5) 0.2062(6)
H2B H -0.7557 -0.9968 0.2591
H3B H -0.7678 -1.0802 0.2186
H4B H -0.7348 -1.0130 0.1583
C4B C -0.8579(3) -0.7343(3) 0.1158(5)
C5B C -0.8677(4) -0.6523(4) 0.0884(5)
C6B C -0.8721(5) -0.6274(4) 0.0015(5)
H5B H -0.8697 -0.6637 -0.0450
C7B C -0.8800(4) -0.5509(4) -0.0182(5)
H6B H -0.8826 -0.5352 -0.0780
C8B C -0.8841(3) -0.4971(3) 0.0471(4)
C9B C -0.8793(4) -0.5195(4) 0.1329(4)
H7B H -0.8837 -0.4821 0.1779
C10B C -0.8681(4) -0.5962(4) 0.1567(5)
H8B H -0.8610 -0.6104 0.2165
C11B C -0.8911(3) -0.4143(3) 0.0258(4)
C12B C -0.9320(4) -0.3652(3) 0.0786(4)
H9B H -0.9576 -0.3839 0.1293
C13B C -0.9356(3) -0.2876(3) 0.0570(4)
H10B H -0.9642 -0.2545 0.0941
C14B C -0.8627(3) -0.3054(4) -0.0656(5)
H11B H -0.8390 -0.2858 -0.1171
C15B C -0.8558(4) -0.3845(4) -0.0480(5)
H12B H -0.8274 -0.4166 -0.0863
N1B N -0.9004(3) -0.2573(3) -0.0140(3)
O1B O -0.8808(3) -1.1205(2) 0.1021(3)
O2B O -0.8777(2) -1.0167(2) 0.0229(3)
O3B O -0.8614(3) -0.9251(2) 0.1590(3)
O4B O -0.8515(3) -0.7498(2) 0.1933(3)
O5B O -0.8596(3) -0.7813(3) 0.0508(3)
Co1A Co -0.89767(4) -1.13965(4) -0.03218(5)
Co1A_2 Co -0.89767(4) -0.13965(4) -0.03218(5)
Co1B_2 Co 0.13965(4) -0.89767(4) 0.03218(5)
Co2B Co -0.85057(4) -0.85057(4) 0.2500
N1C N -0.0996(3) -0.7427(3) -0.0140(3)
O1_2 O -0.8795(2) -0.8808(3) -0.1021(3)
O1C O -0.1192(3) -0.8795(2) 0.1021(3)
O2_2 O -0.9833(2) -0.8777(2) -0.0229(3)
O2C O -0.1223(2) -0.9833(2) 0.0229(3)
O3G O -0.1386(3) -0.9251(2) -0.3410(3)
O4G O -0.1485(3) -0.7498(2) -0.3067(3)
O6 O -0.7587(6) -0.7750(6) -0.3388(6)
H13 H -0.721(8) -0.818(8) -0.318(9)
C16 C -0.6382(6) -0.7005(7) -0.3664(8)
H14 H -0.6046 -0.7444 -0.3799
H15 H -0.6269 -0.6803 -0.3069
C17 C -0.6368(17) -0.6427(14) -0.4333(17)
H16 H -0.5897 -0.6128 -0.4279
H17 H -0.6810 -0.6090 -0.4262
H18 H -0.6386 -0.6668 -0.4914
C18 C -0.7159(15) -0.717(3) -0.379(3)
H19 H -0.7425 -0.6850 -0.4190
loop_
_geom_bond_atom_site_label_1
_geom_bond_atom_site_label_2
_geom_bond_site_symmetry_1
_geom_bond_site_symmetry_2
Co1 O2 1_555 1_555
Co2 O3 1_555 1_555
C1 C2 1_555 1_555
C2 H1 1_555 1_555
C3 C2 1_555 1_555
H2 C3 1_555 1_555
H3 C3 1_555 1_555
H4 C3 1_555 1_555
C4 C5 1_555 1_555
C5 C6 1_555 1_555
C6 H5 1_555 1_555
C7 C6 1_555 1_555
H6 C7 1_555 1_555
C8 C7 1_555 1_555
C9 C8 1_555 1_555
H7 C9 1_555 1_555
C10 C5 1_555 1_555
H8 C10 1_555 1_555
C11 C8 1_555 1_555
C12 C11 1_555 1_555
H9 C12 1_555 1_555
C13 C12 1_555 1_555
H10 C13 1_555 1_555
C14 H11 1_555 1_555
C15 C11 1_555 1_555
H12 C15 1_555 1_555
N1 C13 1_555 1_555
O1 C1 1_555 1_555
O2 C1 1_555 1_555
O3 Co1 1_555 1_555
O4 Co2 1_555 1_555
O5 Co1 1_555 1_555
O6 H13 1_555 1_555
C16 H14 1_555 1_555
H15 C16 1_555 1_555
C17 C16 1_555 1_555
H16 C17 1_555 1_555
H17 C17 1_555 1_555
H18 C17 1_555 1_555
C18 O6 1_555 1_555
H19 C18 1_555 1_555
Co1B N1 1_555 1_555
C1B C2B 1_555 1_555
C2B H1B 1_555 1_555
C3B C2B 1_555 1_555
H2B C3B 1_555 1_555
H3B C3B 1_555 1_555
H4B C3B 1_555 1_555
C4B C5B 1_555 1_555
C5B C6B 1_555 1_555
C6B H5B 1_555 1_555
C7B C6B 1_555 1_555
H6B C7B 1_555 1_555
C8B C7B 1_555 1_555
C9B C8B 1_555 1_555
H7B C9B 1_555 1_555
C10B C5B 1_555 1_555
H8B C10B 1_555 1_555
C11B C8B 1_555 1_555
C12B C11B 1_555 1_555
H9B C12B 1_555 1_555
C13B C12B 1_555 1_555
H10B C13B 1_555 1_555
C14B H11B 1_555 1_555
C15B C11B 1_555 1_555
H12B C15B 1_555 1_555
N1B C13B 1_555 1_555
O1B C1B 1_555 1_555
O2B Co1B 1_555 1_555
O3B Co1B 1_555 1_555
O4B C4B 1_555 1_555
O5B Co1B 1_555 1_555
Co1A O1B 1_555 1_555
Co1A_2 N1B 1_555 1_555
Co1B_2 O1 1_555 1_555
Co2B O3B 1_555 1_555
N1C Co1 1_555 1_555
O1_2 Co1B 1_555 1_555
O1C Co1 1_555 1_555
O2_2 Co1B 1_555 1_555
O2C Co1 1_555 1_555
O3G Co2 1_555 1_555
O4G Co2 1_555 1_555
C2 O3 1_555 1_555
C4 O4 1_555 1_555
C4 O5 1_555 1_555
C9 C10 1_555 1_555
C14 C15 1_555 1_555
C14 N1 1_555 1_555
O2 Co1B_2 1_555 1_555
C16 C18 1_555 1_555
C1B O2B 1_555 1_555
C2B O3B 1_555 1_555
C4B O5B 1_555 1_555
C9B C10B 1_555 1_555
C14B C15B 1_555 1_555
C14B N1B 1_555 1_555
O2B Co1A 1_555 1_555
O4B Co2B 1_555 1_555

#END
