
#######################################################################
#
#                 Cambridge Crystallographic Data Centre
#                                CCDC 
#
#######################################################################
#
# If this CIF has been generated from an entry in the Cambridge 
# Structural Database, then it will include bibliographic, chemical, 
# crystal, experimental, refinement or atomic coordinate data resulting 
# from the CCDC's data processing and validation procedures.
#
#######################################################################

data_JIZWOG
_symmetry_cell_setting           monoclinic
_symmetry_space_group_name_H-M   'P 21'
_symmetry_Int_Tables_number      4
_space_group_name_Hall           'P 2yb'
loop_
_symmetry_equiv_pos_site_id
_symmetry_equiv_pos_as_xyz
1 x,y,z
2 -x,1/2+y,-z
_cell_length_a                   13.2246(16)
_cell_length_b                   17.8923(18)
_cell_length_c                   11.08364(92)
_cell_angle_alpha                90
_cell_angle_beta                 89.801(18)
_cell_angle_gamma                90
_cell_volume                     2622.58
loop_
_atom_site_label
_atom_site_type_symbol
_atom_site_fract_x
_atom_site_fract_y
_atom_site_fract_z
Al1 Al 0.1162(26) 0.2372(32) 0.2416(42)
O1 O -0.0573(49) 0.6835(35) 0.6188(63)
O2 O 0.1639(42) 1.1618(34) 1.1365(74)
O3 O 0.1000(43) 0.3331(44) 0.3262(91)
O4 O 0.3273(37) 0.7946(40) 0.8876(46)
Al2 Al 0.1310(27) 0.7338(26) 0.7544(36)
O5 O 0.0067(32) 0.722(15) 0.8334(53)
O6 O 0.2559(30) 0.7390(61) 0.6812(47)
O7 O 0.1640(45) 0.8108(40) 0.8666(46)
O8 O -0.0559(43) 0.2963(39) 0.3505(61)
O9 O 0.0960(40) 0.6609(35) 0.6277(53)
O10 O 0.3304(43) 1.1619(31) 1.1432(54)
C1 C 0.151904 0.932286 1.024208
C2 C 0.164014 0.998733 1.108998
C3 C 0.344204 1.014903 1.048148
C4 C 0.332957 0.948653 0.963076
C5 C 0.253832 0.892765 1.007309
C6 C 0.241669 1.05369 1.060779
C7 C 0.245748 0.827617 0.921986
C8 C 0.246776 1.124583 1.133195
C9 C -0.075843 0.515031 0.541130
C10 C -0.083120 0.451075 0.451211
C11 C 0.100635 0.466841 0.405208
C12 C 0.108228 0.531965 0.493496
C13 C 0.005527 0.571675 0.506058
C14 C 0.019316 0.411350 0.443693
C15 C 0.010408 0.634395 0.596623
C16 C 0.015675 0.342849 0.364940
O11 O 0.1760(44) 0.2772(34) 0.0970(72)
Al3 Al 0.3746(27) -0.2727(27) 0.7609(35)
O12 O 0.5606(26) 0.1630(21) 0.3584(39)
O13 O 0.3295(48) 0.6486(35) -0.1403(70)
O14 O 0.4061(54) -0.2021(32) 0.6470(49)
O15 O 0.1572(42) 0.6474(30) -0.1384(73)
Al4 Al 0.3722(26) 0.2340(25) 0.2649(38)
O16 O 0.4931(28) 0.2325(89) 0.1894(52)
O17 O 0.2418(32) 0.2547(78) 0.3115(48)
O18 O 0.3307(32) 0.3052(34) 0.1409(51)
O19 O 0.5684(34) -0.1825(37) 0.6395(71)
O20 O 0.3935(32) 0.1620(34) 0.3809(42)
C17 C 0.336334 0.429832 0.007548
C18 C 0.324641 0.493637 -0.082451
C19 C 0.144734 0.512552 -0.022487
C20 C 0.155566 0.448956 0.067781
C21 C 0.234085 0.391385 0.027885
C22 C 0.247592 0.550396 -0.038505
C23 C 0.241766 0.328912 0.118323
C24 C 0.242970 0.618989 -0.116522
C25 C 0.569053 0.018409 0.464344
C26 C 0.575806 -0.045252 0.554865
C27 C 0.390423 -0.032624 0.593357
C28 C 0.383270 0.032203 0.504447
C29 C 0.484965 0.073675 0.495812
C30 C 0.47452 -0.086743 0.558470
C31 C 0.480662 0.136142 0.404750
C32 C 0.478104 -0.155030 0.637707
Al1A Al -0.1162(26) 0.7372(32) 0.7584(42)
Al1_2 Al 0.1162(26) 1.2372(32) 1.2416(42)
O1A O 0.0573(49) 0.1835(35) 0.3812(63)
O2_2 O 0.1639(42) 0.1618(34) 0.1365(74)
O4_2 O 0.3273(37) -0.2054(40) 0.8876(46)
Al2A Al -0.1310(27) 0.2338(26) 0.2456(36)
Al2_2 Al 0.1310(27) 0.7338(26) -0.2456(36)
O5A O -0.0067(32) 0.222(15) 0.1666(53)
O6_2 O 0.2559(30) -0.2610(61) 0.6812(47)
O8A O 0.0559(43) 0.7963(39) 0.6495(61)
O10_2 O 0.3304(43) 0.1619(31) 0.1432(54)
Al3A Al 0.6254(27) 0.2273(27) 0.2391(35)
Al3_2 Al 0.3746(27) 0.7273(27) -0.2391(35)
Al3_3 Al 0.3746(27) 0.7273(27) 0.7609(35)
O12A O 0.4394(26) -0.3370(21) 0.6416(39)
O13_2 O 0.3295(48) -0.3514(35) 0.8597(70)
O15_2 O 0.1572(42) 0.6474(30) 0.8616(73)
Al4A Al 0.6278(26) -0.2660(25) 0.7351(38)
Al4_2 Al 0.3722(26) 1.2340(25) 1.2649(38)
O16A O 0.5069(28) -0.2675(89) 0.8106(52)
O19A O 0.4316(34) 0.3175(37) 0.3605(71)
C33 C 0.37914 0.815527 0.323153
C34 C 0.480735 0.795475 0.307563
C35 C 0.506173 0.722882 0.276307
C36 C 0.430202 0.669923 0.262374
C37 C 0.328416 0.690169 0.277404
C38 C 0.302826 0.763263 0.306285
C39 C 0.197344 0.782104 0.339020
C40 C 0.611496 0.702904 0.246556
C41 C 0.939840 0.812359 0.271339
C42 C 1.017542 0.776849 0.207089
C43 C 1.005005 0.704269 0.166252
C44 C 0.915381 0.666642 0.191137
C45 C 0.837395 0.702409 0.254972
C46 C 0.849168 0.775651 0.293721
C47 C 0.768872 0.813262 0.365604
C48 C 1.088496 0.665918 0.102078
loop_
_geom_bond_atom_site_label_1
_geom_bond_atom_site_label_2
_geom_bond_site_symmetry_1
_geom_bond_site_symmetry_2
Al1 O3 1_555 1_555
O1 C15 1_555 1_555
O2 C8 1_555 1_555
O3 C16 1_555 1_555
O4 C7 1_555 1_555
Al2 O5 1_555 1_555
O5 Al1A 1_555 1_555
O6 Al2 1_555 1_555
O7 Al2 1_555 1_555
O8 C16 1_555 1_555
O9 Al2 1_555 1_555
O10 C8 1_555 1_555
C1 C2 1_555 1_555
C2 C6 1_555 1_555
C3 C4 1_555 1_555
C4 C5 1_555 1_555
C5 C1 1_555 1_555
C6 C3 1_555 1_555
C7 O7 1_555 1_555
C8 C6 1_555 1_555
C9 C10 1_555 1_555
C10 C14 1_555 1_555
C11 C12 1_555 1_555
C12 C13 1_555 1_555
C13 C9 1_555 1_555
C14 C11 1_555 1_555
C15 O9 1_555 1_555
C16 C14 1_555 1_555
O11 Al1 1_555 1_555
Al3 O14 1_555 1_555
O12 C31 1_555 1_555
O13 C24 1_555 1_555
O14 C32 1_555 1_555
O15 C24 1_555 1_555
Al4 O16 1_555 1_555
O16 Al3A 1_555 1_555
O17 Al1 1_555 1_555
O18 Al4 1_555 1_555
O19 C32 1_555 1_555
O20 Al4 1_555 1_555
C17 C18 1_555 1_555
C18 C22 1_555 1_555
C19 C20 1_555 1_555
C20 C21 1_555 1_555
C21 C17 1_555 1_555
C22 C19 1_555 1_555
C23 O11 1_555 1_555
C24 C22 1_555 1_555
C25 C26 1_555 1_555
C26 C30 1_555 1_555
C27 C28 1_555 1_555
C28 C29 1_555 1_555
C29 C25 1_555 1_555
C30 C27 1_555 1_555
C31 O20 1_555 1_555
C32 C30 1_555 1_555
C33 C34 1_555 1_555
C34 C35 1_555 1_555
C35 C36 1_555 1_555
C36 C37 1_555 1_555
C37 C38 1_555 1_555
C38 C33 1_555 1_555
C39 C38 1_555 1_555
C40 C35 1_555 1_555
C41 C42 1_555 1_555
C42 C43 1_555 1_555
C43 C44 1_555 1_555
C44 C45 1_555 1_555
C45 C46 1_555 1_555
C46 C41 1_555 1_555
C47 C46 1_555 1_555
C48 C43 1_555 1_555
Al1A O1 1_555 1_555
Al1_2 O2 1_555 1_555
O1A Al1 1_555 1_555
O2_2 Al1 1_555 1_555
O4_2 Al3 1_555 1_555
Al2A O8 1_555 1_555
Al2_2 O15 1_555 1_555
O5A Al1 1_555 1_555
O6_2 Al3 1_555 1_555
O8A Al2 1_555 1_555
O10_2 Al4 1_555 1_555
Al3A O12 1_555 1_555
Al3_2 O13 1_555 1_555
Al3_3 O4 1_555 1_555
O12A Al3 1_555 1_555
O13_2 Al3 1_555 1_555
O15_2 Al2 1_555 1_555
Al4A O19 1_555 1_555
Al4_2 O10 1_555 1_555
O16A Al3 1_555 1_555
O19A Al4 1_555 1_555
O6 Al3_3 1_555 1_555
C5 C7 1_555 1_555
C13 C15 1_555 1_555
Al4 O17 1_555 1_555
O18 C23 1_555 1_555
C21 C23 1_555 1_555
C29 C31 1_555 1_555
Al2A O5A 1_555 1_555
Al4A O16A 1_555 1_555

#END
