
#######################################################################
#
#                 Cambridge Crystallographic Data Centre
#                                CCDC 
#
#######################################################################
#
# If this CIF has been generated from an entry in the Cambridge 
# Structural Database, then it will include bibliographic, chemical, 
# crystal, experimental, refinement or atomic coordinate data resulting 
# from the CCDC's data processing and validation procedures.
#
#######################################################################

data_JIZWAS
_symmetry_cell_setting           triclinic
_symmetry_space_group_name_H-M   'P -1'
_symmetry_Int_Tables_number      2
_space_group_name_Hall           '-P 1'
loop_
_symmetry_equiv_pos_site_id
_symmetry_equiv_pos_as_xyz
1 x,y,z
2 -x,-y,-z
_cell_length_a                   6.6237(3)
_cell_length_b                   9.4227(3)
_cell_length_c                   9.7034(5)
_cell_angle_alpha                108.362(2)
_cell_angle_beta                 93.685(3)
_cell_angle_gamma                107.395(5)
_cell_volume                     540.038
loop_
_atom_site_label
_atom_site_type_symbol
_atom_site_fract_x
_atom_site_fract_y
_atom_site_fract_z
Al1 Al 0.00000 0.00000 1.00000
Al2 Al 0.50000 0.00000 1.00000
O1 O 0.2336(39) 0.0013(35) 0.9107(26)
O2 O 0.5019(44) 0.1815(29) 1.1646(28)
O3 O 0.1798(39) 0.1645(30) 1.1768(29)
O4 O 0.9684(40) 0.1558(31) 0.9219(28)
O5 O 0.6473(37) 0.1481(29) 0.9214(28)
C1 C 0.3709(80) 0.2250(45) 1.2441(37)
C2 C 0.4611(31) 0.3957(34) 1.3493(25)
C3 C 0.6369(38) 0.3956(14) 1.4580(2)
C4 C 0.2805(33) 0.4373(14) 1.4239(19)
C5 C 0.8261(60) 0.2287(19) 0.8970(24)
C6 C 0.9029(23) 0.3895(17) 0.8749(26)
C7 C 0.7634(28) 0.4838(26) 0.9546(18)
C8 C 1.1419(27) 0.4565(3) 0.8848(17)
O2A O 0.4981(44) 0.8185(29) 1.8354(28)
O3A O 0.8202(39) 0.8355(30) 1.8232(29)
C1A C 0.6291(80) 0.7750(45) 1.7559(37)
C2A C 0.5389(31) 0.6043(34) 1.6507(25)
C3A C 0.3631(38) 0.6044(14) 1.5420(2)
C4A C 0.7195(33) 0.5627(14) 1.5761(19)
O5A O 1.3527(37) 0.8519(29) 1.0786(28)
C5A C 1.1739(60) 0.7713(19) 1.1030(24)
C6A C 1.0971(23) 0.6105(17) 1.1251(26)
C7A C 1.2366(28) 0.5162(26) 1.0454(18)
C8A C 0.8581(27) 0.5435(3) 1.1152(17)
O4A O 1.0316(40) 0.8442(31) 1.0781(28)
O1A O -0.2336(39) -0.0013(35) 1.0893(26)
Al1_2 Al 1.00000 0.00000 1.00000
Al1_3 Al 1.00000 1.00000 1.00000
Al1_4 Al 1.00000 1.00000 2.00000
Al2_2 Al -0.50000 0.00000 1.00000
Al2_3 Al 0.50000 1.00000 2.00000
Al2_4 Al 1.50000 1.00000 1.00000
O1A_2 O 0.7664(39) -0.0013(35) 1.0893(26)
O2A_2 O 0.4981(44) -0.1815(29) 0.8354(28)
O3A_2 O -0.1798(39) -0.1645(30) 0.8232(29)
O4_2 O -0.0316(40) 0.1558(31) 0.9219(28)
O4A_2 O 0.0316(40) -0.1558(31) 1.0781(28)
O5A_2 O 0.3527(37) -0.1481(29) 1.0786(28)
loop_
_geom_bond_atom_site_label_1
_geom_bond_atom_site_label_2
_geom_bond_site_symmetry_1
_geom_bond_site_symmetry_2
Al1 O1 1_555 1_555
Al2 O1 1_555 1_555
O2 Al2 1_555 1_555
O3 Al1 1_555 1_555
O4 C5 1_555 1_555
O5 Al2 1_555 1_555
C1 O2 1_555 1_555
C2 C1 1_555 1_555
C3 C2 1_555 1_555
C4 C2 1_555 1_555
C5 O5 1_555 1_555
C6 C5 1_555 1_555
C7 C6 1_555 1_555
C8 C6 1_555 1_555
O2A C1A 1_555 1_555
O3A C1A 1_555 1_555
C1A C2A 1_555 1_555
C2A C3A 1_555 1_555
C3A C4 1_555 1_555
C4A C3 1_555 1_555
O5A C5A 1_555 1_555
C5A C6A 1_555 1_555
C6A C7A 1_555 1_555
C7A C8 1_555 1_555
C8A C7 1_555 1_555
O4A C5A 1_555 1_555
O1A Al1 1_555 1_555
Al1_2 O4 1_555 1_555
Al1_3 O4A 1_555 1_555
Al1_4 O3A 1_555 1_555
Al2_2 O1A 1_555 1_555
Al2_3 O2A 1_555 1_555
Al2_4 O5A 1_555 1_555
O1A_2 Al2 1_555 1_555
O2A_2 Al2 1_555 1_555
O3A_2 Al1 1_555 1_555
O4_2 Al1 1_555 1_555
O4A_2 Al1 1_555 1_555
O5A_2 Al2 1_555 1_555
O3 C1 1_555 1_555
C2A C4A 1_555 1_555
C6A C8A 1_555 1_555
Al1_2 O1A_2 1_555 1_555

#END
