
#######################################################################
#
#                 Cambridge Crystallographic Data Centre
#                                CCDC 
#
#######################################################################
#
# If this CIF has been generated from an entry in the Cambridge 
# Structural Database, then it will include bibliographic, chemical, 
# crystal, experimental, refinement or atomic coordinate data resulting 
# from the CCDC's data processing and validation procedures.
#
#######################################################################

data_JOGBIR
_symmetry_cell_setting           trigonal
_symmetry_space_group_name_H-M   'P 3'
_symmetry_Int_Tables_number      143
_space_group_name_Hall           'P 3'
loop_
_symmetry_equiv_pos_site_id
_symmetry_equiv_pos_as_xyz
1 x,y,z
2 -y,x-y,z
3 -x+y,-x,z
_cell_length_a                   15.2582(18)
_cell_length_b                   15.2582(18)
_cell_length_c                   6.6579(9)
_cell_angle_alpha                90
_cell_angle_beta                 90
_cell_angle_gamma                120
_cell_volume                     1342.38
loop_
_atom_site_label
_atom_site_type_symbol
_atom_site_fract_x
_atom_site_fract_y
_atom_site_fract_z
Br1 Br 0.0000 0.0000 -0.2216(2)
Br2 Br 0.17179(10) 0.10906(8) -0.71304(15)
Br3 Br 0.3333 -0.3333 -0.4898(2)
Br4 Br 0.37473(8) -0.16420(8) 0.01127(15)
C1 C 0.1502(7) -0.1354(7) -0.1789(13)
H1 H 0.1119 -0.1134 -0.0979
H2 H 0.2031 -0.1338 -0.0956
C2 C 0.0802(7) -0.2435(7) -0.2531(16)
H3 H 0.0268 -0.2434 -0.3350
C3 C 0.1780(7) -0.2064(9) -0.5475(17)
H4 H 0.1259 -0.1996 -0.6170
H5 H 0.2106 -0.2291 -0.6427
C4 C 0.2539(8) -0.1077(6) -0.4539(18)
H6 H 0.2968 -0.1178 -0.3604
H7 H 0.2964 -0.0602 -0.5565
C5 C 0.0281(7) -0.3170(6) -0.0670(14)
H8 H -0.0259 -0.3807 -0.1141
H9 H 0.0014 -0.2871 0.0233
H10 H 0.0774 -0.3275 0.0019
C6 C 0.2608(10) 0.0351(8) -0.2526(19)
H11 H 0.2198 0.0670 -0.2405
H12 H 0.2765 0.0239 -0.1171
C7 C 0.3543(9) 0.1071(8) -0.3448(14)
H13 H 0.3897 0.0891 -0.4335
C8 C 0.3848(9) 0.1998(9) -0.2929(18)
H14 H 0.3466 0.2140 -0.2036
H15 H 0.4448 0.2521 -0.3449
C9 C 0.0668(7) -0.3921(6) -0.4440(13)
H16 H 0.1036 -0.4095 -0.5398
H17 H 0.0496 -0.4368 -0.3291
C10 C -0.0302(7) -0.4042(7) -0.5415(13)
H18 H -0.0307 -0.3466 -0.5859
C11 C -0.1151(7) -0.4959(6) -0.5651(13)
H19 H -0.1160 -0.5543 -0.5216
H20 H -0.1723 -0.5003 -0.6247
Cu1 Cu 0.08418(11) -0.05151(10) -0.5116(2)
Cu2 Cu 0.0000 0.0000 -0.8571(3)
Cu3 Cu 0.24242(10) -0.28821(9) -0.21649(19)
Cu4 Cu 0.3333 -0.3333 0.1269(3)
N1 N 0.1947(7) -0.0682(6) -0.3465(12)
N2 N 0.1335(6) -0.2797(6) -0.3761(11)
Br1_2 Br 0.0000 0.0000 -1.2216(2)
Br2B Br -0.06273(13) -0.17179(10) -0.71304(15)
Br2A Br -0.10906(8) 0.06273(13) -0.71304(15)
Br3_2 Br 0.3333 -0.3333 0.5102(2)
Br4A Br 0.16420(8) -0.46107(11) 0.01127(15)
Br4B Br 0.46107(11) -0.37473(8) 0.01127(15)
C1B C -0.2856(10) -0.1502(7) -0.1789(13)
C1A C 0.1354(7) 0.2856(10) -0.1789(13)
H1B H -0.2253 -0.1119 -0.0979
H1A H 0.1134 0.2253 -0.0979
H2B H -0.3369 -0.2031 -0.0956
H2A H 0.1338 0.3369 -0.0956
C2B C -0.3237(10) -0.0802(7) -0.2531(16)
C2A C 0.2435(7) 0.3237(10) -0.2531(16)
H3B H -0.2702 -0.0268 -0.3350
H3A H 0.2434 0.2702 -0.3350
C3B C -0.3844(11) -0.1780(7) -0.5475(17)
C3A C 0.2064(9) 0.3844(11) -0.5475(17)
H4B H -0.3255 -0.1259 -0.6170
H4A H 0.1996 0.3255 -0.6170
H5B H -0.4397 -0.2106 -0.6427
H5A H 0.2291 0.4397 -0.6427
C4B C -0.3616(10) -0.2539(8) -0.4539(18)
C4A C 0.1077(6) 0.3616(10) -0.4539(18)
H6B H -0.4146 -0.2968 -0.3604
H6A H 0.1178 0.4146 -0.3604
H7B H -0.3566 -0.2964 -0.5565
H7A H 0.0602 0.3566 -0.5565
C5B C -0.3451(9) -0.0281(7) -0.0670(14)
C5A C 0.3170(6) 0.3451(9) -0.0670(14)
H8B H -0.3548 0.0259 -0.1141
H8A H 0.3807 0.3548 -0.1141
H9B H -0.2885 -0.0014 0.0233
H9A H 0.2871 0.2885 0.0233
H10B H -0.4049 -0.0774 0.0019
H10A H 0.3275 0.4049 0.0019
C6B C -0.2257(13) -0.2608(10) -0.2526(19)
C6A C -0.0351(8) 0.2257(13) -0.2526(19)
H11B H -0.1528 -0.2198 -0.2405
H11A H -0.0670 0.1528 -0.2405
H12B H -0.2526 -0.2765 -0.1171
H12A H -0.0239 0.2526 -0.1171
C7B C -0.2472(12) -0.3543(9) -0.3448(14)
C7A C -0.1071(8) 0.2472(12) -0.3448(14)
H13B H -0.3006 -0.3897 -0.4335
H13A H -0.0891 0.3006 -0.4335
C8B C -0.1850(13) -0.3848(9) -0.2929(18)
C8A C -0.1998(9) 0.1850(13) -0.2929(18)
H14B H -0.1326 -0.3466 -0.2036
H14A H -0.2140 0.1326 -0.2036
H15B H -0.1927 -0.4448 -0.3449
H15A H -0.2521 0.1927 -0.3449
C9B C -0.4589(9) -0.0668(7) -0.4440(13)
C9A C 0.3921(6) 0.4589(9) -0.4440(13)
H16B H -0.5131 -0.1036 -0.5398
H16A H 0.4095 0.5131 -0.5398
H17B H -0.4864 -0.0496 -0.3291
H17A H 0.4368 0.4864 -0.3291
C10B C -0.3740(10) 0.0302(7) -0.5415(13)
C10A C 0.4042(7) 0.3740(10) -0.5415(13)
H18B H -0.3159 0.0307 -0.5859
H18A H 0.3466 0.3159 -0.5859
C11B C -0.3808(9) 0.1151(7) -0.5651(13)
C11A C 0.4959(6) 0.3808(9) -0.5651(13)
H19B H -0.4383 0.1160 -0.5216
H19A H 0.5543 0.4383 -0.5216
H20B H -0.3280 0.1723 -0.6247
H20A H 0.5003 0.3280 -0.6247
Cu1B Cu -0.13569(15) -0.08418(11) -0.5116(2)
Cu1A Cu 0.05151(10) 0.13569(15) -0.5116(2)
Cu2_2 Cu 0.0000 0.0000 0.1429(3)
Cu3B Cu -0.53063(13) -0.24242(10) -0.21649(19)
Cu3A Cu 0.28821(9) 0.53063(13) -0.21649(19)
Cu3A_2 Cu 0.28821(9) -0.46937(13) -0.21649(19)
Cu3B_2 Cu 0.46937(13) -0.24242(10) -0.21649(19)
Cu4_2 Cu 0.3333 -0.3333 -0.8731(3)
N1B N -0.2629(9) -0.1947(7) -0.3465(12)
N1A N 0.0682(6) 0.2629(9) -0.3465(12)
N2B N -0.4132(8) -0.1335(6) -0.3761(11)
N2A N 0.2797(6) 0.4132(8) -0.3761(11)
N2B_2 N 0.5868(8) -0.1335(6) -0.3761(11)
N2A_2 N 0.2797(6) -0.5868(8) -0.3761(11)
O1 O 0.6078(12) -0.7533(11) -0.225(2)
H22 H 0.5752 -0.8041 -0.1486
O2 O 0.4964(10) -0.7769(11) -0.863(2)
H23 H 0.5114 -0.8147 -0.9311
H24 H 0.4326 -0.8018 -0.8626
H21? H 0.6688 -0.7192 -0.1855
loop_
_geom_bond_atom_site_label_1
_geom_bond_atom_site_label_2
_geom_bond_site_symmetry_1
_geom_bond_site_symmetry_2
Br1 Cu1 1_555 1_555
Br2 Cu1 1_555 1_555
Br3 Cu3 1_555 1_555
Br4 Cu3 1_555 1_555
C1 H1 1_555 1_555
H2 C1 1_555 1_555
C2 C1 1_555 1_555
H3 C2 1_555 1_555
C3 H4 1_555 1_555
H5 C3 1_555 1_555
C4 C3 1_555 1_555
H6 C4 1_555 1_555
H7 C4 1_555 1_555
C5 C2 1_555 1_555
H8 C5 1_555 1_555
H9 C5 1_555 1_555
H10 C5 1_555 1_555
C6 H11 1_555 1_555
H12 C6 1_555 1_555
C7 C6 1_555 1_555
H13 C7 1_555 1_555
C8 C7 1_555 1_555
H14 C8 1_555 1_555
H15 C8 1_555 1_555
C9 H16 1_555 1_555
H17 C9 1_555 1_555
C10 C9 1_555 1_555
H18 C10 1_555 1_555
C11 C10 1_555 1_555
H19 C11 1_555 1_555
H20 C11 1_555 1_555
Cu1 N1 1_555 1_555
Cu2 Br2 1_555 1_555
Cu3 N2 1_555 1_555
Cu4 Br4 1_555 1_555
N1 C1 1_555 1_555
N2 C2 1_555 1_555
O1 H22 1_555 1_555
O2 H23 1_555 1_555
H24 O2 1_555 1_555
Br1_2 Cu2 1_555 1_555
Br2B Cu1 1_555 1_555
Br2A Cu2 1_555 1_555
Br3_2 Cu4 1_555 1_555
Br4A Cu3 1_555 1_555
Br4B Cu4 1_555 1_555
C1B H1B 1_555 1_555
C1A H1A 1_555 1_555
H2B C1B 1_555 1_555
H2A C1A 1_555 1_555
C2B C1B 1_555 1_555
C2A C1A 1_555 1_555
H3B C2B 1_555 1_555
H3A C2A 1_555 1_555
C3B H4B 1_555 1_555
C3A H4A 1_555 1_555
H5B C3B 1_555 1_555
H5A C3A 1_555 1_555
C4B C3B 1_555 1_555
C4A C3A 1_555 1_555
H6B C4B 1_555 1_555
H6A C4A 1_555 1_555
H7B C4B 1_555 1_555
H7A C4A 1_555 1_555
C5B C2B 1_555 1_555
C5A C2A 1_555 1_555
H8B C5B 1_555 1_555
H8A C5A 1_555 1_555
H9B C5B 1_555 1_555
H9A C5A 1_555 1_555
H10B C5B 1_555 1_555
H10A C5A 1_555 1_555
C6B H11B 1_555 1_555
C6A H11A 1_555 1_555
H12B C6B 1_555 1_555
H12A C6A 1_555 1_555
C7B C6B 1_555 1_555
C7A C6A 1_555 1_555
H13B C7B 1_555 1_555
H13A C7A 1_555 1_555
C8B C7B 1_555 1_555
C8A C7A 1_555 1_555
H14B C8B 1_555 1_555
H14A C8A 1_555 1_555
H15B C8B 1_555 1_555
H15A C8A 1_555 1_555
C9B H16B 1_555 1_555
C9A H16A 1_555 1_555
H17B C9B 1_555 1_555
H17A C9A 1_555 1_555
C10B C9B 1_555 1_555
C10A C9A 1_555 1_555
H18B C10B 1_555 1_555
H18A C10A 1_555 1_555
C11B C10B 1_555 1_555
C11A C10A 1_555 1_555
H19B C11B 1_555 1_555
H19A C11A 1_555 1_555
H20B C11B 1_555 1_555
H20A C11A 1_555 1_555
Cu1B Br1 1_555 1_555
Cu1A Br1 1_555 1_555
Cu2_2 Br1 1_555 1_555
Cu3B N2B 1_555 1_555
Cu3A N2A 1_555 1_555
Cu3A_2 Br3 1_555 1_555
Cu3B_2 Br3 1_555 1_555
Cu4_2 Br3 1_555 1_555
N1B C1B 1_555 1_555
N1A C1A 1_555 1_555
N2B C2B 1_555 1_555
N2A C2A 1_555 1_555
N2B_2 Cu3B_2 1_555 1_555
N2A_2 Cu3A_2 1_555 1_555
Br2 Cu1A 1_555 1_555
Br4 Cu3B_2 1_555 1_555
C3 N2 1_555 1_555
C4 N1 1_555 1_555
C6 N1 1_555 1_555
C9 N2 1_555 1_555
Cu2 Br2B 1_555 1_555
Cu4 Br4A 1_555 1_555
Br2B Cu1B 1_555 1_555
Br2A Cu1B 1_555 1_555
Br2A Cu1A 1_555 1_555
Br4A Cu3A_2 1_555 1_555
Br4B Cu3A_2 1_555 1_555
Br4B Cu3B_2 1_555 1_555
C3B N2B 1_555 1_555
C3A N2A 1_555 1_555
C4B N1B 1_555 1_555
C4A N1A 1_555 1_555
C6B N1B 1_555 1_555
C6A N1A 1_555 1_555
C9B N2B 1_555 1_555
C9A N2A 1_555 1_555
Cu1B N1B 1_555 1_555
Cu1A N1A 1_555 1_555

#END
