
#######################################################################
#
#                 Cambridge Crystallographic Data Centre
#                                CCDC 
#
#######################################################################
#
# If this CIF has been generated from an entry in the Cambridge 
# Structural Database, then it will include bibliographic, chemical, 
# crystal, experimental, refinement or atomic coordinate data resulting 
# from the CCDC's data processing and validation procedures.
#
#######################################################################

data_JOJLAX
_symmetry_cell_setting           cubic
_symmetry_space_group_name_H-M   'F m -3 m'
_symmetry_Int_Tables_number      225
_space_group_name_Hall           '-F 4 2 3'
loop_
_symmetry_equiv_pos_site_id
_symmetry_equiv_pos_as_xyz
1 x,y,z
2 -x,-y,z
3 -x,y,-z
4 x,-y,-z
5 z,x,y
6 z,-x,-y
7 -z,-x,y
8 -z,x,-y
9 y,z,x
10 -y,z,-x
11 y,-z,-x
12 -y,-z,x
13 y,x,-z
14 -y,-x,-z
15 y,-x,z
16 -y,x,z
17 x,z,-y
18 -x,z,y
19 -x,-z,-y
20 x,-z,y
21 z,y,-x
22 z,-y,x
23 -z,y,x
24 -z,-y,-x
25 x,1/2+y,1/2+z
26 -x,1/2-y,1/2+z
27 -x,1/2+y,1/2-z
28 x,1/2-y,1/2-z
29 z,1/2+x,1/2+y
30 z,1/2-x,1/2-y
31 -z,1/2-x,1/2+y
32 -z,1/2+x,1/2-y
33 y,1/2+z,1/2+x
34 -y,1/2+z,1/2-x
35 y,1/2-z,1/2-x
36 -y,1/2-z,1/2+x
37 y,1/2+x,1/2-z
38 -y,1/2-x,1/2-z
39 y,1/2-x,1/2+z
40 -y,1/2+x,1/2+z
41 x,1/2+z,1/2-y
42 -x,1/2+z,1/2+y
43 -x,1/2-z,1/2-y
44 x,1/2-z,1/2+y
45 z,1/2+y,1/2-x
46 z,1/2-y,1/2+x
47 -z,1/2+y,1/2+x
48 -z,1/2-y,1/2-x
49 1/2+x,y,1/2+z
50 1/2-x,-y,1/2+z
51 1/2-x,y,1/2-z
52 1/2+x,-y,1/2-z
53 1/2+z,x,1/2+y
54 1/2+z,-x,1/2-y
55 1/2-z,-x,1/2+y
56 1/2-z,x,1/2-y
57 1/2+y,z,1/2+x
58 1/2-y,z,1/2-x
59 1/2+y,-z,1/2-x
60 1/2-y,-z,1/2+x
61 1/2+y,x,1/2-z
62 1/2-y,-x,1/2-z
63 1/2+y,-x,1/2+z
64 1/2-y,x,1/2+z
65 1/2+x,z,1/2-y
66 1/2-x,z,1/2+y
67 1/2-x,-z,1/2-y
68 1/2+x,-z,1/2+y
69 1/2+z,y,1/2-x
70 1/2+z,-y,1/2+x
71 1/2-z,y,1/2+x
72 1/2-z,-y,1/2-x
73 1/2+x,1/2+y,z
74 1/2-x,1/2-y,z
75 1/2-x,1/2+y,-z
76 1/2+x,1/2-y,-z
77 1/2+z,1/2+x,y
78 1/2+z,1/2-x,-y
79 1/2-z,1/2-x,y
80 1/2-z,1/2+x,-y
81 1/2+y,1/2+z,x
82 1/2-y,1/2+z,-x
83 1/2+y,1/2-z,-x
84 1/2-y,1/2-z,x
85 1/2+y,1/2+x,-z
86 1/2-y,1/2-x,-z
87 1/2+y,1/2-x,z
88 1/2-y,1/2+x,z
89 1/2+x,1/2+z,-y
90 1/2-x,1/2+z,y
91 1/2-x,1/2-z,-y
92 1/2+x,1/2-z,y
93 1/2+z,1/2+y,-x
94 1/2+z,1/2-y,x
95 1/2-z,1/2+y,x
96 1/2-z,1/2-y,-x
97 -x,-y,-z
98 x,y,-z
99 x,-y,z
100 -x,y,z
101 -z,-x,-y
102 -z,x,y
103 z,x,-y
104 z,-x,y
105 -y,-z,-x
106 y,-z,x
107 -y,z,x
108 y,z,-x
109 -y,-x,z
110 y,x,z
111 -y,x,-z
112 y,-x,-z
113 -x,-z,y
114 x,-z,-y
115 x,z,y
116 -x,z,-y
117 -z,-y,x
118 -z,y,-x
119 z,-y,-x
120 z,y,x
121 -x,1/2-y,1/2-z
122 x,1/2+y,1/2-z
123 x,1/2-y,1/2+z
124 -x,1/2+y,1/2+z
125 -z,1/2-x,1/2-y
126 -z,1/2+x,1/2+y
127 z,1/2+x,1/2-y
128 z,1/2-x,1/2+y
129 -y,1/2-z,1/2-x
130 y,1/2-z,1/2+x
131 -y,1/2+z,1/2+x
132 y,1/2+z,1/2-x
133 -y,1/2-x,1/2+z
134 y,1/2+x,1/2+z
135 -y,1/2+x,1/2-z
136 y,1/2-x,1/2-z
137 -x,1/2-z,1/2+y
138 x,1/2-z,1/2-y
139 x,1/2+z,1/2+y
140 -x,1/2+z,1/2-y
141 -z,1/2-y,1/2+x
142 -z,1/2+y,1/2-x
143 z,1/2-y,1/2-x
144 z,1/2+y,1/2+x
145 1/2-x,-y,1/2-z
146 1/2+x,y,1/2-z
147 1/2+x,-y,1/2+z
148 1/2-x,y,1/2+z
149 1/2-z,-x,1/2-y
150 1/2-z,x,1/2+y
151 1/2+z,x,1/2-y
152 1/2+z,-x,1/2+y
153 1/2-y,-z,1/2-x
154 1/2+y,-z,1/2+x
155 1/2-y,z,1/2+x
156 1/2+y,z,1/2-x
157 1/2-y,-x,1/2+z
158 1/2+y,x,1/2+z
159 1/2-y,x,1/2-z
160 1/2+y,-x,1/2-z
161 1/2-x,-z,1/2+y
162 1/2+x,-z,1/2-y
163 1/2+x,z,1/2+y
164 1/2-x,z,1/2-y
165 1/2-z,-y,1/2+x
166 1/2-z,y,1/2-x
167 1/2+z,-y,1/2-x
168 1/2+z,y,1/2+x
169 1/2-x,1/2-y,-z
170 1/2+x,1/2+y,-z
171 1/2+x,1/2-y,z
172 1/2-x,1/2+y,z
173 1/2-z,1/2-x,-y
174 1/2-z,1/2+x,y
175 1/2+z,1/2+x,-y
176 1/2+z,1/2-x,y
177 1/2-y,1/2-z,-x
178 1/2+y,1/2-z,x
179 1/2-y,1/2+z,x
180 1/2+y,1/2+z,-x
181 1/2-y,1/2-x,z
182 1/2+y,1/2+x,z
183 1/2-y,1/2+x,-z
184 1/2+y,1/2-x,-z
185 1/2-x,1/2-z,y
186 1/2+x,1/2-z,-y
187 1/2+x,1/2+z,y
188 1/2-x,1/2+z,-y
189 1/2-z,1/2-y,x
190 1/2-z,1/2+y,-x
191 1/2+z,1/2-y,-x
192 1/2+z,1/2+y,x
_cell_length_a                   31.025(3)
_cell_length_b                   31.025(3)
_cell_length_c                   31.025(3)
_cell_angle_alpha                90
_cell_angle_beta                 90
_cell_angle_gamma                90
_cell_volume                     29863.1
loop_
_atom_site_label
_atom_site_type_symbol
_atom_site_fract_x
_atom_site_fract_y
_atom_site_fract_z
N1 N 0.3376(4) 0.27432(10) 0.225679
C1 C 0.3808(2) 0.2663(4) 0.233696
N2 N 0.3126(6) 0.25000 0.25000
C2 C 0.4205(2) 0.2791(4) 0.220947
C3 C 0.4617(3) 0.2660(3) 0.23397
O1 O 0.50000 0.2826(4) 0.217374
Zn1 Zn 0.25000 0.25000 0.25000
O2 O 0.35610(10) 0.35610(10) 0.1985(3)
Zn2 Zn 0.3151(2) 0.3151(2) 0.184938
C4 C 0.3523(3) 0.3523(3) 0.147677
H1 H 0.420468 0.300249 0.199751
H2 H 0.37056 0.37056 0.12944
N1UC N 0.6624(4) 0.27432(10) 0.225679
C1UC C 0.6192(2) 0.2663(4) 0.233696
N2Q N 0.6874(6) 0.25000 0.25000
C2UC C 0.5795(2) 0.2791(4) 0.220947
C3UC C 0.5383(3) 0.2660(3) 0.23397
H1UC H 0.579532 0.300249 0.199751
N1JD N 0.3376(4) 0.225679 0.27432(10)
C1JD C 0.3808(2) 0.233696 0.2663(4)
C2JD C 0.4205(2) 0.220947 0.2791(4)
C3JD C 0.4617(3) 0.23397 0.2660(3)
O1Q O 0.50000 0.217374 0.2826(4)
H1JD H 0.420468 0.199751 0.300249
N1Q N 0.6624(4) 0.225679 0.27432(10)
C1Q C 0.6192(2) 0.233696 0.2663(4)
C2Q C 0.5795(2) 0.220947 0.2791(4)
C3Q C 0.5383(3) 0.23397 0.2660(3)
H1Q H 0.579532 0.199751 0.300249
O2HA O 0.35610(10) 0.3015(3) 0.14390(10)
O2CB O 0.3015(3) 0.35610(10) 0.14390(10)
N1D N 0.225679 0.3376(4) 0.27432(10)
C1D C 0.233696 0.3808(2) 0.2663(4)
N2D N 0.25000 0.3126(6) 0.25000
C2D C 0.220947 0.4205(2) 0.2791(4)
C3D C 0.23397 0.4617(3) 0.2660(3)
O1D O 0.217374 0.50000 0.2826(4)
O2D O 0.1985(3) 0.35610(10) 0.35610(10)
Zn2D Zn 0.184938 0.3151(2) 0.3151(2)
C4D C 0.147677 0.3523(3) 0.3523(3)
H1D H 0.199751 0.420468 0.300249
H2D H 0.12944 0.37056 0.37056
N1YC N 0.225679 0.6624(4) 0.27432(10)
C1YC C 0.233696 0.6192(2) 0.2663(4)
N2N N 0.25000 0.6874(6) 0.25000
C2YC C 0.220947 0.5795(2) 0.2791(4)
C3YC C 0.23397 0.5383(3) 0.2660(3)
H1YC H 0.199751 0.579532 0.300249
N1ED N 0.27432(10) 0.3376(4) 0.225679
C1ED C 0.2663(4) 0.3808(2) 0.233696
C2ED C 0.2791(4) 0.4205(2) 0.220947
C3ED C 0.2660(3) 0.4617(3) 0.23397
O1N O 0.2826(4) 0.50000 0.217374
H1ED H 0.300249 0.420468 0.199751
N1N N 0.27432(10) 0.6624(4) 0.225679
C1N C 0.2663(4) 0.6192(2) 0.233696
C2N C 0.2791(4) 0.5795(2) 0.220947
C3N C 0.2660(3) 0.5383(3) 0.23397
H1N H 0.300249 0.579532 0.199751
O2XA O 0.14390(10) 0.35610(10) 0.3015(3)
O2EC O 0.14390(10) 0.3015(3) 0.35610(10)
N1H N 0.27432(10) 0.225679 0.3376(4)
C1H C 0.2663(4) 0.233696 0.3808(2)
N2H N 0.25000 0.25000 0.3126(6)
C2H C 0.2791(4) 0.220947 0.4205(2)
C3H C 0.2660(3) 0.23397 0.4617(3)
O1H O 0.2826(4) 0.217374 0.50000
O2H O 0.35610(10) 0.1985(3) 0.35610(10)
Zn2H Zn 0.3151(2) 0.184938 0.3151(2)
C4H C 0.3523(3) 0.147677 0.3523(3)
H1H H 0.300249 0.199751 0.420468
H2H H 0.37056 0.12944 0.37056
N1CD N 0.27432(10) 0.225679 0.6624(4)
C1CD C 0.2663(4) 0.233696 0.6192(2)
N2T N 0.25000 0.25000 0.6874(6)
C2CD C 0.2791(4) 0.220947 0.5795(2)
C3CD C 0.2660(3) 0.23397 0.5383(3)
H1CD H 0.300249 0.199751 0.579532
N1OD N 0.225679 0.27432(10) 0.3376(4)
C1OD C 0.233696 0.2663(4) 0.3808(2)
C2OD C 0.220947 0.2791(4) 0.4205(2)
C3OD C 0.23397 0.2660(3) 0.4617(3)
O1T O 0.217374 0.2826(4) 0.50000
H1OD H 0.199751 0.300249 0.420468
N1T N 0.225679 0.27432(10) 0.6624(4)
C1T C 0.233696 0.2663(4) 0.6192(2)
C2T C 0.220947 0.2791(4) 0.5795(2)
C3T C 0.23397 0.2660(3) 0.5383(3)
H1T H 0.199751 0.300249 0.579532
O2ZB O 0.3015(3) 0.14390(10) 0.35610(10)
O2AA O 0.35610(10) 0.14390(10) 0.3015(3)
O2N O 0.35610(10) 0.64390(10) 0.1985(3)
Zn2N Zn 0.3151(2) 0.6849(2) 0.184938
C4N C 0.3523(3) 0.6477(3) 0.147677
H2N H 0.37056 0.62944 0.12944
O2SB O 0.3015(3) 0.64390(10) 0.14390(10)
O2NA O 0.35610(10) 0.6985(3) 0.14390(10)
N1TC N 0.3376(4) 0.72568(10) 0.225679
N1HA N 0.27432(10) 0.274321 0.1624(4)
N1AE N 0.27432(10) 0.725679 0.1624(4)
N1EE N 0.27432(10) 0.1624(4) 0.274321
N1XA N 0.1624(4) 0.27432(10) 0.274321
N2CA N 0.25000 0.1874(6) 0.25000
N2HA N 0.25000 0.25000 0.1874(6)
N2XA N 0.1874(6) 0.25000 0.25000
Zn1L Zn 0.25000 0.25000 0.75000
Zn1N Zn 0.25000 0.75000 0.25000
Zn1O Zn 0.75000 0.25000 0.25000
Zn2O Zn 0.6849(2) 0.3151(2) 0.184938
Zn2P Zn 0.3151(2) 0.184938 0.6849(2)
Zn2Q Zn 0.6849(2) 0.184938 0.3151(2)
Zn2T Zn 0.184938 0.3151(2) 0.6849(2)
Zn2U Zn 0.184938 0.6849(2) 0.3151(2)
loop_
_geom_bond_atom_site_label_1
_geom_bond_atom_site_label_2
_geom_bond_site_symmetry_1
_geom_bond_site_symmetry_2
N1 C1 1_555 1_555
C1 C2 1_555 1_555
N2 N1 1_555 1_555
C2 C3 1_555 1_555
C3 O1 1_555 1_555
O1 C3UC 1_555 1_555
Zn1 N2 1_555 1_555
O2 Zn2 1_555 1_555
Zn2 N1 1_555 1_555
C4 O2 1_555 1_555
H1 C2 1_555 1_555
H2 C4 1_555 1_555
N1UC C1UC 1_555 1_555
C1UC C2UC 1_555 1_555
N2Q N1UC 1_555 1_555
C2UC C3UC 1_555 1_555
C3UC C3Q 1_555 1_555
H1UC C2UC 1_555 1_555
N1JD N2 1_555 1_555
C1JD C1 1_555 1_555
C2JD C1JD 1_555 1_555
C3JD C3 1_555 1_555
O1Q C3JD 1_555 1_555
H1JD C2JD 1_555 1_555
N1Q N2Q 1_555 1_555
C1Q C1UC 1_555 1_555
C2Q C1Q 1_555 1_555
C3Q O1Q 1_555 1_555
H1Q C2Q 1_555 1_555
O2HA Zn2 1_555 1_555
O2CB Zn2 1_555 1_555
N1D C1D 1_555 1_555
C1D C2D 1_555 1_555
N2D Zn1 1_555 1_555
C2D C3D 1_555 1_555
C3D O1D 1_555 1_555
O1D C3YC 1_555 1_555
O2D Zn2D 1_555 1_555
Zn2D N1D 1_555 1_555
C4D O2D 1_555 1_555
H1D C2D 1_555 1_555
H2D C4D 1_555 1_555
N1YC C1YC 1_555 1_555
C1YC C2YC 1_555 1_555
N2N N1YC 1_555 1_555
C2YC C3YC 1_555 1_555
C3YC C3N 1_555 1_555
H1YC C2YC 1_555 1_555
N1ED Zn2 1_555 1_555
C1ED C1D 1_555 1_555
C2ED C1ED 1_555 1_555
C3ED C3D 1_555 1_555
O1N C3ED 1_555 1_555
H1ED C2ED 1_555 1_555
N1N N2N 1_555 1_555
C1N C1YC 1_555 1_555
C2N C1N 1_555 1_555
C3N O1N 1_555 1_555
H1N C2N 1_555 1_555
O2XA Zn2D 1_555 1_555
O2EC Zn2D 1_555 1_555
N1H C1H 1_555 1_555
C1H C2H 1_555 1_555
N2H Zn1 1_555 1_555
C2H C3H 1_555 1_555
C3H O1H 1_555 1_555
O1H C3CD 1_555 1_555
O2H Zn2H 1_555 1_555
Zn2H N1JD 1_555 1_555
C4H O2H 1_555 1_555
H1H C2H 1_555 1_555
H2H C4H 1_555 1_555
N1CD C1CD 1_555 1_555
C1CD C2CD 1_555 1_555
N2T N1CD 1_555 1_555
C2CD C3CD 1_555 1_555
C3CD C3T 1_555 1_555
H1CD C2CD 1_555 1_555
N1OD Zn2D 1_555 1_555
C1OD C1H 1_555 1_555
C2OD C1OD 1_555 1_555
C3OD C3H 1_555 1_555
O1T C3OD 1_555 1_555
H1OD C2OD 1_555 1_555
N1T N2T 1_555 1_555
C1T C1CD 1_555 1_555
C2T C1T 1_555 1_555
C3T O1T 1_555 1_555
H1T C2T 1_555 1_555
O2ZB Zn2H 1_555 1_555
O2AA Zn2H 1_555 1_555
O2N Zn2N 1_555 1_555
Zn2N N1N 1_555 1_555
C4N O2N 1_555 1_555
H2N C4N 1_555 1_555
O2SB Zn2N 1_555 1_555
O2NA Zn2N 1_555 1_555
N1TC Zn2N 1_555 1_555
N1HA Zn2 1_555 1_555
N1AE Zn2N 1_555 1_555
N1EE Zn2H 1_555 1_555
N1XA Zn2D 1_555 1_555
N2CA Zn1 1_555 1_555
N2HA Zn1 1_555 1_555
N2XA Zn1 1_555 1_555
Zn1L N2T 1_555 1_555
Zn1N N2N 1_555 1_555
Zn1O N2Q 1_555 1_555
Zn2O N1UC 1_555 1_555
Zn2P N1CD 1_555 1_555
Zn2Q N1Q 1_555 1_555
Zn2T N1T 1_555 1_555
Zn2U N1YC 1_555 1_555
C4 O2HA 1_555 1_555
C4 O2CB 1_555 1_555
N1JD C1JD 1_555 1_555
C2JD C3JD 1_555 1_555
N1Q C1Q 1_555 1_555
C2Q C3Q 1_555 1_555
N1D N2D 1_555 1_555
N2D N1ED 1_555 1_555
C4D O2XA 1_555 1_555
C4D O2EC 1_555 1_555
N1ED C1ED 1_555 1_555
C2ED C3ED 1_555 1_555
N1N C1N 1_555 1_555
C2N C3N 1_555 1_555
N1H N2H 1_555 1_555
N1H Zn2H 1_555 1_555
N2H N1OD 1_555 1_555
C4H O2ZB 1_555 1_555
C4H O2AA 1_555 1_555
N1OD C1OD 1_555 1_555
C2OD C3OD 1_555 1_555
N1T C1T 1_555 1_555
C2T C3T 1_555 1_555
C4N O2SB 1_555 1_555
C4N O2NA 1_555 1_555
N1HA N2HA 1_555 1_555
N1EE N2CA 1_555 1_555
N1XA N2XA 1_555 1_555

#END
