
#######################################################################
#
#                 Cambridge Crystallographic Data Centre
#                                CCDC 
#
#######################################################################
#
# If this CIF has been generated from an entry in the Cambridge 
# Structural Database, then it will include bibliographic, chemical, 
# crystal, experimental, refinement or atomic coordinate data resulting 
# from the CCDC's data processing and validation procedures.
#
#######################################################################

data_JOPGIG
_symmetry_cell_setting           monoclinic
_symmetry_space_group_name_H-M   'C 2/c'
_symmetry_Int_Tables_number      15
_space_group_name_Hall           '-C 2yn'
loop_
_symmetry_equiv_pos_site_id
_symmetry_equiv_pos_as_xyz
1 x,y,z
2 -x,y,1/2-z
3 1/2+x,1/2+y,z
4 1/2-x,1/2+y,1/2-z
5 -x,-y,-z
6 x,-y,1/2+z
7 1/2-x,1/2-y,-z
8 1/2+x,1/2-y,1/2+z
_cell_length_a                   25.9825(7)
_cell_length_b                   16.3719(4)
_cell_length_c                   16.9580(4)
_cell_angle_alpha                90
_cell_angle_beta                 116.889(2)
_cell_angle_gamma                90
_cell_volume                     6433.74
loop_
_atom_site_label
_atom_site_type_symbol
_atom_site_fract_x
_atom_site_fract_y
_atom_site_fract_z
Co1 Co 0.0000 0.65699(8) 0.2500
O1 O 0.02137(18) 0.6534(3) 0.3832(3)
Co2 Co 0.13734(4) 0.59556(6) 0.38258(7)
O2 O 0.06348(18) 0.4380(3) 0.7736(3)
O3 O 0.1084(2) 0.6011(3) 0.4733(3)
O4 O 0.14696(18) 0.7132(3) 0.3641(3)
O5 O 0.28138(17) 0.9231(3) 0.5393(3)
O6 O -0.12508(19) 0.5672(3) 0.5843(3)
O7 O 0.1000(2) 1.1230(3) 0.2093(3)
O8 O 0.05753(19) 0.7490(3) 0.2625(3)
O9 O 0.26587(19) 1.0554(3) 0.5010(3)
O10 O 0.14008(19) 0.4728(3) 0.7600(3)
O11 O -0.1358(2) 0.6384(3) 0.4654(4)
C1 C 0.2517(3) 0.9824(4) 0.4908(4)
C2 C 0.0359(3) 0.5987(4) 0.5205(4)
O12 O 0.0295(2) 1.0313(3) 0.1478(4)
C3 C -0.0071(3) 0.5440(4) 0.6354(4)
H1 H -0.0216 0.5259 0.6735
C4 C 0.1957(3) 0.9573(4) 0.4141(4)
C5 C 0.0921(3) 0.9116(4) 0.2689(5)
H2 H 0.0567 0.8974 0.2226
C6 C 0.0579(3) 0.6196(3) 0.4553(4)
C7 C -0.1060(3) 0.5998(4) 0.5306(5)
C8 C -0.0427(3) 0.5861(4) 0.5590(4)
C9 C 0.1079(3) 0.7646(4) 0.3171(4)
C10 C -0.0207(3) 0.6121(4) 0.5024(5)
H3 H -0.0449 0.6394 0.4507
C11 C 0.1782(3) 0.8750(4) 0.4034(4)
H4 H 0.2009 0.8361 0.4444
C12 C 0.1270(3) 0.8515(4) 0.3313(4)
C13 C 0.0780(3) 1.0544(4) 0.2070(5)
C14 C 0.0869(3) 0.4763(4) 0.7321(4)
C15 C 0.0724(3) 0.5563(4) 0.5987(4)
H5 H 0.1108 0.5468 0.6125
C16 C 0.1627(3) 1.0153(4) 0.3516(4)
H6 H 0.1745 1.0696 0.3586
C17 C 0.1121(3) 0.9919(4) 0.2784(5)
C18 C 0.0502(3) 0.5288(3) 0.6550(4)
O1A O -0.02137(18) 0.6534(3) 0.1168(3)
Co2A Co -0.13734(4) 0.59556(6) 0.11742(7)
O2A O -0.06348(18) 0.4380(3) -0.2736(3)
O3A O -0.1084(2) 0.6011(3) 0.0267(3)
O4A O -0.14696(18) 0.7132(3) 0.1359(3)
O5A O -0.28138(17) 0.9231(3) -0.0393(3)
O6A O 0.12508(19) 0.5672(3) -0.0843(3)
O7A O -0.1000(2) 1.1230(3) 0.2907(3)
O8A O -0.05753(19) 0.7490(3) 0.2375(3)
O9A O -0.26587(19) 1.0554(3) -0.0010(3)
O10A O -0.14008(19) 0.4728(3) -0.2600(3)
O11A O 0.1358(2) 0.6384(3) 0.0346(4)
C1A C -0.2517(3) 0.9824(4) 0.0092(4)
C2A C -0.0359(3) 0.5987(4) -0.0205(4)
O12A O -0.0295(2) 1.0313(3) 0.3522(4)
C3A C 0.0071(3) 0.5440(4) -0.1354(4)
H1A H 0.0216 0.5259 -0.1735
C4A C -0.1957(3) 0.9573(4) 0.0859(4)
C5A C -0.0921(3) 0.9116(4) 0.2311(5)
H2A H -0.0567 0.8974 0.2774
C6A C -0.0579(3) 0.6196(3) 0.0447(4)
C7A C 0.1060(3) 0.5998(4) -0.0306(5)
C8A C 0.0427(3) 0.5861(4) -0.0590(4)
C9A C -0.1079(3) 0.7646(4) 0.1829(4)
C10A C 0.0207(3) 0.6121(4) -0.0024(5)
H3A H 0.0449 0.6394 0.0493
C11A C -0.1782(3) 0.8750(4) 0.0966(4)
H4A H -0.2009 0.8361 0.0556
C12A C -0.1270(3) 0.8515(4) 0.1687(4)
C13A C -0.0780(3) 1.0544(4) 0.2930(5)
C14A C -0.0869(3) 0.4763(4) -0.2321(4)
C15A C -0.0724(3) 0.5563(4) -0.0987(4)
H5A H -0.1108 0.5468 -0.1125
C16A C -0.1627(3) 1.0153(4) 0.1484(4)
H6A H -0.1745 1.0696 0.1414
C17A C -0.1121(3) 0.9919(4) 0.2216(5)
C18A C -0.0502(3) 0.5288(3) -0.1550(4)
Co1D Co 0.0000 0.34301(8) -0.2500
Co1D_2 Co 0.0000 0.34301(8) 0.7500
Co2D Co -0.13734(4) 0.40444(6) -0.38258(7)
Co2E Co 0.13734(4) 0.40444(6) 0.88258(7)
Co2F Co 0.36266(4) 0.90444(6) 0.61742(7)
Co2G Co -0.36266(4) 0.90444(6) -0.11742(7)
O2D O -0.06348(18) 0.5620(3) 0.2264(3)
O2E O 0.06348(18) 0.5620(3) 0.2736(3)
O5F O 0.21862(17) 0.5769(3) 0.4607(3)
O5G O -0.21862(17) 0.5769(3) 0.0393(3)
O10D O -0.14008(19) 0.5272(3) 0.2400(3)
O10E O 0.14008(19) 0.5272(3) 0.2600(3)
N1 N 0.2055(3) 1.1780(4) 0.2387(5)
H7 H 0.1750 1.1521 0.2401
C19 C 0.2469(4) 1.1118(6) 0.2413(7)
H8 H 0.2770 1.1360 0.2301
H9 H 0.2650 1.0879 0.3000
C20 C 0.2175(4) 1.0455(7) 0.1745(7)
H10 H 0.2453 1.0051 0.1786
H11 H 0.2001 1.0687 0.1162
H12 H 0.1881 1.0206 0.1861
C21 C 0.2334(4) 1.2276(6) 0.3219(7)
H13 H 0.2675 1.2539 0.3245
H14 H 0.2456 1.1912 0.3723
C22 C 0.1810(4) 1.2303(7) 0.1557(7)
H15 H 0.1631 1.1947 0.1046
H16 H 0.1511 1.2650 0.1566
C23 C 0.2251(4) 1.2836(9) 0.1447(8)
H17 H 0.2064 1.3142 0.0908
H18 H 0.2547 1.2498 0.1426
H19 H 0.2421 1.3206 0.1938
C24 C 0.1943(5) 1.2920(8) 0.3292(9)
H20 H 0.2145 1.3214 0.3837
H21 H 0.1608 1.2664 0.3283
H22 H 0.1827 1.3292 0.2804
N2 N 0.0254(3) 0.8571(5) -0.0277(5)
H23 H 0.0043 0.8973 -0.0655
C25 C 0.0381(4) 0.7956(6) -0.0816(6)
H24 H 0.0022 0.7721 -0.1252
H25 H 0.0613 0.7519 -0.0435
C26 C -0.0491(5) 0.8731(6) 0.0270(7)
H26 H -0.0722 0.8441 0.0486
H27 H -0.0737 0.9023 -0.0257
H28 H -0.0244 0.9109 0.0711
C27 C -0.0145(5) 0.8161(6) 0.0074(7)
H29 H -0.0398 0.7776 -0.0365
H30 H 0.0092 0.7855 0.0605
C28 C 0.0760(4) 0.8967(6) 0.0431(8)
H31 H 0.0633 0.9306 0.0778
H32 H 0.0938 0.9322 0.0166
C29 C 0.1213(6) 0.8364(9) 0.1048(10)
H33 H 0.1532 0.8660 0.1492
H34 H 0.1349 0.8033 0.0713
H35 H 0.1044 0.8020 0.1327
C30 C 0.0693(7) 0.8329(11) -0.1274(11)
H36 H 0.0771 0.7919 -0.1609
H37 H 0.1051 0.8558 -0.0844
H38 H 0.0460 0.8752 -0.1664
loop_
_geom_bond_atom_site_label_1
_geom_bond_atom_site_label_2
_geom_bond_site_symmetry_1
_geom_bond_site_symmetry_2
Co1 O1 1_555 1_555
O1 C6 1_555 1_555
Co2 O3 1_555 1_555
O2 C14 1_555 1_555
O3 C6 1_555 1_555
O4 Co2 1_555 1_555
O5 C1 1_555 1_555
O6 C7 1_555 1_555
O7 C13 1_555 1_555
O8 Co1 1_555 1_555
O9 C1 1_555 1_555
O10 C14 1_555 1_555
O11 C7 1_555 1_555
C1 C4 1_555 1_555
C2 C6 1_555 1_555
O12 C13 1_555 1_555
C3 H1 1_555 1_555
C4 C11 1_555 1_555
C5 H2 1_555 1_555
C7 C8 1_555 1_555
C8 C3 1_555 1_555
C9 O4 1_555 1_555
C10 C2 1_555 1_555
H3 C10 1_555 1_555
C11 H4 1_555 1_555
C12 C5 1_555 1_555
C13 C17 1_555 1_555
C14 C18 1_555 1_555
C15 C2 1_555 1_555
H5 C15 1_555 1_555
C16 C4 1_555 1_555
H6 C16 1_555 1_555
C17 C5 1_555 1_555
C18 C3 1_555 1_555
N1 H7 1_555 1_555
C19 N1 1_555 1_555
H8 C19 1_555 1_555
H9 C19 1_555 1_555
C20 C19 1_555 1_555
H10 C20 1_555 1_555
H11 C20 1_555 1_555
H12 C20 1_555 1_555
C21 N1 1_555 1_555
H13 C21 1_555 1_555
H14 C21 1_555 1_555
C22 N1 1_555 1_555
H15 C22 1_555 1_555
H16 C22 1_555 1_555
C23 C22 1_555 1_555
H17 C23 1_555 1_555
H18 C23 1_555 1_555
H19 C23 1_555 1_555
C24 C21 1_555 1_555
H20 C24 1_555 1_555
H21 C24 1_555 1_555
H22 C24 1_555 1_555
N2 H23 1_555 1_555
C25 N2 1_555 1_555
H24 C25 1_555 1_555
H25 C25 1_555 1_555
C26 H26 1_555 1_555
H27 C26 1_555 1_555
H28 C26 1_555 1_555
C27 N2 1_555 1_555
H29 C27 1_555 1_555
H30 C27 1_555 1_555
C28 N2 1_555 1_555
H31 C28 1_555 1_555
H32 C28 1_555 1_555
C29 C28 1_555 1_555
H33 C29 1_555 1_555
H34 C29 1_555 1_555
H35 C29 1_555 1_555
C30 C25 1_555 1_555
H36 C30 1_555 1_555
H37 C30 1_555 1_555
H38 C30 1_555 1_555
O1A Co1 1_555 1_555
Co2A O3A 1_555 1_555
O2A C14A 1_555 1_555
O3A C6A 1_555 1_555
O4A Co2A 1_555 1_555
O5A C1A 1_555 1_555
O6A C7A 1_555 1_555
O7A C13A 1_555 1_555
O8A Co1 1_555 1_555
O9A C1A 1_555 1_555
O10A C14A 1_555 1_555
O11A C7A 1_555 1_555
C1A C4A 1_555 1_555
C2A C6A 1_555 1_555
O12A C13A 1_555 1_555
C3A H1A 1_555 1_555
C4A C11A 1_555 1_555
C5A H2A 1_555 1_555
C6A O1A 1_555 1_555
C7A C8A 1_555 1_555
C8A C3A 1_555 1_555
C9A O4A 1_555 1_555
C10A C2A 1_555 1_555
H3A C10A 1_555 1_555
C11A H4A 1_555 1_555
C12A C5A 1_555 1_555
C13A C17A 1_555 1_555
C14A C18A 1_555 1_555
C15A C2A 1_555 1_555
H5A C15A 1_555 1_555
C16A C4A 1_555 1_555
H6A C16A 1_555 1_555
C17A C5A 1_555 1_555
C18A C3A 1_555 1_555
Co1D O2A 1_555 1_555
Co1D_2 O2 1_555 1_555
Co2D O2A 1_555 1_555
Co2E O2 1_555 1_555
Co2F O5 1_555 1_555
Co2G O5A 1_555 1_555
O2D Co1 1_555 1_555
O2E Co1 1_555 1_555
O5F Co2 1_555 1_555
O5G Co2A 1_555 1_555
O10D Co2A 1_555 1_555
O10E Co2 1_555 1_555
Co2 O2E 1_555 1_555
O8 C9 1_555 1_555
O10 Co2E 1_555 1_555
C8 C10 1_555 1_555
C9 C12 1_555 1_555
C11 C12 1_555 1_555
C15 C18 1_555 1_555
C16 C17 1_555 1_555
C26 C27 1_555 1_555
Co2A O2D 1_555 1_555
O8A C9A 1_555 1_555
O10A Co2D 1_555 1_555
C8A C10A 1_555 1_555
C9A C12A 1_555 1_555
C11A C12A 1_555 1_555
C15A C18A 1_555 1_555
C16A C17A 1_555 1_555

#END
