
#######################################################################
#
#                 Cambridge Crystallographic Data Centre
#                                CCDC 
#
#######################################################################
#
# If this CIF has been generated from an entry in the Cambridge 
# Structural Database, then it will include bibliographic, chemical, 
# crystal, experimental, refinement or atomic coordinate data resulting 
# from the CCDC's data processing and validation procedures.
#
#######################################################################

data_JOQSIT
_symmetry_cell_setting           monoclinic
_symmetry_space_group_name_H-M   'P 21/c'
_symmetry_Int_Tables_number      14
_space_group_name_Hall           '-P 2ybc'
loop_
_symmetry_equiv_pos_site_id
_symmetry_equiv_pos_as_xyz
1 x,y,z
2 -x,1/2+y,1/2-z
3 -x,-y,-z
4 x,1/2-y,1/2+z
_cell_length_a                   16.2527(9)
_cell_length_b                   12.3588(8)
_cell_length_c                   17.4471(10)
_cell_angle_alpha                90
_cell_angle_beta                 114.657(3)
_cell_angle_gamma                90
_cell_volume                     3184.96
loop_
_atom_site_label
_atom_site_type_symbol
_atom_site_fract_x
_atom_site_fract_y
_atom_site_fract_z
Cu1 Cu 0.38111(4) 0.39912(6) 0.12487(4)
Cu2 Cu 0.46858(4) 0.33072(6) 0.04226(4)
Cu3 Cu -0.0759(4) 0.3838(6) 0.0714(3)
N1 N 0.0289(4) 0.3746(6) 0.0495(4)
N2 N 0.2741(3) 0.3636(4) 0.0218(3)
N3 N 0.3545(3) 0.3073(4) -0.0531(3)
N4 N 0.3699(3) 0.1890(4) -0.2735(3)
N5 N 0.5042(4) 0.6928(4) 0.3801(3)
N6 N 0.4901(3) 0.4877(4) 0.1825(3)
N7 N 0.5696(3) 0.4225(4) 0.1082(3)
N8 N 0.8135(4) 0.3916(5) 0.0806(4)
C1 C 0.0974(5) 0.4408(7) 0.0909(5)
H1 H 0.0908 0.4908 0.1278
C2 C 0.1780(4) 0.4392(6) 0.0820(4)
H2 H 0.2248 0.4859 0.1137
C3 C 0.1891(4) 0.3668(6) 0.0248(4)
C4 C 0.1172(5) 0.3029(7) -0.0188(4)
H3 H 0.1204 0.2542 -0.0580
C5 C 0.0381(5) 0.3088(8) -0.0059(5)
H4 H -0.0103 0.2644 -0.0378
C6 C 0.2769(4) 0.3241(5) -0.0482(3)
H5 H 0.2231 0.3081 -0.0943
C7 C 0.4374(4) 0.1809(5) -0.1970(4)
H6 H 0.4905 0.1473 -0.1923
C8 C 0.4336(4) 0.2193(5) -0.1242(4)
H7 H 0.4836 0.2126 -0.0727
C9 C 0.3544(4) 0.2683(5) -0.1283(3)
C10 C 0.2854(4) 0.2828(5) -0.2091(4)
H8 H 0.2329 0.3201 -0.2164
C11 C 0.2959(4) 0.2414(5) -0.2779(4)
H9 H 0.2485 0.2505 -0.3308
C12 C 0.4297(4) 0.6836(6) 0.3083(4)
H10 H 0.3796 0.7249 0.3024
C13 C 0.4225(4) 0.6171(5) 0.2428(4)
H11 H 0.3688 0.6143 0.1941
C14 C 0.4966(4) 0.5535(5) 0.2501(4)
C15 C 0.5735(4) 0.5592(5) 0.3260(4)
H12 H 0.6239 0.5169 0.3346
C16 C 0.5739(4) 0.6281(5) 0.3880(4)
H13 H 0.6255 0.6302 0.4385
C17 C 0.5640(4) 0.4821(5) 0.1689(4)
H14 H 0.6144 0.5219 0.2036
C18 C 0.7318(5) 0.3707(7) 0.0171(5)
H15 H 0.7295 0.3472 -0.0344
C19 C 0.6516(4) 0.3832(5) 0.0259(4)
H16 H 0.5968 0.3688 -0.0196
C20 C 0.6525(4) 0.4169(5) 0.1017(4)
C21 C 0.7366(4) 0.4347(6) 0.1677(4)
H17 H 0.7406 0.4543 0.2206
C22 C 0.8137(5) 0.4232(6) 0.1547(5)
H18 H 0.8691 0.4380 0.1993
Cu1C Cu 0.38111(4) 0.10088(6) -0.37513(4)
Cu2A Cu 0.53142(4) 0.83072(6) 0.45774(4)
Cu3_2 Cu 0.9241(4) 0.3838(6) 0.0714(3)
N4C N 0.3699(3) 0.3110(4) 0.2265(3)
N5A N 0.4958(4) 0.1928(4) 0.1199(3)
N8_2 N -0.1865(4) 0.3916(5) 0.0806(4)
F1 F -0.2028(6) 0.2970(7) -0.1391(6)
F2 F -0.1576(6) 0.1878(9) -0.0298(5)
F3 F -0.1364(8) 0.1479(12) -0.1454(8)
F4 F -0.2757(7) 0.1465(11) -0.1454(9)
B1 B -0.1927(6) 0.1923(7) -0.1149(5)
C23 C 0.8098(13) 0.547(2) 0.626(2)
O1 O 0.9530(13) 0.5438(16) 0.7162(15)
C24 C 0.8804(16) 0.6149(15) 0.677(2)
O3 O 0.1174(12) 0.6486(15) 0.2405(11)
O5 O 0.9696(19) 0.7245(16) 0.7509(17)
Cu4? Cu -0.0886(10) 0.3675(14) 0.0467(7)
B2? B -0.176(2) 0.010(2) -0.0694(11)
F5? F -0.116(2) 0.086(2) -0.0244(19)
F6? F -0.152(2) -0.064(2) -0.113(2)
F7? F -0.208(2) -0.019(3) -0.0123(19)
F8? F -0.2300(14) 0.0808(16) -0.1273(12)
O2? O 0.8098(13) 0.547(2) 0.626(2)
C25? C 0.748(3) 0.478(3) 0.638(2)
C26? C 0.723(2) 0.405(2) 0.570(2)
O4? O 0.9653(18) 0.574(2) 0.3631(17)
O6? O 0.969(2) 0.806(3) 0.748(2)
loop_
_geom_bond_atom_site_label_1
_geom_bond_atom_site_label_2
_geom_bond_site_symmetry_1
_geom_bond_site_symmetry_2
Cu1 Cu2 1_555 1_555
Cu2 N3 1_555 1_555
Cu3 N1 1_555 1_555
N1 C1 1_555 1_555
N2 Cu1 1_555 1_555
N3 C6 1_555 1_555
N4 C7 1_555 1_555
N5 C12 1_555 1_555
N6 Cu1 1_555 1_555
N7 Cu2 1_555 1_555
N8 C18 1_555 1_555
C1 H1 1_555 1_555
C2 C1 1_555 1_555
H2 C2 1_555 1_555
C3 N2 1_555 1_555
C4 C3 1_555 1_555
H3 C4 1_555 1_555
C5 N1 1_555 1_555
H4 C5 1_555 1_555
C6 N2 1_555 1_555
H5 C6 1_555 1_555
C7 H6 1_555 1_555
C8 C7 1_555 1_555
H7 C8 1_555 1_555
C9 N3 1_555 1_555
C10 C9 1_555 1_555
H8 C10 1_555 1_555
C11 N4 1_555 1_555
H9 C11 1_555 1_555
C12 H10 1_555 1_555
C13 C12 1_555 1_555
H11 C13 1_555 1_555
C14 N6 1_555 1_555
C15 C14 1_555 1_555
H12 C15 1_555 1_555
C16 N5 1_555 1_555
H13 C16 1_555 1_555
C17 N6 1_555 1_555
H14 C17 1_555 1_555
C18 H15 1_555 1_555
C19 C18 1_555 1_555
H16 C19 1_555 1_555
C20 N7 1_555 1_555
C21 C20 1_555 1_555
H17 C21 1_555 1_555
C22 N8 1_555 1_555
H18 C22 1_555 1_555
F1 B1 1_555 1_555
F2 B1 1_555 1_555
F3 B1 1_555 1_555
F4 B1 1_555 1_555
C23 C24 1_555 1_555
O1 C24 1_555 1_555
Cu1C N4 1_555 1_555
Cu2A N5 1_555 1_555
Cu3_2 N8 1_555 1_555
N4C Cu1 1_555 1_555
N5A Cu2 1_555 1_555
N8_2 Cu3 1_555 1_555
N7 C17 1_555 1_555
C2 C3 1_555 1_555
C4 C5 1_555 1_555
C8 C9 1_555 1_555
C10 C11 1_555 1_555
C13 C14 1_555 1_555
C15 C16 1_555 1_555
C19 C20 1_555 1_555
C21 C22 1_555 1_555

#END
