
#######################################################################
#
#                 Cambridge Crystallographic Data Centre
#                                CCDC 
#
#######################################################################
#
# If this CIF has been generated from an entry in the Cambridge 
# Structural Database, then it will include bibliographic, chemical, 
# crystal, experimental, refinement or atomic coordinate data resulting 
# from the CCDC's data processing and validation procedures.
#
#######################################################################

data_JUCGUL
_symmetry_cell_setting           triclinic
_symmetry_space_group_name_H-M   'P -1'
_symmetry_Int_Tables_number      2
_space_group_name_Hall           '-P 1'
loop_
_symmetry_equiv_pos_site_id
_symmetry_equiv_pos_as_xyz
1 x,y,z
2 -x,-y,-z
_cell_length_a                   9.8824(7)
_cell_length_b                   11.5480(8)
_cell_length_c                   15.6480(11)
_cell_angle_alpha                89.784(3)
_cell_angle_beta                 76.441(3)
_cell_angle_gamma                75.603(3)
_cell_volume                     1678.67
loop_
_atom_site_label
_atom_site_type_symbol
_atom_site_fract_x
_atom_site_fract_y
_atom_site_fract_z
Zn1 Zn 0.15965(2) 0.97354(2) -0.02325(2)
O1 O 0.16025(16) 0.85651(13) 0.07343(9)
O2 O -0.07859(16) 0.89373(13) 0.09997(9)
O3 O -0.11733(14) 0.14338(13) 0.10536(9)
O4 O 0.12352(14) 0.10575(12) 0.07072(9)
N1 N 0.36558(16) 0.96364(13) -0.08870(9)
C1 C 0.00022(19) 0.15542(15) 0.11732(11)
C2 C -0.00642(19) 0.23526(15) 0.19481(11)
C3 C 0.10768(19) 0.28499(16) 0.19600(11)
H1 H 0.1868 0.2710 0.1479
C4 C 0.1042(2) 0.35543(16) 0.26851(12)
H2 H 0.1799 0.3900 0.2682
C5 C -0.0122(2) 0.37474(15) 0.34192(11)
C6 C -0.1250(2) 0.32375(18) 0.34075(12)
H3 H -0.2024 0.3351 0.3897
C7 C -0.1236(2) 0.25591(18) 0.26709(12)
H4 H -0.2013 0.2244 0.2663
C8 C -0.00960(19) 0.44284(15) 0.42264(11)
C9 C 0.0266(2) 0.61163(15) 0.49691(11)
H5 H 0.0453 0.6868 0.4946
C10 C 0.01652(19) 0.55710(15) 0.41991(11)
C11 C 0.4286(2) 1.0510(2) -0.07818(13)
H6 H 0.3856 1.1068 -0.0308
C12 C 0.5549(2) 1.0620(2) -0.13465(14)
H7 H 0.5964 1.1228 -0.1240
C13 C 0.6198(2) 0.98163(18) -0.20764(12)
C14 C 0.7449(2) 0.99977(18) -0.27294(13)
H8 H 0.8004 1.0454 -0.2558
C15 C 0.5570(2) 0.88829(17) -0.21598(13)
H9 H 0.5993 0.8298 -0.2617
C16 C 0.4318(2) 0.88270(16) -0.15620(12)
H10 H 0.3914 0.8197 -0.1631
C17 C 0.02528(19) 0.62624(15) 0.33843(10)
C18 C 0.1541(2) 0.64707(19) 0.29302(13)
H11 H 0.2375 0.6156 0.3120
C19 C 0.0396(2) 0.84429(15) 0.11570(11)
C20 C 0.0367(2) 0.76465(15) 0.19193(11)
C21 C -0.0925(2) 0.7434(2) 0.23728(14)
H12 H -0.1764 0.7766 0.2192
C22 C -0.0974(2) 0.6728(2) 0.30963(14)
H13 H -0.1839 0.6570 0.3386
C23 C 0.1601(2) 0.71446(18) 0.21936(13)
H14 H 0.2478 0.7259 0.1883
C24 C 0.7829(2) 0.95394(17) -0.35583(12)
H15 H 0.7322 0.9015 -0.3694
C25 C 0.89597(19) 0.97731(16) -0.42772(12)
C26 C 0.9021(2) 0.93953(17) -0.51398(12)
H16 H 0.8364 0.8986 -0.5235
C27 C 0.9965(2) 1.03820(18) -0.41492(12)
H17 H 0.9950 1.0637 -0.3583
O1A O -0.16025(16) 0.14349(13) 0.92657(9)
O2A O 0.07859(16) 0.10627(13) 0.90003(9)
O3A O 0.11733(14) 0.85662(13) 0.89464(9)
O4A O -0.12352(14) 0.89425(12) 0.92928(9)
C1A C -0.00022(19) 0.84458(15) 0.88268(11)
C2A C 0.00642(19) 0.76474(15) 0.80519(11)
C3A C -0.10768(19) 0.71501(16) 0.80400(11)
H1A H -0.1868 0.7290 0.8521
C4A C -0.1042(2) 0.64457(16) 0.73149(12)
H2A H -0.1799 0.6100 0.7318
C5A C 0.0122(2) 0.62526(15) 0.65808(11)
C6A C 0.1250(2) 0.67625(18) 0.65925(12)
H3A H 0.2024 0.6649 0.6103
C7A C 0.1236(2) 0.74409(18) 0.73291(12)
H4A H 0.2013 0.7756 0.7337
C8A C 0.00960(19) 0.55716(15) 0.57736(11)
C9A C -0.0266(2) 0.38837(15) 0.50309(11)
H5A H -0.0453 0.3132 0.5054
C10A C -0.01652(19) 0.44290(15) 0.58009(11)
C17A C -0.02528(19) 0.37376(15) 0.66157(10)
C18A C -0.1541(2) 0.35293(19) 0.70698(13)
H11A H -0.2375 0.3844 0.6880
C19A C -0.0396(2) 0.15571(15) 0.88430(11)
C20A C -0.0367(2) 0.23535(15) 0.80807(11)
C21A C 0.0925(2) 0.2566(2) 0.76272(14)
H12A H 0.1764 0.2234 0.7808
C22A C 0.0974(2) 0.3272(2) 0.69037(14)
H13A H 0.1839 0.3430 0.6614
C23A C -0.1601(2) 0.28554(18) 0.78064(13)
H14A H -0.2478 0.2741 0.8117
N1A N 1.63442(16) 1.03636(13) -0.91130(9)
C11A C 1.5714(2) 0.9490(2) -0.92182(13)
H6A H 1.6144 0.8932 -0.9692
C12A C 1.4451(2) 0.9380(2) -0.86535(14)
H7A H 1.4036 0.8772 -0.8760
C13A C 1.3802(2) 1.01837(18) -0.79236(12)
C14A C 1.2551(2) 1.00023(18) -0.72706(13)
H8A H 1.1996 0.9546 -0.7442
C15A C 1.4430(2) 1.11171(17) -0.78402(13)
H9A H 1.4007 1.1702 -0.7383
C16A C 1.5682(2) 1.11730(16) -0.84380(12)
H10A H 1.6086 1.1803 -0.8369
C24A C 1.2171(2) 1.04606(17) -0.64417(12)
H15A H 1.2678 1.0985 -0.6306
C25A C 1.10403(19) 1.02269(16) -0.57228(12)
C26A C 1.0979(2) 1.06047(17) -0.48602(12)
H16A H 1.1636 1.1014 -0.4765
C27A C 1.0035(2) 0.96180(18) -0.58508(12)
H17A H 1.0050 0.9363 -0.6417
Zn1A Zn -0.15965(2) 0.02646(2) 0.02325(2)
Zn1_2 Zn 0.15965(2) -0.02646(2) -0.02325(2)
Zn1_3 Zn 0.15965(2) -0.02646(2) 0.97675(2)
Zn1_4 Zn 0.15965(2) 0.97354(2) 0.97675(2)
Zn1A_2 Zn -0.15965(2) 0.02646(2) 1.02325(2)
Zn1A_3 Zn -0.15965(2) 1.02646(2) 0.02325(2)
Zn1A_4 Zn -0.15965(2) 1.02646(2) 1.02325(2)
Zn1A_5 Zn 1.84035(2) 1.02646(2) -0.97675(2)
O1A_2 O -0.16025(16) 0.14349(13) -0.07343(9)
O2_2 O -0.07859(16) -0.10627(13) 0.09997(9)
O2A_2 O 0.07859(16) 1.10627(13) -0.09997(9)
O3A_2 O 0.11733(14) 0.85662(13) -0.10536(9)
O4_2 O 0.12352(14) 1.10575(12) 0.07072(9)
O4A_2 O -0.12352(14) -0.10575(12) -0.07072(9)
N1A_2 N -0.36558(16) 0.03636(13) 0.08870(9)
N2 N 0.4797(3) 0.36877(19) 0.29515(17)
C28 C 0.5466(4) 0.4372(3) 0.2420(2)
H18 H 0.5889 0.4080 0.1841
C29 C 0.5582(3) 0.5479(3) 0.2658(2)
H19 H 0.6073 0.5905 0.2245
C30 C 0.4985(3) 0.5954(2) 0.3492(2)
C31 C 0.4282(3) 0.5259(2) 0.40724(18)
H20 H 0.3864 0.5535 0.4656
C32 C 0.4205(3) 0.4138(2) 0.37751(19)
H21 H 0.3719 0.3689 0.4171
C33 C 0.5118(3) 0.7173(2) 0.3699(2)
H22 H 0.5533 0.7580 0.3238
C34 C 0.4697(3) 0.7704(2) 0.4477(2)
H23 H 0.4240 0.7306 0.4928
C35 C 0.4875(3) 0.8889(2) 0.4718(2)
C36 C 0.4399(3) 0.9269(2) 0.5596(2)
H24 H 0.3992 0.8786 0.6002
C37 C 0.5479(3) 0.9633(2) 0.4121(2)
H25 H 0.5802 0.9389 0.3526
N2A N 0.5203(3) 1.63123(19) 0.70485(17)
C28A C 0.4534(4) 1.5628(3) 0.7580(2)
H18A H 0.4111 1.5920 0.8159
C29A C 0.4418(3) 1.4521(3) 0.7342(2)
H19A H 0.3927 1.4095 0.7755
C30A C 0.5015(3) 1.4046(2) 0.6508(2)
C31A C 0.5718(3) 1.4741(2) 0.59276(18)
H20A H 0.6136 1.4465 0.5344
C32A C 0.5795(3) 1.5862(2) 0.62249(19)
H21A H 0.6281 1.6311 0.5829
C33A C 0.4882(3) 1.2827(2) 0.6301(2)
H22A H 0.4467 1.2420 0.6762
C34A C 0.5303(3) 1.2296(2) 0.5523(2)
H23A H 0.5760 1.2694 0.5072
C35A C 0.5125(3) 1.1111(2) 0.5282(2)
C36A C 0.5601(3) 1.0731(2) 0.4404(2)
H24A H 0.6008 1.1214 0.3998
C37A C 0.4521(3) 1.0367(2) 0.5879(2)
H25A H 0.4198 1.0611 0.6474
loop_
_geom_bond_atom_site_label_1
_geom_bond_atom_site_label_2
_geom_bond_site_symmetry_1
_geom_bond_site_symmetry_2
Zn1 O1 1_555 1_555
O1 C19 1_555 1_555
O2 C19 1_555 1_555
O3 C1 1_555 1_555
O4 C1 1_555 1_555
N1 Zn1 1_555 1_555
C1 C2 1_555 1_555
C2 C3 1_555 1_555
C3 H1 1_555 1_555
C4 C3 1_555 1_555
H2 C4 1_555 1_555
C5 C4 1_555 1_555
C6 C5 1_555 1_555
H3 C6 1_555 1_555
C7 C2 1_555 1_555
H4 C7 1_555 1_555
C8 C5 1_555 1_555
C9 H5 1_555 1_555
C10 C8 1_555 1_555
C11 N1 1_555 1_555
H6 C11 1_555 1_555
C12 C11 1_555 1_555
H7 C12 1_555 1_555
C13 C12 1_555 1_555
C14 C13 1_555 1_555
H8 C14 1_555 1_555
C15 C13 1_555 1_555
H9 C15 1_555 1_555
C16 N1 1_555 1_555
H10 C16 1_555 1_555
C17 C10 1_555 1_555
C18 C17 1_555 1_555
H11 C18 1_555 1_555
C19 C20 1_555 1_555
C20 C21 1_555 1_555
C21 H12 1_555 1_555
C22 C17 1_555 1_555
H13 C22 1_555 1_555
C23 C18 1_555 1_555
H14 C23 1_555 1_555
C24 C14 1_555 1_555
H15 C24 1_555 1_555
C25 C24 1_555 1_555
C26 C25 1_555 1_555
H16 C26 1_555 1_555
C27 C25 1_555 1_555
H17 C27 1_555 1_555
N2 C28 1_555 1_555
C28 H18 1_555 1_555
C29 C28 1_555 1_555
H19 C29 1_555 1_555
C30 C29 1_555 1_555
C31 C30 1_555 1_555
H20 C31 1_555 1_555
C32 N2 1_555 1_555
H21 C32 1_555 1_555
C33 C30 1_555 1_555
H22 C33 1_555 1_555
C34 C33 1_555 1_555
H23 C34 1_555 1_555
C35 C34 1_555 1_555
C36 C35 1_555 1_555
H24 C36 1_555 1_555
C37 C35 1_555 1_555
H25 C37 1_555 1_555
O1A C19A 1_555 1_555
O2A C19A 1_555 1_555
O3A C1A 1_555 1_555
O4A C1A 1_555 1_555
C1A C2A 1_555 1_555
C2A C3A 1_555 1_555
C3A H1A 1_555 1_555
C4A C3A 1_555 1_555
H2A C4A 1_555 1_555
C5A C4A 1_555 1_555
C6A C5A 1_555 1_555
H3A C6A 1_555 1_555
C7A C2A 1_555 1_555
H4A C7A 1_555 1_555
C8A C9 1_555 1_555
C9A C8 1_555 1_555
H5A C9A 1_555 1_555
C10A C8A 1_555 1_555
C17A C10A 1_555 1_555
C18A C17A 1_555 1_555
H11A C18A 1_555 1_555
C19A C20A 1_555 1_555
C20A C21A 1_555 1_555
C21A H12A 1_555 1_555
C22A C17A 1_555 1_555
H13A C22A 1_555 1_555
C23A C18A 1_555 1_555
H14A C23A 1_555 1_555
N1A C11A 1_555 1_555
C11A H6A 1_555 1_555
C12A C11A 1_555 1_555
H7A C12A 1_555 1_555
C13A C12A 1_555 1_555
C14A C13A 1_555 1_555
H8A C14A 1_555 1_555
C15A C13A 1_555 1_555
H9A C15A 1_555 1_555
C16A N1A 1_555 1_555
H10A C16A 1_555 1_555
C24A C14A 1_555 1_555
H15A C24A 1_555 1_555
C25A C24A 1_555 1_555
C26A C27 1_555 1_555
H16A C26A 1_555 1_555
C27A C26 1_555 1_555
H17A C27A 1_555 1_555
Zn1A O3 1_555 1_555
Zn1_2 O4 1_555 1_555
Zn1_3 O2A 1_555 1_555
Zn1_4 O3A 1_555 1_555
Zn1A_2 O1A 1_555 1_555
Zn1A_3 O2 1_555 1_555
Zn1A_4 O4A 1_555 1_555
Zn1A_5 N1A 1_555 1_555
O1A_2 Zn1A 1_555 1_555
O2_2 Zn1A 1_555 1_555
O2A_2 Zn1 1_555 1_555
O3A_2 Zn1 1_555 1_555
O4_2 Zn1 1_555 1_555
O4A_2 Zn1A 1_555 1_555
N1A_2 Zn1A 1_555 1_555
N2A C28A 1_555 1_555
C28A H18A 1_555 1_555
C29A C28A 1_555 1_555
H19A C29A 1_555 1_555
C30A C29A 1_555 1_555
C31A C30A 1_555 1_555
H20A C31A 1_555 1_555
C32A N2A 1_555 1_555
H21A C32A 1_555 1_555
C33A C30A 1_555 1_555
H22A C33A 1_555 1_555
C34A C33A 1_555 1_555
H23A C34A 1_555 1_555
C35A C34A 1_555 1_555
C36A C37 1_555 1_555
H24A C36A 1_555 1_555
C37A C36 1_555 1_555
H25A C37A 1_555 1_555
C6 C7 1_555 1_555
C9 C10 1_555 1_555
C15 C16 1_555 1_555
C20 C23 1_555 1_555
C21 C22 1_555 1_555
C31 C32 1_555 1_555
C5A C8A 1_555 1_555
C6A C7A 1_555 1_555
C9A C10A 1_555 1_555
C20A C23A 1_555 1_555
C21A C22A 1_555 1_555
C15A C16A 1_555 1_555
C25A C26A 1_555 1_555
C25A C27A 1_555 1_555
C31A C32A 1_555 1_555
C35A C36A 1_555 1_555
C35A C37A 1_555 1_555

#END
