
#######################################################################
#
#                 Cambridge Crystallographic Data Centre
#                                CCDC 
#
#######################################################################
#
# If this CIF has been generated from an entry in the Cambridge 
# Structural Database, then it will include bibliographic, chemical, 
# crystal, experimental, refinement or atomic coordinate data resulting 
# from the CCDC's data processing and validation procedures.
#
#######################################################################

data_JUCXEK
_symmetry_cell_setting           hexagonal
_symmetry_space_group_name_H-M   'P 63/m'
_symmetry_Int_Tables_number      176
_space_group_name_Hall           '-P 6c'
loop_
_symmetry_equiv_pos_site_id
_symmetry_equiv_pos_as_xyz
1 x,y,z
2 -y,x-y,z
3 -x+y,-x,z
4 -x,-y,1/2+z
5 y,-x+y,1/2+z
6 x-y,x,1/2+z
7 -x,-y,-z
8 y,-x+y,-z
9 x-y,x,-z
10 x,y,1/2-z
11 -y,x-y,1/2-z
12 -x+y,-x,1/2-z
_cell_length_a                   11.382(2)
_cell_length_b                   11.382(2)
_cell_length_c                   11.734(2)
_cell_angle_alpha                90
_cell_angle_beta                 90
_cell_angle_gamma                120
_cell_volume                     1316.48
loop_
_atom_site_label
_atom_site_type_symbol
_atom_site_fract_x
_atom_site_fract_y
_atom_site_fract_z
Np1 Np 0.49256(3) 0.38904(3) 0.2500
O1 O 0.6834(5) 0.4963(6) 0.2500
O2 O 0.3077(7) 0.2888(8) 0.2500
O3 O 0.4957(5) 0.3517(5) 0.4558(4)
O4 O 0.4899(5) 0.5659(5) 0.3684(4)
C1 C 0.5007(7) 0.4376(7) 0.5244(6)
O1A O 0.5037(6) 0.1871(8) 0.2500
O3I O 0.4957(5) 0.3517(5) 0.0442(4)
O4I O 0.4899(5) 0.5659(5) 0.1316(4)
Np1B Np 0.89648(4) 0.50744(3) 0.2500
C1F C 0.4993(7) 0.5624(7) 0.4756(6)
O4F O 0.5101(5) 0.4341(5) 0.6316(4)
O3F O 0.5043(5) 0.6483(5) 0.5442(4)
Np1F Np 0.50744(3) 0.61096(3) 0.7500
O6 O 0.00000 0.00000 0.101(4)
O7 O 0.711(2) 0.923(2) 0.514(3)
N1 N 0.035(1) 0.236(1) 0.2500
O5? O 0.333 0.666 0.2500
loop_
_geom_bond_atom_site_label_1
_geom_bond_atom_site_label_2
_geom_bond_site_symmetry_1
_geom_bond_site_symmetry_2
Np1 O1 1_555 1_555
O1 Np1B 1_555 1_555
O2 Np1 1_555 1_555
O3 Np1 1_555 1_555
O4 Np1 1_555 1_555
C1 O3 1_555 1_555
O1A Np1 1_555 1_555
O3I Np1 1_555 1_555
O4I Np1 1_555 1_555
C1F O4 1_555 1_555
O4F C1 1_555 1_555
O3F C1F 1_555 1_555
Np1F O4F 1_555 1_555
C1 C1F 1_555 1_555
O3F Np1F 1_555 1_555

#END
