
#######################################################################
#
#                 Cambridge Crystallographic Data Centre
#                                CCDC 
#
#######################################################################
#
# If this CIF has been generated from an entry in the Cambridge 
# Structural Database, then it will include bibliographic, chemical, 
# crystal, experimental, refinement or atomic coordinate data resulting 
# from the CCDC's data processing and validation procedures.
#
#######################################################################

data_JUFBIX
_symmetry_cell_setting           monoclinic
_symmetry_space_group_name_H-M   'P 2/c'
_symmetry_Int_Tables_number      13
_space_group_name_Hall           '-P 2yc'
loop_
_symmetry_equiv_pos_site_id
_symmetry_equiv_pos_as_xyz
1 x,y,z
2 -x,y,1/2-z
3 -x,-y,-z
4 x,-y,1/2+z
_cell_length_a                   16.2799(8)
_cell_length_b                   7.2214(4)
_cell_length_c                   24.2716(10)
_cell_angle_alpha                90
_cell_angle_beta                 116.419(3)
_cell_angle_gamma                90
_cell_volume                     2555.46
loop_
_atom_site_label
_atom_site_type_symbol
_atom_site_fract_x
_atom_site_fract_y
_atom_site_fract_z
Co1 Co 0.441458(16) 0.16272(3) 0.984676(11)
F1 F 0.94483(10) 0.3318(2) 0.88846(8)
F2 F 0.91190(11) 0.4731(2) 0.80375(8)
F3 F 0.82643(10) 0.2538(2) 0.80654(7)
F4 F 0.94566(10) 0.7451(2) 0.88884(7)
F5 F 0.92151(10) 0.5954(2) 0.95639(6)
F6 F 0.83314(11) 0.81981(19) 0.90781(6)
O1 O 0.51880(11) 0.2985(2) 0.95171(7)
O2 O 0.52486(10) 0.7714(2) 0.57305(6)
O3 O 0.61477(10) 1.0216(2) 0.59776(6)
O4 O 0.61142(10) 0.0523(2) 0.98107(7)
O5 O 0.0000 1.0573(3) 0.7500
N1 N 0.32734(11) 0.3246(2) 0.96340(7)
N2 N 0.21971(11) 0.5324(2) 0.91657(7)
C1 C 0.03993(13) 0.7550(3) 0.77963(9)
C2 C 0.06064(14) 0.9408(3) 0.79518(9)
C3 C 0.13343(16) 0.9978(3) 0.84916(10)
H1 H 0.1463 1.1227 0.8583
C4 C 0.18627(15) 0.8612(3) 0.88896(10)
H2 H 0.2357 0.8937 0.9259
C5 C 0.16604(14) 0.6750(3) 0.87405(9)
C6 C 0.09396(13) 0.6193(3) 0.81961(9)
H3 H 0.0821 0.4944 0.8101
C7 C 0.30334(13) 0.4702(3) 0.92697(9)
H4 H 0.3396 0.5234 0.9105
C8 C 0.25588(14) 0.2934(3) 0.97784(10)
H5 H 0.2537 0.1993 1.0033
C9 C 0.18931(14) 0.4201(3) 0.94935(10)
H6 H 0.1338 0.4295 0.9515
C10 C 0.58765(14) 0.2085(3) 0.95598(9)
C11 C 0.64635(14) 0.2944(3) 0.92938(9)
C12 C 0.62506(13) 0.4655(3) 0.90082(9)
H7 H 0.5744 0.5307 0.8987
C13 C 0.67899(14) 0.5400(3) 0.87540(9)
H8 H 0.6636 0.6546 0.8559
C14 C 0.75523(13) 0.4471(3) 0.87851(9)
C15 C 0.77775(16) 0.2777(3) 0.90869(12)
H9 H 0.8298 0.2148 0.9124
C16 C 0.72357(17) 0.2021(3) 0.93328(12)
H10 H 0.7390 0.0876 0.9528
C17 C 0.81508(13) 0.5408(3) 0.85158(9)
C18 C 0.75499(14) 0.6381(3) 0.78984(9)
C19 C 0.59065(14) 0.8678(3) 0.60976(9)
C20 C 0.64634(14) 0.7891(3) 0.67323(9)
C21 C 0.71855(15) 0.8888(3) 0.71723(9)
H11 H 0.7307 1.0077 0.7080
C22 C 0.77286(15) 0.8142(3) 0.77460(10)
H12 H 0.8217 0.8823 0.8032
C23 C 0.68195(14) 0.5392(3) 0.74581(9)
H13 H 0.6687 0.4215 0.7553
C24 C 0.62882(14) 0.6131(3) 0.68827(9)
H14 H 0.5808 0.5441 0.6593
C25 C 0.87941(16) 0.6756(3) 0.90115(10)
C26 C 0.87497(15) 0.3984(4) 0.83790(11)
N1A N -0.32734(11) 0.3246(2) 0.53660(7)
N2A N -0.21971(11) 0.5324(2) 0.58343(7)
C1A C -0.03993(13) 0.7550(3) 0.72037(9)
C2A C -0.06064(14) 0.9408(3) 0.70482(9)
C3A C -0.13343(16) 0.9978(3) 0.65084(10)
H1A H -0.1463 1.1227 0.6417
C4A C -0.18627(15) 0.8612(3) 0.61104(10)
H2A H -0.2357 0.8937 0.5741
C5A C -0.16604(14) 0.6750(3) 0.62595(9)
C6A C -0.09396(13) 0.6193(3) 0.68039(9)
H3A H -0.0821 0.4944 0.6899
C7A C -0.30334(13) 0.4702(3) 0.57303(9)
H4A H -0.3396 0.5234 0.5895
C8A C -0.25588(14) 0.2934(3) 0.52216(10)
H5A H -0.2537 0.1993 0.4967
C9A C -0.18931(14) 0.4201(3) 0.55065(10)
H6A H -0.1338 0.4295 0.5485
Co1A Co -0.441458(16) 0.16272(3) 0.515324(11)
F1A F -0.94483(10) 0.3318(2) 0.61154(8)
F2A F -0.91190(11) 0.4731(2) 0.69625(8)
F3A F -0.82643(10) 0.2538(2) 0.69346(7)
F4A F -0.94566(10) 0.7451(2) 0.61116(7)
F5A F -0.92151(10) 0.5954(2) 0.54361(6)
F6A F -0.83314(11) 0.81981(19) 0.59219(6)
O1A O -0.51880(11) 0.2985(2) 0.54829(7)
O2A O -0.52486(10) 0.7714(2) 0.92695(6)
O3A O -0.61477(10) 1.0216(2) 0.90224(6)
O4A O -0.61142(10) 0.0523(2) 0.51893(7)
C10A C -0.58765(14) 0.2085(3) 0.54402(9)
C11A C -0.64635(14) 0.2944(3) 0.57062(9)
C12A C -0.62506(13) 0.4655(3) 0.59918(9)
H7A H -0.5744 0.5307 0.6013
C13A C -0.67899(14) 0.5400(3) 0.62460(9)
H8A H -0.6636 0.6546 0.6441
C14A C -0.75523(13) 0.4471(3) 0.62149(9)
C15A C -0.77775(16) 0.2777(3) 0.59131(12)
H9A H -0.8298 0.2148 0.5876
C16A C -0.72357(17) 0.2021(3) 0.56672(12)
H10A H -0.7390 0.0876 0.5472
C17A C -0.81508(13) 0.5408(3) 0.64842(9)
C18A C -0.75499(14) 0.6381(3) 0.71016(9)
C19A C -0.59065(14) 0.8678(3) 0.89024(9)
C20A C -0.64634(14) 0.7891(3) 0.82677(9)
C21A C -0.71855(15) 0.8888(3) 0.78277(9)
H11A H -0.7307 1.0077 0.7920
C22A C -0.77286(15) 0.8142(3) 0.72540(10)
H12A H -0.8217 0.8823 0.6968
C23A C -0.68195(14) 0.5392(3) 0.75419(9)
H13A H -0.6687 0.4215 0.7447
C24A C -0.62882(14) 0.6131(3) 0.81173(9)
H14A H -0.5808 0.5441 0.8407
C25A C -0.87941(16) 0.6756(3) 0.59885(10)
C26A C -0.87497(15) 0.3984(4) 0.66210(11)
Co1_2 Co -0.558542(16) 1.16272(3) 0.984676(11)
Co1A_2 Co 0.558542(16) 1.16272(3) 0.515324(11)
Co1B Co -0.441458(16) 0.83728(3) 1.015324(11)
Co1B_2 Co 0.558542(16) -0.16272(3) 1.015324(11)
Co1C Co -0.558542(16) -0.16272(3) 0.484676(11)
Co1C_2 Co 0.441458(16) 0.83728(3) 0.484676(11)
O2B O -0.52486(10) 0.2286(2) 0.42695(6)
O2C O 0.52486(10) 0.2286(2) 1.07305(6)
O3_2 O -0.38523(10) 0.0216(2) 0.59776(6)
O3A_2 O 0.38523(10) 0.0216(2) 0.90224(6)
O4B O 0.38858(10) -0.0523(2) 1.01893(7)
O4C O -0.38858(10) -0.0523(2) 0.48107(7)
O6 O 0.5000 0.053(5) 0.7500
H15? H 0.5340 0.1168 0.7390
H16? H 0.5180 -0.0588 0.7553
loop_
_geom_bond_atom_site_label_1
_geom_bond_atom_site_label_2
_geom_bond_site_symmetry_1
_geom_bond_site_symmetry_2
Co1 O1 1_555 1_555
F1 C26 1_555 1_555
F2 C26 1_555 1_555
F3 C26 1_555 1_555
F4 C25 1_555 1_555
F5 C25 1_555 1_555
F6 C25 1_555 1_555
O1 C10 1_555 1_555
O2 C19 1_555 1_555
O3 C19 1_555 1_555
O4 C10 1_555 1_555
O5 C2 1_555 1_555
N1 Co1 1_555 1_555
N2 C5 1_555 1_555
C1 C2 1_555 1_555
C2 C3 1_555 1_555
C3 H1 1_555 1_555
C4 C3 1_555 1_555
H2 C4 1_555 1_555
C5 C4 1_555 1_555
C6 C1 1_555 1_555
H3 C6 1_555 1_555
C7 N1 1_555 1_555
H4 C7 1_555 1_555
C8 N1 1_555 1_555
H5 C8 1_555 1_555
C9 N2 1_555 1_555
H6 C9 1_555 1_555
C10 C11 1_555 1_555
C11 C12 1_555 1_555
C12 H7 1_555 1_555
C13 C12 1_555 1_555
H8 C13 1_555 1_555
C14 C13 1_555 1_555
C15 C14 1_555 1_555
H9 C15 1_555 1_555
C16 C11 1_555 1_555
H10 C16 1_555 1_555
C17 C14 1_555 1_555
C18 C17 1_555 1_555
C19 C20 1_555 1_555
C20 C21 1_555 1_555
C21 H11 1_555 1_555
C22 C18 1_555 1_555
H12 C22 1_555 1_555
C23 C18 1_555 1_555
H13 C23 1_555 1_555
C24 C20 1_555 1_555
H14 C24 1_555 1_555
C25 C17 1_555 1_555
C26 C17 1_555 1_555
N1A C7A 1_555 1_555
N2A C5A 1_555 1_555
C1A C1 1_555 1_555
C2A O5 1_555 1_555
C3A C2A 1_555 1_555
H1A C3A 1_555 1_555
C4A C3A 1_555 1_555
H2A C4A 1_555 1_555
C5A C4A 1_555 1_555
C6A C1A 1_555 1_555
H3A C6A 1_555 1_555
C7A N2A 1_555 1_555
H4A C7A 1_555 1_555
C8A N1A 1_555 1_555
H5A C8A 1_555 1_555
C9A N2A 1_555 1_555
H6A C9A 1_555 1_555
Co1A N1A 1_555 1_555
F1A C26A 1_555 1_555
F2A C26A 1_555 1_555
F3A C26A 1_555 1_555
F4A C25A 1_555 1_555
F5A C25A 1_555 1_555
F6A C25A 1_555 1_555
O1A Co1A 1_555 1_555
O2A C19A 1_555 1_555
O3A C19A 1_555 1_555
O4A C10A 1_555 1_555
C10A O1A 1_555 1_555
C11A C10A 1_555 1_555
C12A C11A 1_555 1_555
H7A C12A 1_555 1_555
C13A C12A 1_555 1_555
H8A C13A 1_555 1_555
C14A C13A 1_555 1_555
C15A C14A 1_555 1_555
H9A C15A 1_555 1_555
C16A C11A 1_555 1_555
H10A C16A 1_555 1_555
C17A C14A 1_555 1_555
C18A C17A 1_555 1_555
C19A C20A 1_555 1_555
C20A C21A 1_555 1_555
C21A H11A 1_555 1_555
C22A C18A 1_555 1_555
H12A C22A 1_555 1_555
C23A C18A 1_555 1_555
H13A C23A 1_555 1_555
C24A C20A 1_555 1_555
H14A C24A 1_555 1_555
C25A C17A 1_555 1_555
C26A C17A 1_555 1_555
Co1_2 O3A 1_555 1_555
Co1A_2 O3 1_555 1_555
Co1B O2A 1_555 1_555
Co1B_2 Co1 1_555 1_555
Co1C Co1A 1_555 1_555
Co1C_2 O2 1_555 1_555
O2B Co1A 1_555 1_555
O2C Co1 1_555 1_555
O3_2 Co1A 1_555 1_555
O3A_2 Co1 1_555 1_555
O4B Co1 1_555 1_555
O4C Co1A 1_555 1_555
O4 Co1B_2 1_555 1_555
N2 C7 1_555 1_555
C5 C6 1_555 1_555
C8 C9 1_555 1_555
C15 C16 1_555 1_555
C21 C22 1_555 1_555
C23 C24 1_555 1_555
C1A C2A 1_555 1_555
C5A C6A 1_555 1_555
C8A C9A 1_555 1_555
O4A Co1C 1_555 1_555
C15A C16A 1_555 1_555
C21A C22A 1_555 1_555
C23A C24A 1_555 1_555
Co1_2 Co1B 1_555 1_555
Co1A_2 Co1C_2 1_555 1_555

#END
