
#######################################################################
#
#                 Cambridge Crystallographic Data Centre
#                                CCDC 
#
#######################################################################
#
# If this CIF has been generated from an entry in the Cambridge 
# Structural Database, then it will include bibliographic, chemical, 
# crystal, experimental, refinement or atomic coordinate data resulting 
# from the CCDC's data processing and validation procedures.
#
#######################################################################

data_JUJTAL
_symmetry_cell_setting           triclinic
_symmetry_space_group_name_H-M   'P -1'
_symmetry_Int_Tables_number      2
_space_group_name_Hall           '-P 1'
loop_
_symmetry_equiv_pos_site_id
_symmetry_equiv_pos_as_xyz
1 x,y,z
2 -x,-y,-z
_cell_length_a                   10.0345(11)
_cell_length_b                   15.2852(17)
_cell_length_c                   18.421(2)
_cell_angle_alpha                67.732(2)
_cell_angle_beta                 87.024(2)
_cell_angle_gamma                77.361(2)
_cell_volume                     2549.82
loop_
_atom_site_label
_atom_site_type_symbol
_atom_site_fract_x
_atom_site_fract_y
_atom_site_fract_z
O1 O 0.8057(7) 0.0404(5) 0.1725(4)
Co1 Co 0.86172(4) -0.01960(3) 0.43287(2)
Co2 Co 0.5000 0.0000 1.0000
O2 O 0.5396(2) 0.00079(18) 0.88880(13)
O3 O 0.8640(2) -0.03152(19) 0.54522(13)
O4 O 0.2545(2) 0.01434(19) 0.66944(14)
O5 O 0.9591(2) 0.01956(18) 0.62334(14)
O6 O 0.3545(2) 0.0084(2) 0.56305(14)
O7 O 0.7102(3) -0.0455(2) 1.03081(16)
H1 H 0.7231 -0.0892 1.0780
H2 H 0.7435 0.0029 1.0293
O8 O 0.6067(3) 0.4766(2) 0.76039(17)
N1 N 0.9184(3) 0.8242(2) -0.52898(16)
N2 N 0.8260(3) 0.1360(2) 0.38262(17)
O9 O 0.6672(3) 0.4431(2) 0.14981(18)
O10 O 1.1092(4) 0.4718(2) -0.33633(18)
N3 N 0.4982(4) 0.3564(2) 0.77143(17)
H3 H 0.4507 0.3368 0.7448
C1 C 0.6142(3) -0.0082(2) 0.62218(18)
H4 H 0.6080 -0.0090 0.5717
N4 N 0.5177(3) 0.1507(2) 0.95772(17)
O11 O 0.7583(3) -0.0744(3) 0.89716(17)
N5 N 0.9574(3) 0.6118(2) -0.34796(18)
H5 H 0.9019 0.6398 -0.3215
C2 C 0.7405(3) -0.0122(2) 0.65305(19)
N6 N 0.8446(3) 0.3137(2) 0.18551(18)
H6 H 0.9153 0.2826 0.1692
C3 C 0.7505(4) -0.0184(3) 0.7295(2)
H7 H 0.8361 -0.0234 0.7509
C4 C 0.4975(3) -0.0029(2) 0.66583(19)
C5 C 0.4406(4) 0.4868(3) 0.5202(2)
C6 C 0.8637(3) -0.0082(2) 0.60321(18)
C7 C 0.8528(4) 0.4830(3) -0.1131(2)
C8 C 0.6358(4) -0.0174(3) 0.7751(2)
C9 C 0.4386(4) 0.4612(3) 0.6028(2)
H8 H 0.3611 0.4428 0.6300
C10 C 0.5472(4) 0.4630(3) 0.6431(2)
C11 C 0.9186(4) 0.7642(3) -0.4538(2)
H9 H 0.8872 0.7912 -0.4163
C12 C 0.5527(4) 0.4346(3) 0.7306(2)
C13 C 0.8063(4) 0.4216(3) 0.0477(2)
C14 C 0.3612(3) 0.0075(3) 0.63093(19)
C15 C 0.7026(4) 0.4846(3) -0.0075(2)
H10 H 0.6169 0.5072 0.0097
C16 C 0.9624(4) 0.6652(3) -0.4283(2)
C17 C 0.5083(4) -0.0058(3) 0.7419(2)
H11 H 0.4293 0.0002 0.7709
C18 C 0.7251(4) 0.5130(3) -0.0854(2)
H12 H 0.6537 0.5535 -0.1216
C19 C 0.8484(4) 0.1792(3) 0.3065(2)
H13 H 0.8882 0.1398 0.2790
C20 C 0.8790(4) 0.5137(3) -0.1939(2)
H14 H 0.8083 0.5544 -0.2305
C21 C 0.6465(4) -0.0304(3) 0.8598(2)
C22 C 0.6694(4) 0.5164(3) 0.5232(2)
H15 H 0.7478 0.5347 0.4971
C23 C 0.7725(4) 0.1934(3) 0.4216(2)
H16 H 0.7566 0.1647 0.4753
C24 C 0.5023(4) 0.2084(3) 0.8818(2)
H17 H 0.4836 0.1822 0.8458
C25 C 0.9595(4) 0.4211(3) -0.0579(2)
C26 C 0.5124(4) 0.3048(3) 0.8530(2)
C27 C 0.8169(4) 0.2777(3) 0.2658(2)
C28 C 1.0037(4) 0.4860(3) -0.2201(2)
C29 C 0.7664(4) 0.3947(3) 0.1319(2)
C30 C 0.6635(4) 0.4935(3) 0.6017(2)
H18 H 0.7366 0.4978 0.6292
C31 C 1.0297(5) 0.5206(3) -0.3062(3)
C32 C 0.7614(4) 0.3364(3) 0.3064(2)
H19 H 0.7389 0.4041 0.2809
C33 C 0.5354(5) 0.3444(3) 0.9059(2)
H20 H 0.5378 0.4102 0.8894
C34 C 0.9319(4) 0.3911(3) 0.0226(2)
H21 H 1.0012 0.3492 0.0598
C35 C 0.9622(4) 0.7848(3) -0.5818(2)
H22 H 0.9636 0.8257 -0.6348
C36 C 1.0050(5) 0.6246(3) -0.4840(3)
H23 H 1.0326 0.5572 -0.4693
C37 C 0.7402(5) 0.2922(3) 0.3856(2)
H24 H 0.7035 0.3301 0.4148
C38 C 1.0053(5) 0.6865(3) -0.5615(2)
H25 H 1.0349 0.6614 -0.6003
C39 C 1.1091(4) 0.4228(3) -0.1651(3)
H26 H 1.1950 0.4018 -0.1829
C40 C 0.5549(6) 0.2842(3) 0.9836(3)
H27 H 0.5745 0.3086 1.0208
C41 C 0.5460(5) 0.1893(3) 1.0078(2)
H28 H 0.5602 0.1499 1.0614
C42 C 1.0878(4) 0.3923(3) -0.0871(3)
H29 H 1.1597 0.3510 -0.0516
O8A O 0.3933(3) 0.5234(2) 0.23961(17)
N3A N 0.5018(4) 0.6436(2) 0.22857(17)
H3A H 0.5493 0.6632 0.2552
N4A N 0.4823(3) 0.8493(2) 0.04228(17)
C5A C 0.5594(4) 0.5132(3) 0.4798(2)
C9A C 0.5614(4) 0.5388(3) 0.3972(2)
H8A H 0.6389 0.5572 0.3700
C10A C 0.4528(4) 0.5370(3) 0.3569(2)
C12A C 0.4473(4) 0.5654(3) 0.2694(2)
C22A C 0.3306(4) 0.4836(3) 0.4768(2)
H15A H 0.2522 0.4653 0.5029
C24A C 0.4977(4) 0.7916(3) 0.1182(2)
H17A H 0.5164 0.8178 0.1542
C26A C 0.4876(4) 0.6952(3) 0.1470(2)
C30A C 0.3365(4) 0.5065(3) 0.3983(2)
H18A H 0.2634 0.5022 0.3708
C33A C 0.4646(5) 0.6556(3) 0.0941(2)
H20A H 0.4622 0.5898 0.1106
C40A C 0.4451(6) 0.7158(3) 0.0164(3)
H27A H 0.4255 0.6914 -0.0208
C41A C 0.4540(5) 0.8107(3) -0.0078(2)
H28A H 0.4398 0.8501 -0.0614
Co1A Co 0.13828(4) 0.01960(3) 0.56713(2)
O2A O 0.4604(2) -0.00079(18) 0.11120(13)
O3A O 0.1360(2) 0.03152(19) 0.45478(13)
O4A O 0.7455(2) -0.01434(19) 0.33056(14)
O5A O 0.0409(2) -0.01956(18) 0.37666(14)
O6A O 0.6455(2) -0.0084(2) 0.43695(14)
N1A N 0.0816(3) -0.8242(2) 1.52898(16)
N2A N 0.1740(3) -0.1360(2) 0.61738(17)
O9A O 0.3328(3) -0.4431(2) 0.85019(18)
O10A O -0.1092(4) -0.4718(2) 1.33633(18)
C1A C 0.3858(3) 0.0082(2) 0.37782(18)
H4A H 0.3920 0.0090 0.4283
O11A O 0.2417(3) 0.0744(3) 0.10284(17)
N5A N 0.0426(3) -0.6118(2) 1.34796(18)
H5A H 0.0981 -0.6398 1.3215
C2A C 0.2595(3) 0.0122(2) 0.34695(19)
N6A N 0.1554(3) -0.3137(2) 0.81449(18)
H6A H 0.0847 -0.2826 0.8308
C3A C 0.2495(4) 0.0184(3) 0.2705(2)
H7A H 0.1639 0.0234 0.2491
C4A C 0.5025(3) 0.0029(2) 0.33417(19)
C6A C 0.1363(3) 0.0082(2) 0.39679(18)
C7A C 0.1472(4) -0.4830(3) 1.1131(2)
C8A C 0.3642(4) 0.0174(3) 0.2249(2)
C11A C 0.0814(4) -0.7642(3) 1.4538(2)
H9A H 0.1128 -0.7912 1.4163
C13A C 0.1937(4) -0.4216(3) 0.9523(2)
C14A C 0.6388(3) -0.0075(3) 0.36907(19)
C15A C 0.2974(4) -0.4846(3) 1.0075(2)
H10A H 0.3831 -0.5072 0.9903
C16A C 0.0376(4) -0.6652(3) 1.4283(2)
C17A C 0.4917(4) 0.0058(3) 0.2581(2)
H11A H 0.5707 -0.0002 0.2291
C18A C 0.2749(4) -0.5130(3) 1.0854(2)
H12A H 0.3463 -0.5535 1.1216
C19A C 0.1516(4) -0.1792(3) 0.6935(2)
H13A H 0.1118 -0.1398 0.7210
C20A C 0.1210(4) -0.5137(3) 1.1939(2)
H14A H 0.1917 -0.5544 1.2305
C21A C 0.3535(4) 0.0304(3) 0.1402(2)
C23A C 0.2275(4) -0.1934(3) 0.5784(2)
H16A H 0.2434 -0.1647 0.5247
C25A C 0.0405(4) -0.4211(3) 1.0579(2)
C27A C 0.1831(4) -0.2777(3) 0.7342(2)
C28A C -0.0037(4) -0.4860(3) 1.2201(2)
C29A C 0.2336(4) -0.3947(3) 0.8681(2)
C31A C -0.0297(5) -0.5206(3) 1.3062(3)
C32A C 0.2386(4) -0.3364(3) 0.6936(2)
H19A H 0.2611 -0.4041 0.7191
C34A C 0.0681(4) -0.3911(3) 0.9774(2)
H21A H -0.0012 -0.3492 0.9402
C35A C 0.0378(4) -0.7848(3) 1.5818(2)
H22A H 0.0364 -0.8257 1.6348
C36A C -0.0050(5) -0.6246(3) 1.4840(3)
H23A H -0.0326 -0.5572 1.4693
C37A C 0.2598(5) -0.2922(3) 0.6144(2)
H24A H 0.2965 -0.3301 0.5852
C38A C -0.0053(5) -0.6865(3) 1.5615(2)
H25A H -0.0349 -0.6614 1.6003
C39A C -0.1091(4) -0.4228(3) 1.1651(3)
H26A H -0.1950 -0.4018 1.1829
C42A C -0.0878(4) -0.3923(3) 1.0871(3)
H29A H -0.1597 -0.3510 1.0516
O7A O 0.2898(3) 0.0455(2) 0.96919(16)
H1A H 0.2769 0.0892 0.9220
H2A H 0.2565 -0.0029 0.9707
Co1_2 Co -0.13828(4) -0.01960(3) 0.43287(2)
Co1_3 Co 0.86172(4) 0.98040(3) -0.56713(2)
Co1A_2 Co 0.13828(4) -0.98040(3) 1.56713(2)
Co1A_3 Co 1.13828(4) 0.01960(3) 0.56713(2)
Co2_2 Co 0.5000 0.0000 0.0000
Co2_3 Co 0.5000 1.0000 0.0000
O2A_2 O 0.4604(2) -0.00079(18) 1.11120(13)
O5_2 O -0.0409(2) 0.01956(18) 0.62334(14)
O5A_2 O 1.0409(2) -0.01956(18) 0.37666(14)
N1_2 N 0.9184(3) -0.1758(2) 0.47102(16)
N1A_2 N 0.0816(3) 0.1758(2) 0.52898(16)
N4A_2 N 0.4823(3) -0.1507(2) 1.04228(17)
O12 O 0.1579(3) 0.2555(2) 0.27302(17)
N7 N 0.3824(4) 0.2514(2) 0.2472(2)
C43 C 0.2568(4) 0.2486(3) 0.2316(2)
H30 H 0.2416 0.2407 0.1848
C44 C 0.4932(5) 0.2455(4) 0.1944(3)
H31 H 0.4593 0.2398 0.1484
H32 H 0.5647 0.1892 0.2209
H33 H 0.5299 0.3034 0.1786
C45 C 0.4155(5) 0.2615(4) 0.3196(3)
H34 H 0.4253 0.3272 0.3078
H35 H 0.5005 0.2166 0.3429
H36 H 0.3427 0.2475 0.3561
O13 O 0.3988(4) 0.2365(2) 0.70878(17)
N8 N 0.4754(4) 0.2385(3) 0.5898(2)
C46 C 0.3826(5) 0.2341(3) 0.6433(3)
H37 H 0.2959 0.2286 0.6309
C47 C 0.6145(5) 0.2419(3) 0.6049(3)
H38 H 0.6365 0.3006 0.5667
H39 H 0.6771 0.1860 0.6006
H40 H 0.6228 0.2413 0.6573
C48 C 0.4424(6) 0.2361(4) 0.5143(2)
H41 H 0.4906 0.1754 0.5112
H42 H 0.4698 0.2895 0.4721
H43 H 0.3447 0.2419 0.5095
O14 O 0.9859(4) 0.1638(3) 0.1335(2)
H44 H 1.0642 0.1477 0.1166
H45 H 0.9305 0.1354 0.1225
O15 O 0.2004(5) 0.1702(5) 0.8158(3)
N9 N -0.1151(7) 0.1904(6) 0.8591(5)
C49 C -0.1034(15) 0.1708(11) 0.9414(9)
H46 H -0.0076 0.1538 0.9575
H47 H -0.1464 0.1175 0.9709
H48 H -0.1482 0.2280 0.9514
C50 C -0.1227(17) 0.1248(13) 0.8267(10)
H49 H -0.1645 0.1585 0.7744
H50 H -0.1776 0.0804 0.8590
H51 H -0.0316 0.0888 0.8237
C51 C -0.1225(12) 0.2772(10) 0.8059(8)
H52 H -0.1128 0.3290 0.8194
O16 O -0.1427(13) 0.2884(9) 0.7372(8)
loop_
_geom_bond_atom_site_label_1
_geom_bond_atom_site_label_2
_geom_bond_site_symmetry_1
_geom_bond_site_symmetry_2
Co1 O3 1_555 1_555
Co2 O2 1_555 1_555
O2 C21 1_555 1_555
O3 C6 1_555 1_555
O4 C14 1_555 1_555
O5 C6 1_555 1_555
O6 C14 1_555 1_555
O7 Co2 1_555 1_555
H1 O7 1_555 1_555
H2 O7 1_555 1_555
O8 C12 1_555 1_555
N1 C11 1_555 1_555
N2 Co1 1_555 1_555
O9 C29 1_555 1_555
O10 C31 1_555 1_555
N3 H3 1_555 1_555
C1 H4 1_555 1_555
N4 Co2 1_555 1_555
O11 C21 1_555 1_555
N5 H5 1_555 1_555
C2 C1 1_555 1_555
N6 H6 1_555 1_555
C3 C2 1_555 1_555
H7 C3 1_555 1_555
C4 C1 1_555 1_555
C5 C9 1_555 1_555
C6 C2 1_555 1_555
C7 C18 1_555 1_555
C8 C3 1_555 1_555
C9 H8 1_555 1_555
C10 C9 1_555 1_555
C11 H9 1_555 1_555
C12 N3 1_555 1_555
C13 C15 1_555 1_555
C14 C4 1_555 1_555
C15 H10 1_555 1_555
C16 N5 1_555 1_555
C17 C4 1_555 1_555
H11 C17 1_555 1_555
C18 C15 1_555 1_555
H12 C18 1_555 1_555
C19 N2 1_555 1_555
H13 C19 1_555 1_555
C20 C7 1_555 1_555
H14 C20 1_555 1_555
C21 C8 1_555 1_555
C22 H15 1_555 1_555
C23 N2 1_555 1_555
H16 C23 1_555 1_555
C24 N4 1_555 1_555
H17 C24 1_555 1_555
C25 C7 1_555 1_555
C26 N3 1_555 1_555
C27 N6 1_555 1_555
C28 C20 1_555 1_555
C29 N6 1_555 1_555
C30 C10 1_555 1_555
H18 C30 1_555 1_555
C31 N5 1_555 1_555
C32 C27 1_555 1_555
H19 C32 1_555 1_555
C33 C26 1_555 1_555
H20 C33 1_555 1_555
C34 C13 1_555 1_555
H21 C34 1_555 1_555
C35 N1 1_555 1_555
H22 C35 1_555 1_555
C36 C16 1_555 1_555
H23 C36 1_555 1_555
C37 C23 1_555 1_555
H24 C37 1_555 1_555
C38 C35 1_555 1_555
H25 C38 1_555 1_555
C39 C28 1_555 1_555
H26 C39 1_555 1_555
C40 C33 1_555 1_555
H27 C40 1_555 1_555
C41 N4 1_555 1_555
H28 C41 1_555 1_555
C42 C25 1_555 1_555
H29 C42 1_555 1_555
O12 C43 1_555 1_555
N7 C43 1_555 1_555
C43 H30 1_555 1_555
C44 N7 1_555 1_555
H31 C44 1_555 1_555
H32 C44 1_555 1_555
H33 C44 1_555 1_555
C45 N7 1_555 1_555
H34 C45 1_555 1_555
H35 C45 1_555 1_555
H36 C45 1_555 1_555
O13 C46 1_555 1_555
N8 C46 1_555 1_555
C46 H37 1_555 1_555
C47 N8 1_555 1_555
H38 C47 1_555 1_555
H39 C47 1_555 1_555
H40 C47 1_555 1_555
C48 N8 1_555 1_555
H41 C48 1_555 1_555
H42 C48 1_555 1_555
H43 C48 1_555 1_555
O14 H44 1_555 1_555
H45 O14 1_555 1_555
N9 C49 1_555 1_555
C49 H46 1_555 1_555
H47 C49 1_555 1_555
H48 C49 1_555 1_555
C50 N9 1_555 1_555
H49 C50 1_555 1_555
H50 C50 1_555 1_555
H51 C50 1_555 1_555
C51 N9 1_555 1_555
H52 C51 1_555 1_555
O16 C51 1_555 1_555
O8A C12A 1_555 1_555
N3A H3A 1_555 1_555
N4A C24A 1_555 1_555
C5A C5 1_555 1_555
C9A C5A 1_555 1_555
H8A C9A 1_555 1_555
C10A C9A 1_555 1_555
C12A N3A 1_555 1_555
C22A C5 1_555 1_555
H15A C22A 1_555 1_555
C24A H17A 1_555 1_555
C26A N3A 1_555 1_555
C30A C10A 1_555 1_555
H18A C30A 1_555 1_555
C33A C26A 1_555 1_555
H20A C33A 1_555 1_555
C40A C33A 1_555 1_555
H27A C40A 1_555 1_555
C41A N4A 1_555 1_555
H28A C41A 1_555 1_555
Co1A O4 1_555 1_555
O2A C21A 1_555 1_555
O3A Co1A 1_555 1_555
O4A Co1 1_555 1_555
O5A C6A 1_555 1_555
O6A Co1 1_555 1_555
N1A C11A 1_555 1_555
N2A Co1A 1_555 1_555
O9A C29A 1_555 1_555
O10A C31A 1_555 1_555
C1A H4A 1_555 1_555
O11A C21A 1_555 1_555
N5A H5A 1_555 1_555
C2A C1A 1_555 1_555
N6A H6A 1_555 1_555
C3A C2A 1_555 1_555
H7A C3A 1_555 1_555
C4A C1A 1_555 1_555
C6A O3A 1_555 1_555
C7A C18A 1_555 1_555
C8A C3A 1_555 1_555
C11A H9A 1_555 1_555
C13A C15A 1_555 1_555
C14A O4A 1_555 1_555
C15A H10A 1_555 1_555
C16A N5A 1_555 1_555
C17A C4A 1_555 1_555
H11A C17A 1_555 1_555
C18A C15A 1_555 1_555
H12A C18A 1_555 1_555
C19A N2A 1_555 1_555
H13A C19A 1_555 1_555
C20A C7A 1_555 1_555
H14A C20A 1_555 1_555
C21A C8A 1_555 1_555
C23A N2A 1_555 1_555
H16A C23A 1_555 1_555
C25A C7A 1_555 1_555
C27A N6A 1_555 1_555
C28A C20A 1_555 1_555
C29A N6A 1_555 1_555
C31A N5A 1_555 1_555
C32A C27A 1_555 1_555
H19A C32A 1_555 1_555
C34A C13A 1_555 1_555
H21A C34A 1_555 1_555
C35A N1A 1_555 1_555
H22A C35A 1_555 1_555
C36A C16A 1_555 1_555
H23A C36A 1_555 1_555
C37A C23A 1_555 1_555
H24A C37A 1_555 1_555
C38A C35A 1_555 1_555
H25A C38A 1_555 1_555
C39A C28A 1_555 1_555
H26A C39A 1_555 1_555
C42A C25A 1_555 1_555
H29A C42A 1_555 1_555
O7A Co2 1_555 1_555
H1A O7A 1_555 1_555
H2A O7A 1_555 1_555
Co1_2 O5A 1_555 1_555
Co1_3 N1 1_555 1_555
Co1A_2 N1A 1_555 1_555
Co1A_3 O5 1_555 1_555
Co2_2 O2A 1_555 1_555
Co2_3 N4A 1_555 1_555
O2A_2 Co2 1_555 1_555
O5_2 Co1A 1_555 1_555
O5A_2 Co1 1_555 1_555
N1_2 Co1 1_555 1_555
N1A_2 Co1A 1_555 1_555
N4A_2 Co2 1_555 1_555
O6 Co1A 1_555 1_555
C8 C17 1_555 1_555
C10 C12 1_555 1_555
C11 C16 1_555 1_555
C13 C29 1_555 1_555
C19 C27 1_555 1_555
C22 C30 1_555 1_555
C22 C5A 1_555 1_555
C24 C26 1_555 1_555
C25 C34 1_555 1_555
C28 C31 1_555 1_555
C32 C37 1_555 1_555
C36 C38 1_555 1_555
C39 C42 1_555 1_555
C40 C41 1_555 1_555
C10A C12A 1_555 1_555
C22A C30A 1_555 1_555
C24A C26A 1_555 1_555
C40A C41A 1_555 1_555
O6A C14A 1_555 1_555
C2A C6A 1_555 1_555
C4A C14A 1_555 1_555
C8A C17A 1_555 1_555
C11A C16A 1_555 1_555
C13A C29A 1_555 1_555
C19A C27A 1_555 1_555
C25A C34A 1_555 1_555
C28A C31A 1_555 1_555
C32A C37A 1_555 1_555
C36A C38A 1_555 1_555
C39A C42A 1_555 1_555

#END
