
#######################################################################
#
#                 Cambridge Crystallographic Data Centre
#                                CCDC 
#
#######################################################################
#
# If this CIF has been generated from an entry in the Cambridge 
# Structural Database, then it will include bibliographic, chemical, 
# crystal, experimental, refinement or atomic coordinate data resulting 
# from the CCDC's data processing and validation procedures.
#
#######################################################################

data_JUNBOL
_symmetry_cell_setting           monoclinic
_symmetry_space_group_name_H-M   'P 21/c'
_symmetry_Int_Tables_number      14
_space_group_name_Hall           '-P 2ybc'
loop_
_symmetry_equiv_pos_site_id
_symmetry_equiv_pos_as_xyz
1 x,y,z
2 -x,1/2+y,1/2-z
3 -x,-y,-z
4 x,1/2-y,1/2+z
_cell_length_a                   13.926(6)
_cell_length_b                   16.590(7)
_cell_length_c                   16.181(7)
_cell_angle_alpha                90
_cell_angle_beta                 110.296(7)
_cell_angle_gamma                90
_cell_volume                     3506.23
loop_
_atom_site_label
_atom_site_type_symbol
_atom_site_fract_x
_atom_site_fract_y
_atom_site_fract_z
Cd1 Cd 0.291522(18) 0.499074(14) 0.142024(15)
Cd2 Cd 0.418914(18) 0.504161(13) 0.373505(14)
O1 O 1.26894(16) 0.57761(14) 0.31720(15)
O2 O 1.16677(17) 0.55185(16) 0.17982(15)
O3 O 0.83909(18) 0.62677(17) 0.36021(15)
O4 O 0.69717(18) 0.90443(14) 0.23198(16)
O5 O 0.54441(18) 0.87243(14) 0.13729(15)
O6 O 0.4761(2) 0.51847(14) 0.25054(17)
O7 O 0.38976(19) 0.61400(16) 0.16068(16)
O8 O 0.34638(18) 0.39060(15) 0.08587(16)
O9 O 0.17953(18) 0.39858(15) 0.05386(17)
O10 O 0.49016(17) 0.11780(14) 0.08315(15)
O11 O 0.3929(2) 0.01991(14) 0.00380(15)
O12 O 0.03597(17) 0.14084(16) -0.10090(15)
O13 O -0.0658(2) 0.0920(3) -0.50861(18)
H1 H -0.0955 0.0821 -0.5609
O14 O -0.22023(19) 0.06690(18) -0.50173(16)
C1 C 1.1810(3) 0.57138(19) 0.2587(2)
C2 C 1.0985(3) 0.5962(2) 0.3709(2)
H2 H 1.1626 0.5912 0.4145
C3 C 1.0144(3) 0.6098(2) 0.3950(2)
H3 H 1.0214 0.6128 0.4542
C4 C 0.9200(3) 0.6187(2) 0.3305(2)
C5 C 0.9093(3) 0.6148(2) 0.2426(2)
H4 H 0.8454 0.6224 0.1993
C6 C 0.9936(3) 0.5997(2) 0.2191(2)
H5 H 0.9863 0.5959 0.1598
C7 C 1.0900(2) 0.5899(2) 0.2836(2)
C8 C 0.7454(3) 0.6568(2) 0.3037(2)
C9 C 0.7370(2) 0.7369(2) 0.2779(2)
H6 H 0.7944 0.7701 0.2945
C10 C 0.6418(2) 0.7669(2) 0.2271(2)
C11 C 0.5571(2) 0.7170(2) 0.2054(2)
H7 H 0.4935 0.7368 0.1705
C12 C 0.5657(2) 0.6375(2) 0.2350(2)
C13 C 0.6613(3) 0.6069(2) 0.2840(2)
H8 H 0.6685 0.5536 0.3031
C14 C 0.6280(3) 0.8536(2) 0.1980(2)
C15 C 0.4710(3) 0.5872(2) 0.2149(2)
C16 C 0.2575(3) 0.3621(2) 0.0527(2)
C17 C 0.2444(2) 0.2791(2) 0.0135(2)
C18 C 0.1468(2) 0.2493(2) -0.0324(2)
H9 H 0.0898 0.2823 -0.0435
C19 C 0.1355(3) 0.1704(2) -0.0613(2)
C20 C 0.2191(3) 0.1192(2) -0.0439(2)
H10 H 0.2103 0.0661 -0.0635
C21 C 0.3162(2) 0.14870(19) 0.00342(19)
C22 C 0.3287(2) 0.2287(2) 0.0307(2)
H11 H 0.3940 0.2486 0.0606
C23 C 0.4054(3) 0.0923(2) 0.0307(2)
C24 C -0.0002(3) 0.1286(2) -0.1912(2)
C25 C -0.1025(3) 0.1078(3) -0.2283(2)
H12 H -0.1428 0.1029 -0.1931
C26 C -0.1438(3) 0.0947(3) -0.3172(2)
H13 H -0.2124 0.0803 -0.3422
C27 C -0.0851(3) 0.1025(2) -0.3706(2)
C28 C 0.0174(3) 0.1217(3) -0.3321(2)
H14 H 0.0583 0.1254 -0.3667
C29 C 0.0593(3) 0.1356(3) -0.2427(2)
H15 H 0.1280 0.1497 -0.2173
C30 C -0.1306(3) 0.0857(2) -0.4659(2)
Cd1_2 Cd 1.291522(18) 0.499074(14) 0.142024(15)
Cd1A Cd -0.291522(18) -0.000926(14) -0.642024(15)
Cd1A_2 Cd 0.708478(18) 0.999074(14) 0.357976(15)
Cd2_2 Cd 1.418914(18) 0.504161(13) 0.373505(14)
Cd2A Cd 0.581086(18) 0.004161(13) 0.126495(14)
Cd2A_2 Cd 0.581086(18) 1.004161(13) 0.126495(14)
Cd2C Cd 0.418914(18) -0.004161(13) -0.126495(14)
O1_2 O 0.26894(16) 0.57761(14) 0.31720(15)
O2_2 O 0.16677(17) 0.55185(16) 0.17982(15)
O4A O 0.30283(18) 0.40443(14) 0.26802(16)
O5A O 0.45559(18) 0.37243(14) 0.36271(15)
O10A O 0.50984(17) 0.61780(14) 0.41685(15)
O11A O 0.6071(2) 0.51991(14) 0.49620(15)
O11C O 0.3929(2) 0.48009(14) 0.50380(15)
O14A O 0.22023(19) 0.56690(18) 0.00173(16)
N1 N 0.6692(3) 0.2402(2) 0.1761(2)
N2 N 0.5873(2) 0.33868(17) 0.09813(19)
C31 C 0.5888(3) 0.3513(3) 0.1834(2)
H16 H 0.5597 0.3942 0.2034
C32 C 0.6407(3) 0.2894(3) 0.2307(3)
H17 H 0.6549 0.2813 0.2907
C33 C 0.6499(4) 0.2339(3) 0.0165(3)
H18 H 0.5859 0.2120 -0.0212
H19 H 0.6998 0.1915 0.0349
H20 H 0.6730 0.2741 -0.0149
C34 C 0.5318(3) 0.3884(2) 0.0193(2)
H21 H 0.4613 0.3702 -0.0050
H22 H 0.5629 0.3803 -0.0251
C35 C 0.5331(3) 0.4767(2) 0.0402(2)
H23 H 0.6029 0.4967 0.0585
H24 H 0.5078 0.4848 0.0883
C36 C 0.6360(3) 0.2708(2) 0.0949(3)
H25 H 0.704(3) 0.192(3) 0.190(3)
N1B N 0.3308(3) 0.7598(2) -0.1761(2)
N2B N 0.4127(2) 0.66132(17) -0.09813(19)
C31B C 0.4112(3) 0.6487(3) -0.1834(2)
H16B H 0.4403 0.6058 -0.2034
C32B C 0.3593(3) 0.7106(3) -0.2307(3)
H17B H 0.3451 0.7187 -0.2907
C33B C 0.3501(4) 0.7661(3) -0.0165(3)
H18B H 0.4141 0.7880 0.0212
H19B H 0.3002 0.8085 -0.0349
H20B H 0.3270 0.7259 0.0149
C34B C 0.4682(3) 0.6116(2) -0.0193(2)
H21B H 0.5387 0.6298 0.0050
H22B H 0.4371 0.6197 0.0251
C35B C 0.4669(3) 0.5233(2) -0.0402(2)
H23B H 0.3971 0.5033 -0.0585
H24B H 0.4922 0.5152 -0.0883
C36B C 0.3640(3) 0.7292(2) -0.0949(3)
H25B H 0.296(3) 0.808(3) -0.190(3)
O15 O 0.3016(8) -0.0829(6) 0.1017(6)
loop_
_geom_bond_atom_site_label_1
_geom_bond_atom_site_label_2
_geom_bond_site_symmetry_1
_geom_bond_site_symmetry_2
Cd1 O6 1_555 1_555
Cd2 O6 1_555 1_555
O1 C1 1_555 1_555
O2 C1 1_555 1_555
O3 C4 1_555 1_555
O4 C14 1_555 1_555
O5 C14 1_555 1_555
O6 C15 1_555 1_555
O7 Cd1 1_555 1_555
O8 Cd1 1_555 1_555
O9 Cd1 1_555 1_555
O10 C23 1_555 1_555
O11 C23 1_555 1_555
O12 C19 1_555 1_555
O13 H1 1_555 1_555
O14 C30 1_555 1_555
C1 C7 1_555 1_555
C2 H2 1_555 1_555
C3 C2 1_555 1_555
H3 C3 1_555 1_555
C4 C3 1_555 1_555
C5 C4 1_555 1_555
H4 C5 1_555 1_555
C6 C5 1_555 1_555
H5 C6 1_555 1_555
C7 C2 1_555 1_555
C8 O3 1_555 1_555
C9 C8 1_555 1_555
H6 C9 1_555 1_555
C10 C9 1_555 1_555
C11 C10 1_555 1_555
H7 C11 1_555 1_555
C12 C11 1_555 1_555
C13 C8 1_555 1_555
H8 C13 1_555 1_555
C14 C10 1_555 1_555
C15 O7 1_555 1_555
C16 O8 1_555 1_555
C17 C16 1_555 1_555
C18 C17 1_555 1_555
H9 C18 1_555 1_555
C19 C18 1_555 1_555
C20 C19 1_555 1_555
H10 C20 1_555 1_555
C21 C20 1_555 1_555
C22 C17 1_555 1_555
H11 C22 1_555 1_555
C23 C21 1_555 1_555
C24 O12 1_555 1_555
C25 C24 1_555 1_555
H12 C25 1_555 1_555
C26 C25 1_555 1_555
H13 C26 1_555 1_555
C27 C26 1_555 1_555
C28 C27 1_555 1_555
H14 C28 1_555 1_555
C29 C24 1_555 1_555
H15 C29 1_555 1_555
C30 O13 1_555 1_555
N1 C32 1_555 1_555
N2 C31 1_555 1_555
C31 H16 1_555 1_555
C32 C31 1_555 1_555
H17 C32 1_555 1_555
C33 H18 1_555 1_555
H19 C33 1_555 1_555
H20 C33 1_555 1_555
C34 N2 1_555 1_555
H21 C34 1_555 1_555
H22 C34 1_555 1_555
C35 C34 1_555 1_555
H23 C35 1_555 1_555
H24 C35 1_555 1_555
C36 N1 1_555 1_555
H25 N1 1_555 1_555
Cd1_2 O2 1_555 1_555
Cd1A O14 1_555 1_555
Cd1A_2 O4 1_555 1_555
Cd2_2 O1 1_555 1_555
Cd2A O10 1_555 1_555
Cd2A_2 O4 1_555 1_555
Cd2C O11 1_555 1_555
O1_2 Cd2 1_555 1_555
O2_2 Cd1 1_555 1_555
O4A Cd1 1_555 1_555
O5A Cd2 1_555 1_555
O10A Cd2 1_555 1_555
O11A Cd2 1_555 1_555
O11C Cd2 1_555 1_555
O14A Cd1 1_555 1_555
N1B C32B 1_555 1_555
N2B C31B 1_555 1_555
C31B H16B 1_555 1_555
C32B C31B 1_555 1_555
H17B C32B 1_555 1_555
C33B H18B 1_555 1_555
H19B C33B 1_555 1_555
H20B C33B 1_555 1_555
C34B N2B 1_555 1_555
H21B C34B 1_555 1_555
H22B C34B 1_555 1_555
C35B C35 1_555 1_555
H23B C35B 1_555 1_555
H24B C35B 1_555 1_555
C36B N1B 1_555 1_555
H25B N1B 1_555 1_555
Cd2 O4A 1_555 1_555
O5 Cd2A_2 1_555 1_555
O9 C16 1_555 1_555
O11 Cd2A 1_555 1_555
C6 C7 1_555 1_555
C12 C13 1_555 1_555
C12 C15 1_555 1_555
C21 C22 1_555 1_555
C27 C30 1_555 1_555
C28 C29 1_555 1_555
N2 C36 1_555 1_555
C33 C36 1_555 1_555
N2B C36B 1_555 1_555
C33B C36B 1_555 1_555
C34B C35B 1_555 1_555

#END
