
#######################################################################
#
#                 Cambridge Crystallographic Data Centre
#                                CCDC 
#
#######################################################################
#
# If this CIF has been generated from an entry in the Cambridge 
# Structural Database, then it will include bibliographic, chemical, 
# crystal, experimental, refinement or atomic coordinate data resulting 
# from the CCDC's data processing and validation procedures.
#
#######################################################################

data_JUPBUT
_symmetry_cell_setting           triclinic
_symmetry_space_group_name_H-M   'P -1'
_symmetry_Int_Tables_number      2
_space_group_name_Hall           '-P 1'
loop_
_symmetry_equiv_pos_site_id
_symmetry_equiv_pos_as_xyz
1 x,y,z
2 -x,-y,-z
_cell_length_a                   9.6300(4)
_cell_length_b                   10.0916(4)
_cell_length_c                   11.7335(6)
_cell_angle_alpha                87.958(4)
_cell_angle_beta                 67.638(4)
_cell_angle_gamma                68.181(4)
_cell_volume                     971.533
loop_
_atom_site_label
_atom_site_type_symbol
_atom_site_fract_x
_atom_site_fract_y
_atom_site_fract_z
Pr1 Pr 0.29076(3) -0.03733(3) 1.02245(2)
O1 O 0.4765(5) 0.1729(5) 0.1730(4)
O2 O 0.2535(5) 0.1423(5) 0.1836(4)
O3 O 0.5493(6) 0.2798(5) 0.9312(5)
O4 O 0.4422(5) 0.1218(4) 0.9250(4)
O5 O 0.1693(5) 0.7988(5) 1.0000(4)
O6 O -0.0165(5) 0.8612(4) 0.9182(5)
O7 O 0.2129(6) 0.0126(5) 0.8346(5)
H1 H 0.2906 0.0222 0.7737
H2 H 0.1942 -0.0574 0.8149
O8 O 0.1238(7) -0.0826(6) 1.2496(5)
H3 H 0.1802 -0.0964 1.2930
H4 H 0.0356 -0.0093 1.2833
N1 N 0.0948(6) 0.3474(5) 0.6107(5)
C1 C 0.4391(7) 0.2474(6) 0.9182(5)
C2 C 0.3070(6) 0.3633(6) 0.8924(5)
C3 C 0.2239(7) 0.3255(6) 0.8338(5)
C4 C 0.1025(6) 0.4313(6) 0.8085(5)
C5 C 0.0606(7) 0.5761(6) 0.8420(5)
C6 C 0.1432(6) 0.6133(6) 0.9028(5)
C7 C 0.2653(6) 0.5073(6) 0.9287(5)
C8 C 0.0944(7) 0.7694(6) 0.9431(5)
C9 C 0.0071(7) 0.3897(6) 0.7477(5)
C10 C 0.2475(8) 0.3381(8) 0.5471(6)
C11 C 0.3246(8) 0.2890(8) 0.4205(6)
C12 C 0.2467(7) 0.2472(6) 0.3624(5)
C13 C 0.0864(8) 0.2604(8) 0.4287(6)
C14 C 0.0115(8) 0.3121(8) 0.5546(6)
C15 C 0.3364(7) 0.1808(6) 0.2258(5)
Pr1_2 Pr 0.29076(3) -0.03733(3) 0.02245(2)
Pr1_3 Pr 0.29076(3) 0.96267(3) 1.02245(2)
Pr1A Pr -0.29076(3) 1.03733(3) 0.97755(2)
Pr1A_2 Pr 0.70924(3) 0.03733(3) -0.02245(2)
Pr1A_3 Pr 0.70924(3) 0.03733(3) 0.97755(2)
O1A O 0.5235(5) -0.1729(5) 0.8270(4)
O2_2 O 0.2535(5) 0.1423(5) 1.1836(4)
O3A O 0.4507(6) -0.2798(5) 1.0688(5)
O4A O 0.5578(5) -0.1218(4) 1.0750(4)
O5_2 O 0.1693(5) -0.2012(5) 1.0000(4)
O6A O 0.0165(5) 0.1388(4) 1.0818(5)
O9 O 0.339(3) 0.985(2) 0.5709(17)
O10 O 0.205(3) 0.842(3) 0.601(2)
O11 O 0.327(3) 0.887(3) 0.4105(16)
N2 N 0.2901(16) 0.9053(15) 0.5271(15)
O12 O 0.517(3) 0.452(3) 0.588(2)
H5 H 0.4375 0.4882 0.6574
H6 H 0.5945 0.3854 0.5993
O13 O 0.6327(9) 0.4918(8) 0.7829(7)
H7 H 0.5628 0.5041 0.8569
H8 H 0.6424 0.5709 0.7640
loop_
_geom_bond_atom_site_label_1
_geom_bond_atom_site_label_2
_geom_bond_site_symmetry_1
_geom_bond_site_symmetry_2
Pr1 O4 1_555 1_555
O1 C15 1_555 1_555
O2 C15 1_555 1_555
O3 C1 1_555 1_555
O4 C1 1_555 1_555
O5 C8 1_555 1_555
O6 C8 1_555 1_555
O7 Pr1 1_555 1_555
H1 O7 1_555 1_555
H2 O7 1_555 1_555
O8 Pr1 1_555 1_555
H3 O8 1_555 1_555
H4 O8 1_555 1_555
N1 C9 1_555 1_555
C1 C2 1_555 1_555
C2 C3 1_555 1_555
C3 C4 1_555 1_555
C4 C5 1_555 1_555
C5 C6 1_555 1_555
C6 C7 1_555 1_555
C7 C2 1_555 1_555
C8 C6 1_555 1_555
C9 C4 1_555 1_555
C10 N1 1_555 1_555
C11 C10 1_555 1_555
C12 C11 1_555 1_555
C13 C12 1_555 1_555
C14 N1 1_555 1_555
C15 C12 1_555 1_555
O9 N2 1_555 1_555
O10 N2 1_555 1_555
O11 N2 1_555 1_555
O12 H5 1_555 1_555
H6 O12 1_555 1_555
O13 H7 1_555 1_555
H8 O13 1_555 1_555
Pr1_2 O2 1_555 1_555
Pr1_3 O5 1_555 1_555
Pr1A O6 1_555 1_555
Pr1A_2 O1 1_555 1_555
Pr1A_3 O3 1_555 1_555
O1A Pr1 1_555 1_555
O2_2 Pr1 1_555 1_555
O3A Pr1 1_555 1_555
O4A Pr1 1_555 1_555
O5_2 Pr1 1_555 1_555
O6A Pr1 1_555 1_555
O4 Pr1A_3 1_555 1_555
C13 C14 1_555 1_555
Pr1A_3 O4A 1_555 1_555

#END
