
#######################################################################
#
#                 Cambridge Crystallographic Data Centre
#                                CCDC 
#
#######################################################################
#
# If this CIF has been generated from an entry in the Cambridge 
# Structural Database, then it will include bibliographic, chemical, 
# crystal, experimental, refinement or atomic coordinate data resulting 
# from the CCDC's data processing and validation procedures.
#
#######################################################################

data_JUSKAL
_symmetry_cell_setting           triclinic
_symmetry_space_group_name_H-M   'P -1'
_symmetry_Int_Tables_number      2
_space_group_name_Hall           '-P 1'
loop_
_symmetry_equiv_pos_site_id
_symmetry_equiv_pos_as_xyz
1 x,y,z
2 -x,-y,-z
_cell_length_a                   9.0362(15)
_cell_length_b                   17.484(3)
_cell_length_c                   24.772(4)
_cell_angle_alpha                69.717(3)
_cell_angle_beta                 84.873(3)
_cell_angle_gamma                82.904(3)
_cell_volume                     3638.35
loop_
_atom_site_label
_atom_site_type_symbol
_atom_site_fract_x
_atom_site_fract_y
_atom_site_fract_z
Ba1 Ba -0.25147(5) 0.81612(3) 0.68982(2)
Ba2 Ba -0.75168(5) 0.73573(3) 0.76987(2)
O1 O -0.4569(7) 0.7831(5) 0.7887(3)
O2 O -0.3543(7) 0.7110(5) 0.6402(3)
O3 O -0.6490(7) 0.8183(6) 0.8390(4)
O4 O -0.5493(7) 0.7726(4) 0.6730(3)
O5 O 0.5951(7) 0.0176(4) 0.7401(3)
H1 H 0.6801 -0.0032 0.7363
O6 O 0.0985(7) 0.8744(6) 0.8795(4)
H2 H 0.0883 0.8650 0.9143
O7 O -0.1490(7) -0.0573(4) 0.7177(4)
O8 O -0.6034(9) 0.7750(5) 1.1902(3)
O9 O -0.5453(8) 0.6059(5) 0.7788(6)
O10 O -0.4724(14) 0.7012(5) 1.1248(4)
O11 O 0.5451(7) -0.0491(5) 0.6833(4)
O12 O 0.0999(9) 0.0784(5) 0.9570(3)
C1 C -0.4930(10) 0.7265(6) 0.6465(4)
O13 O -0.1064(9) 0.4370(5) 0.5452(3)
O14 O -0.6001(7) 0.4985(4) 0.7600(4)
H3 H -0.6840 0.5232 0.7577
O15 O -0.5998(9) 0.2872(4) 0.6957(3)
C2 C -0.6370(9) 0.5967(5) 0.5699(4)
O16 O -0.4552(12) 0.2066(5) 0.6352(4)
O17 O -0.0368(14) 0.2116(6) 0.9657(4)
C3 C -0.5442(9) 0.4598(6) 0.5587(4)
O18 O 0.0336(12) 0.3038(5) 0.5379(4)
C4 C -0.3657(10) 0.9129(6) 0.9230(4)
C5 C -0.5950(9) 0.6873(6) 0.6211(4)
C6 C -0.5128(10) 0.8130(6) 0.8258(4)
C7 C -0.2146(9) 0.8981(6) 0.9143(4)
H4 H -0.1496 0.9168 0.9329
C8 C 0.2450(9) -0.0338(6) 0.7128(4)
H5 H 0.2832 -0.0778 0.7012
C9 C -0.5417(9) 0.6328(6) 0.5938(4)
H6 H -0.4392 0.6193 0.5909
C10 C 0.0228(9) 0.2501(5) 0.6970(4)
C11 C -0.7896(10) 0.6142(6) 0.5763(4)
H7 H -0.8548 0.5887 0.5626
C12 C -0.4087(9) 0.8417(6) 0.8580(4)
C13 C 0.1342(9) 0.1042(5) 0.7408(4)
C14 C -0.4745(9) 0.9130(6) 1.0204(4)
C15 C -0.5703(9) 0.5464(6) 0.5344(4)
C16 C -0.7479(9) 0.7076(6) 0.6251(4)
H8 H -0.7854 0.7462 0.6421
C17 C -0.0475(9) 0.3253(6) 0.7013(4)
C18 C 0.0908(9) -0.0183(5) 0.7216(4)
C19 C -0.4616(9) 0.8839(6) 0.8950(4)
H9 H -0.5641 0.8931 0.9015
C20 C -0.4562(10) 1.0440(6) 0.9417(4)
C21 C -0.4724(9) 0.4151(5) 0.5238(4)
C22 C -0.0112(9) -0.0749(5) 0.7139(4)
C23 C -0.4315(9) 0.9584(6) 0.9633(4)
C24 C 0.0681(9) 0.1840(5) 0.7475(4)
C25 C -0.2453(10) 0.5689(5) 0.7664(4)
H10 H -0.2822 0.6195 0.7693
C26 C 0.0414(9) 0.1937(5) 0.8015(4)
C27 C -0.2558(10) 0.8277(6) 0.8497(4)
H11 H -0.2181 0.7995 0.8250
C28 C 0.0377(9) 0.0521(5) 0.7340(4)
H12 H -0.0648 0.0649 0.7379
C29 C -0.0938(9) 0.5497(5) 0.7620(4)
C30 C 0.2853(9) 0.0856(5) 0.7353(4)
H13 H 0.3503 0.1193 0.7407
C31 C -0.0279(10) 0.2687(6) 0.8061(4)
C32 C -0.1385(9) 0.4154(5) 0.7606(4)
C33 C -0.0719(9) 0.3343(5) 0.7561(4)
C34 C -0.0404(9) 0.4719(5) 0.7597(4)
H14 H 0.0621 0.4576 0.7575
C35 C -0.8455(9) 0.6707(5) 0.6038(4)
C36 C -0.0676(12) 0.3801(6) 0.5974(5)
C37 C -0.5895(10) 0.4167(6) 0.6175(4)
H15 H -0.6388 0.4457 0.6401
C38 C 0.0056(14) 0.3055(6) 0.5931(5)
C39 C -0.5651(12) 0.8262(7) 1.1350(5)
C40 C -0.5612(11) 0.3344(6) 0.6402(4)
C41 C 0.0512(11) 0.2427(6) 0.6416(4)
H16 H 0.1014 0.1947 0.6381
C42 C -0.4420(11) 0.3268(6) 0.5503(4)
H17 H -0.3934 0.2962 0.5287
C43 C -0.5889(10) 0.9090(6) 1.1153(4)
H18 H -0.6359 0.9356 1.1398
C44 C -0.354(3) 0.1627(9) 0.6070(7)
H19 H -0.3991 0.1597 0.5742
H20 H -0.3285 0.1083 0.6331
H21 H -0.2649 0.1903 0.5943
C45 C 0.0859(10) 0.1291(6) 0.8537(4)
H22 H 0.1332 0.0801 0.8510
C46 C -0.2888(10) 0.4355(6) 0.7642(5)
H23 H -0.3544 0.3980 0.7650
C47 C -0.4502(12) 0.8259(6) 1.0445(5)
H24 H -0.4034 0.7970 1.0214
C48 C 0.5038(9) -0.0083(5) 0.7139(4)
C49 C -0.6700(12) 0.3284(7) 0.7326(5)
H25 H -0.7643 0.3559 0.7179
H26 H -0.6074 0.3679 0.7345
H27 H -0.6858 0.2895 0.7705
C50 C 0.3416(9) 0.0168(5) 0.7216(4)
C51 C -0.0100(15) 0.2102(8) 0.9112(5)
C52 C 0.0622(12) 0.1364(7) 0.9059(5)
C53 C -0.3449(10) 0.5137(6) 0.7667(5)
C54 C 0.1646(12) 0.0015(6) 0.9552(5)
H28 H 0.1012 -0.0191 0.9354
H29 H 0.1759 -0.0362 0.9937
H30 H 0.2607 0.0076 0.9351
C55 C -0.4925(14) 0.7841(7) 1.0991(5)
C56 C -0.0914(10) 0.3893(6) 0.6491(4)
H31 H -0.1378 0.4388 0.6512
C57 C -0.1572(9) 0.8547(7) 0.8774(4)
C58 C 0.0037(10) 0.8365(7) 0.8641(5)
C59 C -0.1744(13) 0.5132(6) 0.5457(5)
H32 H -0.1970 0.5476 0.5072
H33 H -0.1078 0.5386 0.5608
H34 H -0.2650 0.5056 0.5696
C60 C -0.6726(12) 0.8143(7) 1.2289(5)
H35 H -0.7630 0.8462 1.2133
H36 H -0.6059 0.8495 1.2342
H37 H -0.6955 0.7736 1.2654
C61 C -0.0548(12) 0.2751(7) 0.8623(5)
H38 H -0.1028 0.3233 0.8662
C62 C -0.4839(12) 0.2885(6) 0.6064(5)
C63 C -0.5054(10) 0.5427(6) 0.7693(5)
C64 C 0.133(3) 0.2374(11) 0.5320(7)
H39 H 0.1599 0.2474 0.4919
H40 H 0.0850 0.1878 0.5476
H41 H 0.2211 0.2322 0.5524
C65 C -0.371(4) 0.6582(11) 1.0961(9)
H42 H -0.4162 0.6568 1.0628
H43 H -0.3476 0.6033 1.1216
H44 H -0.2819 0.6854 1.0844
O19 O 0.0452(7) -0.1366(4) 0.7026(3)
O20 O -0.0463(7) 0.6845(4) 0.7539(4)
O21 O -1.0989(7) 0.6425(4) 0.6119(3)
H45 H -1.1854 0.6599 0.6173
O22 O -1.0497(7) 0.7614(5) 0.6178(4)
O23 O 0.1464(7) 0.5911(4) 0.7621(4)
O24 O 0.0429(8) 0.7903(7) 0.8386(5)
C66 C 0.0104(10) 0.6122(6) 0.7586(4)
C67 C -1.0076(9) 0.6968(6) 0.6119(4)
C68 C -0.141(3) 0.2695(15) 0.9764(8)
H46 H -0.2345 0.2674 0.9616
H47 H -0.1077 0.3229 0.9578
H48 H -0.1536 0.2586 1.0172
O25 O -0.2509(18) 0.9319(9) 0.5805(6)
C69 C -0.150(3) 1.0848(19) 0.5058(15)
H49 H -0.1277 1.0613 0.5457
H50 H -0.2144 1.1349 0.4997
H51 H -0.0595 1.0961 0.4825
N1 N -0.2211(18) 1.0309(10) 0.4906(8)
C70 C -0.266(2) 0.9581(12) 0.5332(5)
C71 C -0.339(2) 0.9156(9) 0.5053(9)
H52 H -0.2866 0.8616 0.5112
H53 H -0.4405 0.9090 0.5211
C72 C -0.339(2) 0.9621(13) 0.4456(8)
H54 H -0.4405 0.9774 0.4333
H55 H -0.2865 0.9300 0.4234
C73 C -0.266(2) 1.0334(11) 0.4365(6)
H56 H -0.1797 1.0347 0.4101
H57 H -0.3336 1.0821 0.4200
O1A O -0.5431(7) 1.2169(5) 1.2113(3)
O3A O -0.3510(7) 1.1817(6) 1.1610(4)
O6A O -1.0985(7) 1.1256(6) 1.1205(4)
H2A H -1.0883 1.1350 1.0857
O8A O -0.3966(9) 1.2250(5) 0.8098(3)
O10A O -0.5276(14) 1.2988(5) 0.8752(4)
C4A C -0.6343(10) 1.0871(6) 1.0770(4)
C6A C -0.4872(10) 1.1870(6) 1.1742(4)
C7A C -0.7854(9) 1.1019(6) 1.0857(4)
H4A H -0.8504 1.0832 1.0671
C12A C -0.5913(9) 1.1583(6) 1.1420(4)
C14A C -0.5255(9) 1.0870(6) 0.9796(4)
C19A C -0.5384(9) 1.1161(6) 1.1050(4)
H9A H -0.4359 1.1069 1.0985
C20A C -0.5438(10) 0.9560(6) 1.0583(4)
C23A C -0.5685(9) 1.0416(6) 1.0367(4)
C27A C -0.7442(10) 1.1723(6) 1.1503(4)
H11A H -0.7819 1.2005 1.1750
C39A C -0.4349(12) 1.1738(7) 0.8650(5)
C43A C -0.4111(10) 1.0910(6) 0.8847(4)
H18A H -0.3641 1.0644 0.8602
C47A C -0.5498(12) 1.1741(6) 0.9555(5)
H24A H -0.5966 1.2030 0.9786
C55A C -0.5075(14) 1.2159(7) 0.9009(5)
C57A C -0.8428(9) 1.1453(7) 1.1226(4)
C58A C -1.0037(10) 1.1635(7) 1.1359(5)
C60A C -0.3274(12) 1.1857(7) 0.7711(5)
H35A H -0.2370 1.1538 0.7867
H36A H -0.3941 1.1505 0.7658
H37A H -0.3045 1.2264 0.7346
C65A C -0.629(4) 1.3418(11) 0.9039(9)
H42A H -0.5838 1.3432 0.9372
H43A H -0.6524 1.3967 0.8784
H44A H -0.7181 1.3146 0.9156
O24A O -1.0429(8) 1.2097(7) 1.1614(5)
O2A O -0.6457(7) 0.2890(5) 0.3598(3)
O4A O -0.4507(7) 0.2274(4) 0.3270(3)
C1A C -0.5070(10) 0.2735(6) 0.3535(4)
O15A O -0.4002(9) 0.7128(4) 0.3043(3)
C2A C -0.3630(9) 0.4033(5) 0.4301(4)
O16A O -0.5448(12) 0.7934(5) 0.3648(4)
C3A C -0.4558(9) 0.5402(6) 0.4413(4)
C5A C -0.4050(9) 0.3127(6) 0.3789(4)
C9A C -0.4583(9) 0.3672(6) 0.4062(4)
H6A H -0.5608 0.3807 0.4091
C11A C -0.2104(10) 0.3858(6) 0.4237(4)
H7A H -0.1452 0.4113 0.4374
C15A C -0.4297(9) 0.4536(6) 0.4656(4)
C16A C -0.2521(9) 0.2924(6) 0.3749(4)
H8A H -0.2146 0.2538 0.3579
C21A C -0.5276(9) 0.5849(5) 0.4762(4)
C35A C -0.1545(9) 0.3293(5) 0.3962(4)
C37A C -0.4105(10) 0.5833(6) 0.3825(4)
H15A H -0.3612 0.5543 0.3599
C40A C -0.4388(11) 0.6656(6) 0.3598(4)
C42A C -0.5580(11) 0.6732(6) 0.4497(4)
H17A H -0.6066 0.7038 0.4713
C44A C -0.646(3) 0.8373(9) 0.3930(7)
H19A H -0.6009 0.8403 0.4258
H20A H -0.6715 0.8917 0.3669
H21A H -0.7351 0.8097 0.4057
C49A C -0.3300(12) 0.6716(7) 0.2674(5)
H25A H -0.2357 0.6441 0.2821
H26A H -0.3926 0.6321 0.2655
H27A H -0.3142 0.7105 0.2295
C62A C -0.5161(12) 0.7115(6) 0.3936(5)
O21A O 0.0989(7) 0.3575(4) 0.3881(3)
H45A H 0.1854 0.3401 0.3827
O22A O 0.0497(7) 0.2386(5) 0.3822(4)
C67A C 0.0076(9) 0.3032(6) 0.3881(4)
Ba1A Ba -1.74853(5) 1.18388(3) 1.31018(2)
Ba2A Ba -1.24832(5) 1.26427(3) 1.23013(2)
O5A O -2.5951(7) 1.9824(4) 1.2599(3)
H1A H -2.6801 2.0032 1.2637
O7A O -1.8510(7) 2.0573(4) 1.2823(4)
O9A O -1.4547(8) 1.3941(5) 1.2212(6)
O11A O -2.5451(7) 2.0491(5) 1.3167(4)
O12A O -2.0999(9) 1.9216(5) 1.0430(3)
O13A O -1.8936(9) 1.5630(5) 1.4548(3)
O14A O -1.3999(7) 1.5015(4) 1.2400(4)
H3A H -1.3160 1.4768 1.2423
O17A O -1.9632(14) 1.7884(6) 1.0343(4)
O18A O -2.0336(12) 1.6962(5) 1.4621(4)
C8A C -2.2450(9) 2.0338(6) 1.2872(4)
H5A H -2.2832 2.0778 1.2988
C10A C -2.0228(9) 1.7499(5) 1.3030(4)
C13A C -2.1342(9) 1.8958(5) 1.2592(4)
C17A C -1.9525(9) 1.6747(6) 1.2987(4)
C18A C -2.0908(9) 2.0183(5) 1.2784(4)
C22A C -1.9888(9) 2.0749(5) 1.2861(4)
C24A C -2.0681(9) 1.8160(5) 1.2525(4)
C25A C -1.7547(10) 1.4311(5) 1.2336(4)
H10A H -1.7178 1.3805 1.2307
C26A C -2.0414(9) 1.8063(5) 1.1985(4)
C28A C -2.0377(9) 1.9479(5) 1.2660(4)
H12A H -1.9352 1.9351 1.2621
C29A C -1.9062(9) 1.4503(5) 1.2380(4)
C30A C -2.2853(9) 1.9144(5) 1.2647(4)
H13A H -2.3503 1.8807 1.2593
C31A C -1.9721(10) 1.7313(6) 1.1939(4)
C32A C -1.8615(9) 1.5846(5) 1.2394(4)
C33A C -1.9281(9) 1.6657(5) 1.2439(4)
C34A C -1.9596(9) 1.5281(5) 1.2403(4)
H14A H -2.0621 1.5424 1.2425
C36A C -1.9324(12) 1.6199(6) 1.4026(5)
C38A C -2.0056(14) 1.6945(6) 1.4069(5)
C41A C -2.0512(11) 1.7573(6) 1.3584(4)
H16A H -2.1014 1.8053 1.3619
C45A C -2.0859(10) 1.8709(6) 1.1463(4)
H22A H -2.1332 1.9199 1.1490
C46A C -1.7112(10) 1.5645(6) 1.2358(5)
H23A H -1.6456 1.6020 1.2350
C48A C -2.5038(9) 2.0083(5) 1.2861(4)
C50A C -2.3416(9) 1.9832(5) 1.2784(4)
C51A C -1.9900(15) 1.7898(8) 1.0888(5)
C52A C -2.0622(12) 1.8636(7) 1.0941(5)
C53A C -1.6551(10) 1.4863(6) 1.2333(5)
C54A C -2.1646(12) 1.9985(6) 1.0448(5)
H28A H -2.1012 2.0191 1.0646
H29A H -2.1759 2.0362 1.0063
H30A H -2.2607 1.9924 1.0649
C56A C -1.9086(10) 1.6107(6) 1.3509(4)
H31A H -1.8622 1.5612 1.3488
C59A C -1.8256(13) 1.4868(6) 1.4543(5)
H32A H -1.8030 1.4524 1.4928
H33A H -1.8922 1.4614 1.4392
H34A H -1.7350 1.4944 1.4304
C61A C -1.9452(12) 1.7249(7) 1.1377(5)
H38A H -1.8972 1.6767 1.1338
C63A C -1.4946(10) 1.4573(6) 1.2307(5)
C64A C -2.133(3) 1.7626(11) 1.4680(7)
H39A H -2.1599 1.7526 1.5081
H40A H -2.0850 1.8122 1.4524
H41A H -2.2211 1.7678 1.4476
O19A O -2.0452(7) 2.1366(4) 1.2974(3)
O20A O -1.9537(7) 1.3155(4) 1.2461(4)
O23A O -2.1464(7) 1.4089(4) 1.2379(4)
C66A C -2.0104(10) 1.3878(6) 1.2414(4)
C68A C -1.859(3) 1.7305(15) 1.0236(8)
H46A H -1.7655 1.7326 1.0384
H47A H -1.8923 1.6771 1.0422
H48A H -1.8464 1.7414 0.9828
O25A O -1.7491(18) 1.0681(9) 1.4195(6)
C69A C -1.850(3) 0.9152(19) 1.4942(15)
H49A H -1.8723 0.9387 1.4543
H50A H -1.7856 0.8651 1.5003
H51A H -1.9405 0.9039 1.5175
N1A N -1.7789(18) 0.9691(10) 1.5094(8)
C70A C -1.734(2) 1.0419(12) 1.4668(5)
C71A C -1.661(2) 1.0844(9) 1.4947(9)
H52A H -1.7134 1.1384 1.4888
H53A H -1.5595 1.0910 1.4789
C72A C -1.661(2) 1.0379(13) 1.5544(8)
H54A H -1.5595 1.0226 1.5667
H55A H -1.7135 1.0700 1.5766
C73A C -1.734(2) 0.9666(11) 1.5635(6)
H56A H -1.8203 0.9653 1.5899
H57A H -1.6664 0.9179 1.5800
Ba1_2 Ba -1.25147(5) 0.81612(3) 0.68982(2)
Ba1_3 Ba -0.25147(5) -0.18388(3) 0.68982(2)
Ba1_4 Ba 0.74853(5) -0.18388(3) 0.68982(2)
Ba1A_2 Ba -2.74853(5) 2.18388(3) 1.31018(2)
Ba1A_3 Ba -1.74853(5) 2.18388(3) 1.31018(2)
Ba1A_4 Ba -0.74853(5) 0.18388(3) 0.31018(2)
Ba1A_5 Ba -0.74853(5) 1.18388(3) 1.31018(2)
Ba1A_6 Ba 0.25147(5) 0.18388(3) 0.31018(2)
Ba2_2 Ba 0.24832(5) -0.26427(3) 0.76987(2)
Ba2_3 Ba 0.24832(5) 0.73573(3) 0.76987(2)
Ba2A_2 Ba -2.24832(5) 1.26427(3) 1.23013(2)
Ba2A_3 Ba -2.24832(5) 2.26427(3) 1.23013(2)
Ba2A_4 Ba -0.24832(5) 0.26427(3) 0.23013(2)
Ba2A_5 Ba -0.24832(5) 1.26427(3) 1.23013(2)
O1A_2 O -1.5431(7) 1.2169(5) 1.2113(3)
O2A_2 O -1.6457(7) 1.2890(5) 1.3598(3)
O3A_2 O -1.3510(7) 1.1817(6) 1.1610(4)
O4A_2 O -1.4507(7) 1.2274(4) 1.3270(3)
O7_2 O -0.1490(7) 0.9427(4) 0.7177(4)
O7A_2 O -1.8510(7) 1.0573(4) 1.2823(4)
O11_2 O -0.4549(7) 0.9509(5) 0.6833(4)
O11A_2 O -1.5451(7) 1.0491(5) 1.3167(4)
O19_2 O -0.9548(7) 0.8634(4) 0.7026(3)
O19_3 O 0.0452(7) 0.8634(4) 0.7026(3)
O19A_2 O -2.0452(7) 1.1366(4) 1.2974(3)
O19A_3 O -1.0452(7) 1.1366(4) 1.2974(3)
O20_2 O -1.0463(7) 0.6845(4) 0.7539(4)
O20A_2 O -0.9537(7) 1.3155(4) 1.2461(4)
O22_2 O -0.0497(7) 0.7614(5) 0.6178(4)
O22A_2 O -1.9503(7) 1.2386(5) 1.3822(4)
O23_2 O -0.8536(7) 0.5911(4) 0.7621(4)
O23A_2 O -1.1464(7) 1.4089(4) 1.2379(4)
O24_2 O -0.9571(8) 0.7903(7) 0.8386(5)
loop_
_geom_bond_atom_site_label_1
_geom_bond_atom_site_label_2
_geom_bond_site_symmetry_1
_geom_bond_site_symmetry_2
Ba1 O1 1_555 1_555
Ba2 O1 1_555 1_555
O1 C6 1_555 1_555
O2 Ba1 1_555 1_555
O3 Ba2 1_555 1_555
O4 Ba1 1_555 1_555
O5 H1 1_555 1_555
O6 H2 1_555 1_555
O7 C22 1_555 1_555
O8 C39 1_555 1_555
O9 Ba2 1_555 1_555
O10 C55 1_555 1_555
O11 C48 1_555 1_555
O12 C52 1_555 1_555
C1 O2 1_555 1_555
O13 C36 1_555 1_555
O14 H3 1_555 1_555
O15 C40 1_555 1_555
C2 C9 1_555 1_555
O16 C44 1_555 1_555
O17 C51 1_555 1_555
C3 C15 1_555 1_555
O18 C38 1_555 1_555
C4 C7 1_555 1_555
C5 C1 1_555 1_555
C6 O3 1_555 1_555
C7 H4 1_555 1_555
C8 H5 1_555 1_555
C9 C5 1_555 1_555
H6 C9 1_555 1_555
C10 C17 1_555 1_555
C11 C2 1_555 1_555
H7 C11 1_555 1_555
C12 C6 1_555 1_555
C13 C24 1_555 1_555
C14 C23 1_555 1_555
C15 C2 1_555 1_555
C16 C5 1_555 1_555
H8 C16 1_555 1_555
C17 C33 1_555 1_555
C18 C8 1_555 1_555
C19 C4 1_555 1_555
H9 C19 1_555 1_555
C20 C23 1_555 1_555
C21 C3 1_555 1_555
C22 C18 1_555 1_555
C23 C4 1_555 1_555
C24 C10 1_555 1_555
C25 H10 1_555 1_555
C26 C24 1_555 1_555
C27 C12 1_555 1_555
H11 C27 1_555 1_555
C28 C13 1_555 1_555
H12 C28 1_555 1_555
C29 C25 1_555 1_555
C30 C13 1_555 1_555
H13 C30 1_555 1_555
C31 C26 1_555 1_555
C32 C33 1_555 1_555
C33 C31 1_555 1_555
C34 C29 1_555 1_555
H14 C34 1_555 1_555
C35 C11 1_555 1_555
C36 C38 1_555 1_555
C37 C3 1_555 1_555
H15 C37 1_555 1_555
C38 C41 1_555 1_555
C39 C43 1_555 1_555
C40 C37 1_555 1_555
C41 C10 1_555 1_555
H16 C41 1_555 1_555
C42 C21 1_555 1_555
H17 C42 1_555 1_555
C43 H18 1_555 1_555
C44 H19 1_555 1_555
H20 C44 1_555 1_555
H21 C44 1_555 1_555
C45 C26 1_555 1_555
H22 C45 1_555 1_555
C46 C32 1_555 1_555
H23 C46 1_555 1_555
C47 C14 1_555 1_555
H24 C47 1_555 1_555
C48 O5 1_555 1_555
C49 O15 1_555 1_555
H25 C49 1_555 1_555
H26 C49 1_555 1_555
H27 C49 1_555 1_555
C50 C8 1_555 1_555
C51 C52 1_555 1_555
C52 C45 1_555 1_555
C53 C25 1_555 1_555
C54 O12 1_555 1_555
H28 C54 1_555 1_555
H29 C54 1_555 1_555
H30 C54 1_555 1_555
C55 C39 1_555 1_555
C56 C17 1_555 1_555
H31 C56 1_555 1_555
C57 C7 1_555 1_555
C58 O6 1_555 1_555
C59 O13 1_555 1_555
H32 C59 1_555 1_555
H33 C59 1_555 1_555
H34 C59 1_555 1_555
C60 O8 1_555 1_555
H35 C60 1_555 1_555
H36 C60 1_555 1_555
H37 C60 1_555 1_555
C61 C31 1_555 1_555
H38 C61 1_555 1_555
C62 O16 1_555 1_555
C63 O9 1_555 1_555
C64 O18 1_555 1_555
H39 C64 1_555 1_555
H40 C64 1_555 1_555
H41 C64 1_555 1_555
C65 O10 1_555 1_555
H42 C65 1_555 1_555
H43 C65 1_555 1_555
H44 C65 1_555 1_555
O19 C22 1_555 1_555
O20 Ba1 1_555 1_555
O21 H45 1_555 1_555
O22 C67 1_555 1_555
O23 C66 1_555 1_555
O24 C58 1_555 1_555
C66 C29 1_555 1_555
C67 C35 1_555 1_555
C68 O17 1_555 1_555
H46 C68 1_555 1_555
H47 C68 1_555 1_555
H48 C68 1_555 1_555
O25 Ba1 1_555 1_555
C69 H49 1_555 1_555
H50 C69 1_555 1_555
H51 C69 1_555 1_555
N1 C69 1_555 1_555
C70 O25 1_555 1_555
C71 C70 1_555 1_555
H52 C71 1_555 1_555
H53 C71 1_555 1_555
C72 C71 1_555 1_555
H54 C72 1_555 1_555
H55 C72 1_555 1_555
C73 N1 1_555 1_555
H56 C73 1_555 1_555
H57 C73 1_555 1_555
O1A C6A 1_555 1_555
O3A C6A 1_555 1_555
O6A H2A 1_555 1_555
O8A C39A 1_555 1_555
O10A C55A 1_555 1_555
C4A C7A 1_555 1_555
C6A C12A 1_555 1_555
C7A H4A 1_555 1_555
C12A C19A 1_555 1_555
C14A C20 1_555 1_555
C19A C4A 1_555 1_555
H9A C19A 1_555 1_555
C20A C14 1_555 1_555
C23A C4A 1_555 1_555
C27A C12A 1_555 1_555
H11A C27A 1_555 1_555
C39A C43A 1_555 1_555
C43A C20 1_555 1_555
H18A C43A 1_555 1_555
C47A C14A 1_555 1_555
H24A C47A 1_555 1_555
C55A C39A 1_555 1_555
C57A C7A 1_555 1_555
C58A O6A 1_555 1_555
C60A O8A 1_555 1_555
H35A C60A 1_555 1_555
H36A C60A 1_555 1_555
H37A C60A 1_555 1_555
C65A O10A 1_555 1_555
H42A C65A 1_555 1_555
H43A C65A 1_555 1_555
H44A C65A 1_555 1_555
O24A C58A 1_555 1_555
O2A C1A 1_555 1_555
O4A C1A 1_555 1_555
C1A C5A 1_555 1_555
O15A C40A 1_555 1_555
C2A C9A 1_555 1_555
O16A C44A 1_555 1_555
C3A C15A 1_555 1_555
C5A C9A 1_555 1_555
C9A H6A 1_555 1_555
C11A C2A 1_555 1_555
H7A C11A 1_555 1_555
C15A C21 1_555 1_555
C16A C5A 1_555 1_555
H8A C16A 1_555 1_555
C21A C15 1_555 1_555
C35A C11A 1_555 1_555
C37A C3A 1_555 1_555
H15A C37A 1_555 1_555
C40A C37A 1_555 1_555
C42A C21A 1_555 1_555
H17A C42A 1_555 1_555
C44A H19A 1_555 1_555
H20A C44A 1_555 1_555
H21A C44A 1_555 1_555
C49A O15A 1_555 1_555
H25A C49A 1_555 1_555
H26A C49A 1_555 1_555
H27A C49A 1_555 1_555
C62A O16A 1_555 1_555
O21A H45A 1_555 1_555
O22A C67A 1_555 1_555
C67A C35A 1_555 1_555
Ba1A O20A 1_555 1_555
Ba2A O24A 1_555 1_555
O5A H1A 1_555 1_555
O7A C22A 1_555 1_555
O9A Ba2A 1_555 1_555
O11A C48A 1_555 1_555
O12A C52A 1_555 1_555
O13A C36A 1_555 1_555
O14A H3A 1_555 1_555
O17A C51A 1_555 1_555
O18A C38A 1_555 1_555
C8A H5A 1_555 1_555
C10A C17A 1_555 1_555
C13A C24A 1_555 1_555
C17A C33A 1_555 1_555
C18A C8A 1_555 1_555
C22A C18A 1_555 1_555
C24A C10A 1_555 1_555
C25A H10A 1_555 1_555
C26A C24A 1_555 1_555
C28A C13A 1_555 1_555
H12A C28A 1_555 1_555
C29A C25A 1_555 1_555
C30A C13A 1_555 1_555
H13A C30A 1_555 1_555
C31A C26A 1_555 1_555
C32A C33A 1_555 1_555
C33A C31A 1_555 1_555
C34A C29A 1_555 1_555
H14A C34A 1_555 1_555
C36A C38A 1_555 1_555
C38A C41A 1_555 1_555
C41A C10A 1_555 1_555
H16A C41A 1_555 1_555
C45A C26A 1_555 1_555
H22A C45A 1_555 1_555
C46A C32A 1_555 1_555
H23A C46A 1_555 1_555
C48A O5A 1_555 1_555
C50A C8A 1_555 1_555
C51A C52A 1_555 1_555
C52A C45A 1_555 1_555
C53A C25A 1_555 1_555
C54A O12A 1_555 1_555
H28A C54A 1_555 1_555
H29A C54A 1_555 1_555
H30A C54A 1_555 1_555
C56A C17A 1_555 1_555
H31A C56A 1_555 1_555
C59A O13A 1_555 1_555
H32A C59A 1_555 1_555
H33A C59A 1_555 1_555
H34A C59A 1_555 1_555
C61A C31A 1_555 1_555
H38A C61A 1_555 1_555
C63A O9A 1_555 1_555
C64A O18A 1_555 1_555
H39A C64A 1_555 1_555
H40A C64A 1_555 1_555
H41A C64A 1_555 1_555
O19A C22A 1_555 1_555
O20A C66A 1_555 1_555
O23A C66A 1_555 1_555
C66A C29A 1_555 1_555
C68A O17A 1_555 1_555
H46A C68A 1_555 1_555
H47A C68A 1_555 1_555
H48A C68A 1_555 1_555
O25A Ba1A 1_555 1_555
C69A H49A 1_555 1_555
H50A C69A 1_555 1_555
H51A C69A 1_555 1_555
N1A C69A 1_555 1_555
C70A O25A 1_555 1_555
C71A C70A 1_555 1_555
H52A C71A 1_555 1_555
H53A C71A 1_555 1_555
C72A C71A 1_555 1_555
H54A C72A 1_555 1_555
H55A C72A 1_555 1_555
C73A N1A 1_555 1_555
H56A C73A 1_555 1_555
H57A C73A 1_555 1_555
Ba1_2 O22 1_555 1_555
Ba1_3 O7 1_555 1_555
Ba1_4 O11 1_555 1_555
Ba1A_2 O11A 1_555 1_555
Ba1A_3 O7A 1_555 1_555
Ba1A_4 O2A 1_555 1_555
Ba1A_5 O1A 1_555 1_555
Ba1A_6 O22A 1_555 1_555
Ba2_2 O19 1_555 1_555
Ba2_3 O20 1_555 1_555
Ba2A_2 O20A 1_555 1_555
Ba2A_3 O19A 1_555 1_555
Ba2A_4 O4A 1_555 1_555
Ba2A_5 O1A 1_555 1_555
O1A_2 Ba1A 1_555 1_555
O2A_2 Ba1A 1_555 1_555
O3A_2 Ba2A 1_555 1_555
O4A_2 Ba1A 1_555 1_555
O7_2 Ba1 1_555 1_555
O7A_2 Ba1A 1_555 1_555
O11_2 Ba1 1_555 1_555
O11A_2 Ba1A 1_555 1_555
O19_2 Ba2 1_555 1_555
O19_3 Ba1 1_555 1_555
O19A_2 Ba1A 1_555 1_555
O19A_3 Ba2A 1_555 1_555
O20_2 Ba2 1_555 1_555
O20A_2 Ba2A 1_555 1_555
O22_2 Ba1 1_555 1_555
O22A_2 Ba1A 1_555 1_555
O23_2 Ba2 1_555 1_555
O23A_2 Ba2A 1_555 1_555
O24_2 Ba2 1_555 1_555
Ba2 O4 1_555 1_555
O4 C1 1_555 1_555
O14 C63 1_555 1_555
C12 C19 1_555 1_555
C16 C35 1_555 1_555
C18 C28 1_555 1_555
C27 C57 1_555 1_555
C30 C50 1_555 1_555
C32 C34 1_555 1_555
C36 C56 1_555 1_555
C40 C62 1_555 1_555
C42 C62 1_555 1_555
C43 C20A 1_555 1_555
C46 C53 1_555 1_555
C47 C55 1_555 1_555
C48 C50 1_555 1_555
C51 C61 1_555 1_555
C53 C63 1_555 1_555
C57 C58 1_555 1_555
O19 Ba1_3 1_555 1_555
O20 C66 1_555 1_555
O21 C67 1_555 1_555
O23 Ba2_3 1_555 1_555
O24 Ba2_3 1_555 1_555
N1 C70 1_555 1_555
C72 C73 1_555 1_555
O3A Ba2A_5 1_555 1_555
C14A C23A 1_555 1_555
C20A C23A 1_555 1_555
C27A C57A 1_555 1_555
C47A C55A 1_555 1_555
C57A C58A 1_555 1_555
O4A Ba1A_4 1_555 1_555
C2A C15A 1_555 1_555
C3A C21A 1_555 1_555
C16A C35A 1_555 1_555
C40A C62A 1_555 1_555
C42A C62A 1_555 1_555
O21A C67A 1_555 1_555
Ba2A O1A_2 1_555 1_555
Ba2A O4A_2 1_555 1_555
O14A C63A 1_555 1_555
C18A C28A 1_555 1_555
C30A C50A 1_555 1_555
C32A C34A 1_555 1_555
C36A C56A 1_555 1_555
C46A C53A 1_555 1_555
C48A C50A 1_555 1_555
C51A C61A 1_555 1_555
C53A C63A 1_555 1_555
O19A Ba1A_3 1_555 1_555
O23A Ba2A_2 1_555 1_555
N1A C70A 1_555 1_555
C72A C73A 1_555 1_555
Ba1_2 O19_2 1_555 1_555
Ba1_2 O20_2 1_555 1_555
Ba1A_5 O19A_3 1_555 1_555
Ba1A_5 O20A_2 1_555 1_555
Ba2_3 O19_3 1_555 1_555
Ba2A_2 O19A_2 1_555 1_555

#END
