
#######################################################################
#
#                 Cambridge Crystallographic Data Centre
#                                CCDC 
#
#######################################################################
#
# If this CIF has been generated from an entry in the Cambridge 
# Structural Database, then it will include bibliographic, chemical, 
# crystal, experimental, refinement or atomic coordinate data resulting 
# from the CCDC's data processing and validation procedures.
#
#######################################################################

data_KABNIL
_symmetry_cell_setting           triclinic
_symmetry_space_group_name_H-M   'P -1'
_symmetry_Int_Tables_number      2
_space_group_name_Hall           '-P 1'
loop_
_symmetry_equiv_pos_site_id
_symmetry_equiv_pos_as_xyz
1 x,y,z
2 -x,-y,-z
_cell_length_a                   7.9973(7)
_cell_length_b                   9.7743(8)
_cell_length_c                   10.8627(9)
_cell_angle_alpha                87.194(7)
_cell_angle_beta                 84.679(7)
_cell_angle_gamma                74.744(6)
_cell_volume                     815.396
loop_
_atom_site_label
_atom_site_type_symbol
_atom_site_fract_x
_atom_site_fract_y
_atom_site_fract_z
Cu1 Cu -0.12287(4) 0.92944(3) 0.01304(3)
Cu2 Cu 0.5000 0.5000 -0.5000
C3 C 0.0144(3) 0.9876(3) -0.3721(2)
C4 C 0.1163(4) 0.8820(3) -0.4501(2)
C5 C -0.1004(4) 1.1038(3) -0.4227(3)
C6 C 0.0209(3) 0.9840(3) -0.2334(2)
C7 C 0.2486(4) 0.7549(3) -0.4028(3)
C8 C 0.3752(3) 0.6308(3) 0.0086(2)
C9 C 0.5487(3) 0.6219(3) 0.0281(2)
C10 C 0.3286(3) 0.5086(3) -0.0182(2)
C11 C 0.2377(3) 0.7701(3) 0.0103(2)
C12 C 0.6084(3) 0.7447(3) 0.0716(2)
O1 O -0.0891(3) 0.9330(2) -0.1701(2)
O2 O 0.1258(3) 1.0441(2) -0.1925(2)
O3 O 0.3551(3) 0.6899(2) -0.4870(2)
O4 O 0.2486(3) 0.7270(3) -0.2903(2)
O5 O 0.0818(2) 0.7655(2) 0.0234(2)
O6 O 0.2896(2) 0.8819(2) -0.0044(2)
O7 O 0.5668(3) 0.7783(2) 0.1810(2)
O8 O 0.7030(3) 0.7989(2) -0.0052(2)
O9 O 0.4837(4) 0.4674(3) -0.3176(2)
O10 O 0.2424(5) 0.4238(4) -0.5214(4)
H8 H -0.1776(40) 1.1820(33) -0.3714(28)
H9 H 0.2159(42) 0.5128(32) -0.0339(28)
H10 H 0.4054(92) 0.5382(77) -0.2910(65)
H11 H 0.4574(92) 0.3825(77) -0.3017(65)
H12 H 0.1457(96) 0.4468(76) -0.5869(70)
H13 H 0.1421(95) 0.4009(72) -0.4418(72)
C5A C 0.1004(4) 0.8962(3) -0.5773(3)
C3A C -0.0144(3) 1.0124(3) -0.6279(2)
C4A C -0.1163(4) 1.1180(3) -0.5499(2)
C7A C -0.2486(4) 1.2451(3) -0.5972(3)
O3A O -0.3551(3) 1.3101(2) -0.5130(2)
O4A O -0.2486(3) 1.2730(3) -0.7097(2)
C6A C -0.0209(3) 1.0160(3) -0.7666(2)
O1A O 0.0891(3) 1.0670(2) -0.8299(2)
O2A O -0.1258(3) 0.9559(2) -0.8075(2)
H8A H 0.1776(40) 0.8180(33) -0.6286(28)
C10A C 0.6714(3) 0.4914(3) 0.0182(2)
C8A C 0.6248(3) 0.3692(3) -0.0086(2)
C9A C 0.4513(3) 0.3781(3) -0.0281(2)
C12A C 0.3916(3) 0.2553(3) -0.0716(2)
O7A O 0.4332(3) 0.2217(2) -0.1810(2)
O8A O 0.2970(3) 0.2011(2) 0.0052(2)
C11A C 0.7623(3) 0.2299(3) -0.0103(2)
O5A O 0.9182(2) 0.2345(2) -0.0234(2)
O6A O 0.7104(2) 0.1181(2) 0.0044(2)
H9A H 0.7841(42) 0.4872(32) 0.0339(28)
O9A O 0.5163(4) 0.5326(3) -0.6824(2)
H10A H 0.5946(92) 0.4618(77) -0.7090(65)
H11A H 0.5426(92) 0.6175(77) -0.6983(65)
O10A O 0.7576(5) 0.5762(4) -0.4786(4)
H12A H 0.8543(96) 0.5532(76) -0.4131(70)
H13A H 0.8579(95) 0.5991(72) -0.5582(72)
Cu1A Cu 0.12287(4) 1.07056(3) -1.01304(3)
Cu1A_2 Cu 0.12287(4) 1.07056(3) -0.01304(3)
O2A_2 O -0.1258(3) 0.9559(2) 0.1925(2)
O6A_2 O -0.2896(2) 1.1181(2) 0.0044(2)
O8_2 O -0.2970(3) 0.7989(2) -0.0052(2)
O3A_2 O 0.6449(3) 0.3101(2) -0.5130(2)
Cu1_2 Cu 0.87713(4) 0.92944(3) 0.01304(3)
Cu2_2 Cu -0.5000 1.5000 -0.5000
Cu1_3 Cu -0.12287(4) 0.92944(3) -0.98696(3)
Cu1A_3 Cu 0.12287(4) 0.07056(3) -0.01304(3)
Cu1A_4 Cu 1.12287(4) 0.07056(3) -0.01304(3)
Cu1_4 Cu 0.87713(4) -0.07056(3) 0.01304(3)
O2_2 O 0.1258(3) 1.0441(2) -1.1925(2)
O5A_2 O -0.0818(2) 1.2345(2) -1.0234(2)
O6_2 O 0.2896(2) 0.8819(2) -1.0044(2)
O8A_2 O 0.2970(3) 1.2011(2) -0.9948(2)
N1 N 0.4761(4) 0.0713(3) -0.7811(2)
C1 C 0.4150(4) 0.0977(4) -0.6493(3)
C2 C 0.5207(4) -0.0176(4) -0.5682(3)
H1 H 0.5749(60) 0.0975(46) -0.8006(41)
H2 H 0.3993(58) 0.1217(47) -0.8300(41)
H3 H 0.4965(56) -0.0206(50) -0.8006(40)
H4 H 0.2928(47) 0.1037(36) -0.6419(31)
H5 H 0.4280(44) 0.1924(38) -0.6322(31)
H6 H 0.6438(47) -0.0228(36) -0.5892(31)
H7 H 0.4958(44) -0.1037(38) -0.5825(31)
C2A C 0.4793(4) 0.0176(4) -0.4318(3)
C1A C 0.5850(4) -0.0977(4) -0.3507(3)
N1A N 0.5239(4) -0.0713(3) -0.2189(2)
H1A H 0.4251(60) -0.0975(46) -0.1994(41)
H2A H 0.6007(58) -0.1217(47) -0.1700(41)
H3A H 0.5035(56) 0.0206(50) -0.1994(40)
H4A H 0.7072(47) -0.1037(36) -0.3581(31)
H5A H 0.5720(44) -0.1924(38) -0.3678(31)
H6A H 0.3562(47) 0.0228(36) -0.4108(31)
H7A H 0.5042(44) 0.1037(38) -0.4175(31)
O11 O 1.0605(6) 0.3834(4) -0.7976(4)
H14 H 0.9854(89) 0.3307(72) -0.7595(63)
H15 H 1.1298(89) 0.3292(72) -0.8589(63)
O12 O 0.0448(8) 0.3591(5) -0.3111(4)
H16 H -0.031(14) 0.459(11) -0.253(11)
H17 H 0.084(16) 0.365(13) -0.242(11)
loop_
_geom_bond_atom_site_label_1
_geom_bond_atom_site_label_2
_geom_bond_site_symmetry_1
_geom_bond_site_symmetry_2
Cu1 O1 1_555 1_555
Cu2 O3 1_555 1_555
N1 C1 1_555 1_555
C1 C2 1_555 1_555
C2 H6 1_555 1_555
C3 C4 1_555 1_555
C4 C7 1_555 1_555
C5 C3 1_555 1_555
C6 C3 1_555 1_555
C7 O3 1_555 1_555
C8 C9 1_555 1_555
C9 C12 1_555 1_555
C10 C8 1_555 1_555
C11 C8 1_555 1_555
C12 O7 1_555 1_555
O1 C6 1_555 1_555
O2 C6 1_555 1_555
O4 C7 1_555 1_555
O5 Cu1 1_555 1_555
O6 C11 1_555 1_555
O8 C12 1_555 1_555
O9 Cu2 1_555 1_555
O10 Cu2 1_555 1_555
O11 H14 1_555 1_555
O12 H16 1_555 1_555
H1 N1 1_555 1_555
H2 N1 1_555 1_555
H3 N1 1_555 1_555
H4 C1 1_555 1_555
H5 C1 1_555 1_555
H7 C2 1_555 1_555
H8 C5 1_555 1_555
H9 C10 1_555 1_555
H10 O9 1_555 1_555
H11 O9 1_555 1_555
H12 O10 1_555 1_555
H13 O10 1_555 1_555
H15 O11 1_555 1_555
H17 O12 1_555 1_555
C2A C2 1_555 1_555
C1A C2A 1_555 1_555
N1A C1A 1_555 1_555
H1A N1A 1_555 1_555
H2A N1A 1_555 1_555
H3A N1A 1_555 1_555
H4A C1A 1_555 1_555
H5A C1A 1_555 1_555
H6A C2A 1_555 1_555
H7A C2A 1_555 1_555
C5A C4 1_555 1_555
C3A C5A 1_555 1_555
C4A C5 1_555 1_555
C7A C4A 1_555 1_555
O3A C7A 1_555 1_555
O4A C7A 1_555 1_555
C6A C3A 1_555 1_555
O1A C6A 1_555 1_555
O2A C6A 1_555 1_555
H8A C5A 1_555 1_555
C10A C9 1_555 1_555
C8A C10A 1_555 1_555
C9A C10 1_555 1_555
C12A C9A 1_555 1_555
O7A C12A 1_555 1_555
O8A C12A 1_555 1_555
C11A C8A 1_555 1_555
O5A C11A 1_555 1_555
O6A C11A 1_555 1_555
H9A C10A 1_555 1_555
O9A Cu2 1_555 1_555
H10A O9A 1_555 1_555
H11A O9A 1_555 1_555
O10A Cu2 1_555 1_555
H12A O10A 1_555 1_555
H13A O10A 1_555 1_555
Cu1A O1A 1_555 1_555
Cu1A_2 Cu1 1_555 1_555
O2A_2 Cu1 1_555 1_555
O6A_2 Cu1 1_555 1_555
O8_2 Cu1 1_555 1_555
O3A_2 Cu2 1_555 1_555
Cu1_2 O8 1_555 1_555
Cu2_2 O3A 1_555 1_555
Cu1_3 O2A 1_555 1_555
Cu1A_3 O8A 1_555 1_555
Cu1A_4 O5A 1_555 1_555
Cu1_4 O6A 1_555 1_555
O2_2 Cu1A 1_555 1_555
O5A_2 Cu1A 1_555 1_555
O6_2 Cu1A 1_555 1_555
O8A_2 Cu1A 1_555 1_555
C11 O5 1_555 1_555
O2 Cu1A_2 1_555 1_555
O6 Cu1A_2 1_555 1_555
C3A C4A 1_555 1_555
C8A C9A 1_555 1_555
Cu1A Cu1_3 1_555 1_555
Cu1A_4 Cu1_4 1_555 1_555

#END
