
#######################################################################
#
#                 Cambridge Crystallographic Data Centre
#                                CCDC 
#
#######################################################################
#
# If this CIF has been generated from an entry in the Cambridge 
# Structural Database, then it will include bibliographic, chemical, 
# crystal, experimental, refinement or atomic coordinate data resulting 
# from the CCDC's data processing and validation procedures.
#
#######################################################################

data_KARMAT
_symmetry_cell_setting           cubic
_symmetry_space_group_name_H-M   'I -4 3 m'
_symmetry_Int_Tables_number      217
_space_group_name_Hall           'I -4 2 3'
loop_
_symmetry_equiv_pos_site_id
_symmetry_equiv_pos_as_xyz
1 x,y,z
2 -x,-y,z
3 -x,y,-z
4 x,-y,-z
5 z,x,y
6 z,-x,-y
7 -z,-x,y
8 -z,x,-y
9 y,z,x
10 -y,z,-x
11 y,-z,-x
12 -y,-z,x
13 y,x,z
14 -y,-x,z
15 y,-x,-z
16 -y,x,-z
17 x,z,y
18 -x,z,-y
19 -x,-z,y
20 x,-z,-y
21 z,y,x
22 z,-y,-x
23 -z,y,-x
24 -z,-y,x
25 1/2+x,1/2+y,1/2+z
26 1/2-x,1/2-y,1/2+z
27 1/2-x,1/2+y,1/2-z
28 1/2+x,1/2-y,1/2-z
29 1/2+z,1/2+x,1/2+y
30 1/2+z,1/2-x,1/2-y
31 1/2-z,1/2-x,1/2+y
32 1/2-z,1/2+x,1/2-y
33 1/2+y,1/2+z,1/2+x
34 1/2-y,1/2+z,1/2-x
35 1/2+y,1/2-z,1/2-x
36 1/2-y,1/2-z,1/2+x
37 1/2+y,1/2+x,1/2+z
38 1/2-y,1/2-x,1/2+z
39 1/2+y,1/2-x,1/2-z
40 1/2-y,1/2+x,1/2-z
41 1/2+x,1/2+z,1/2+y
42 1/2-x,1/2+z,1/2-y
43 1/2-x,1/2-z,1/2+y
44 1/2+x,1/2-z,1/2-y
45 1/2+z,1/2+y,1/2+x
46 1/2+z,1/2-y,1/2-x
47 1/2-z,1/2+y,1/2-x
48 1/2-z,1/2-y,1/2+x
_cell_length_a                   29.4817(18)
_cell_length_b                   29.4817(18)
_cell_length_c                   29.4817(18)
_cell_angle_alpha                90
_cell_angle_beta                 90
_cell_angle_gamma                90
_cell_volume                     25624.6
loop_
_atom_site_label
_atom_site_type_symbol
_atom_site_fract_x
_atom_site_fract_y
_atom_site_fract_z
Ni1 Ni 0.138876(5) 0.221049(4) 0.221049(4)
O1 O 0.19680(4) 0.19680(4) 0.19680(4)
O2 O 0.16391(3) 0.28593(3) 0.21644(4)
O3 O 0.10741(3) 0.22906(6) 0.15990(3)
N1 N 0.25044(4) 0.58095(4) 0.25044(4)
C1 C 0.21488(5) 0.56011(4) 0.27087(5)
H1 H 0.1997 0.5749 0.2952
C2 C 0.20035(5) 0.51788(4) 0.25701(5)
H2 H 0.1756 0.5037 0.2720
C3 C 0.22152(5) 0.49629(5) 0.22152(5)
C4 C 0.20958(6) 0.44760(7) 0.20958(6)
C5 C 0.17766(7) 0.42428(6) 0.23350(7)
H3 H 0.1595 0.4400 0.2550
C6 C 0.17110(5) 0.37894(5) 0.22726(6)
H4 H 0.1489 0.3636 0.2449
C7 C 0.19600(5) 0.35504(6) 0.19600(5)
C8 C 0.19145(4) 0.30439(5) 0.19145(4)
C9 C 0.12063(4) 0.23207(6) 0.12063(4)
C10 C 0.08500(4) 0.23955(7) 0.08500(4)
C11 C 0.03987(6) 0.24211(6) 0.09598(6)
H5 H 0.0311 0.2405 0.1269
C12 C 0.00714(7) 0.24691(8) 0.06336(6)
H6 H -0.0238 0.2488 0.0722
C13 C 0.01808(4) 0.24909(9) 0.01808(4)
Ni1H Ni 0.221049(4) 0.221049(4) 0.138876(5)
Ni1HA Ni -0.278951(4) 0.278951(4) 0.361124(5)
Ni1CA Ni -0.278951(4) 0.361124(5) 0.278951(4)
Ni1D Ni 0.221049(4) 0.138876(5) 0.221049(4)
Ni1B Ni -0.138876(5) 0.221049(4) -0.221049(4)
Ni1I Ni -0.221049(4) 0.221049(4) -0.138876(5)
Ni1A Ni -0.138876(5) -0.221049(4) 0.221049(4)
Ni1F Ni -0.221049(4) -0.138876(5) 0.221049(4)
Ni1EA Ni 0.278951(4) 0.638876(5) 0.278951(4)
Ni1IA Ni 0.278951(4) 0.278951(4) 0.638876(5)
Ni1DA Ni 0.278951(4) 0.361124(5) -0.278951(4)
Ni1AA Ni 0.638876(5) 0.278951(4) 0.278951(4)
Ni1J Ni 0.221049(4) -0.221049(4) -0.138876(5)
Ni1E Ni 0.221049(4) -0.138876(5) -0.221049(4)
Ni1Y Ni 0.361124(5) 0.278951(4) -0.278951(4)
Ni1AA_2 Ni -0.361124(5) 0.278951(4) 0.278951(4)
Ni1FA Ni -0.278951(4) 0.721049(4) 0.638876(5)
Ni1BA Ni -0.278951(4) 0.638876(5) 0.721049(4)
Ni1G Ni -0.221049(4) 0.138876(5) 0.778951(4)
Ni1B_2 Ni -0.138876(5) 0.221049(4) 0.778951(4)
Ni1IA_2 Ni -0.721049(4) 0.278951(4) 0.638876(5)
Ni1Y_2 Ni -0.638876(5) 0.278951(4) 0.721049(4)
Ni1K Ni -0.221049(4) 0.778951(4) 0.138876(5)
Ni1A_2 Ni -0.138876(5) 0.778951(4) 0.221049(4)
Ni1EA_2 Ni -0.721049(4) 0.638876(5) 0.278951(4)
Ni1Z Ni -0.638876(5) 0.721049(4) 0.278951(4)
Ni1Z_2 Ni 0.361124(5) -0.278951(4) 0.278951(4)
Ni1GA Ni 0.278951(4) -0.278951(4) 0.361124(5)
Ni1G_2 Ni -0.221049(4) 0.138876(5) -0.221049(4)
Ni1BA_2 Ni -0.278951(4) 0.638876(5) -0.278951(4)
Ni1IA_3 Ni 0.278951(4) 0.278951(4) -0.361124(5)
Ni1K_2 Ni -0.221049(4) -0.221049(4) 0.138876(5)
O1AA O -0.30320(4) 0.30320(4) 0.30320(4)
O1B O -0.19680(4) 0.19680(4) -0.19680(4)
O1A O -0.19680(4) -0.19680(4) 0.19680(4)
O1Z O 0.30320(4) 0.69680(4) 0.30320(4)
O1Y O 0.30320(4) 0.30320(4) 0.69680(4)
O1Y_2 O 0.30320(4) 0.30320(4) -0.30320(4)
O2T O 0.21644(4) 0.28593(3) 0.16391(3)
O2HA O -0.21407(3) 0.28356(4) 0.33609(3)
O2LA O -0.21407(3) 0.33609(3) 0.28356(4)
O2P O 0.16391(3) 0.21644(4) 0.28593(3)
O2D O 0.21644(4) 0.16391(3) 0.28593(3)
O2H O 0.28593(3) 0.21644(4) 0.16391(3)
O2L O 0.28593(3) 0.16391(3) 0.21644(4)
O2DA O 0.28356(4) 0.33609(3) -0.21407(3)
O2PA O 0.33609(3) 0.28356(4) -0.21407(3)
O2G O -0.21644(4) 0.16391(3) 0.71407(3)
O2Q O -0.16391(3) 0.21644(4) 0.71407(3)
O2SA O -0.28356(4) 0.21407(3) 0.33609(3)
O2AA O -0.33609(3) 0.21407(3) 0.28356(4)
O2W O -0.21644(4) 0.71407(3) 0.16391(3)
O2A O -0.16391(3) 0.71407(3) 0.21644(4)
O2CA O -0.28356(4) 0.33609(3) 0.21407(3)
O2QA O -0.33609(3) 0.28356(4) 0.21407(3)
O2Z O 0.33609(3) -0.21407(3) 0.28356(4)
O2TA O 0.28356(4) -0.21407(3) 0.33609(3)
O2B O -0.16391(3) 0.28593(3) -0.21644(4)
O2V O -0.21644(4) 0.28593(3) -0.16391(3)
O2IA O 0.21407(3) 0.28356(4) -0.33609(3)
O2KA O 0.21407(3) 0.33609(3) -0.28356(4)
O2Q_2 O -0.16391(3) 0.21644(4) -0.28593(3)
O2I O -0.28593(3) 0.21644(4) -0.16391(3)
O2R O -0.16391(3) -0.21644(4) 0.28593(3)
O2A_2 O -0.16391(3) -0.28593(3) 0.21644(4)
O2F O -0.21644(4) -0.16391(3) 0.28593(3)
O2M O -0.28593(3) -0.16391(3) 0.21644(4)
O2EA O 0.28356(4) 0.66391(3) 0.21407(3)
O2MA O 0.21407(3) 0.66391(3) 0.28356(4)
O2UA O 0.28356(4) 0.21407(3) 0.66391(3)
O2IA_2 O 0.21407(3) 0.28356(4) 0.66391(3)
O3T O 0.15990(3) 0.22906(6) 0.10741(3)
O3B O -0.10741(3) 0.22906(6) -0.15990(3)
O3V O -0.15990(3) 0.22906(6) -0.10741(3)
O3P O 0.10741(3) 0.15990(3) 0.22906(6)
O3D O 0.15990(3) 0.10741(3) 0.22906(6)
O3R O -0.10741(3) -0.15990(3) 0.22906(6)
O3F O -0.15990(3) -0.10741(3) 0.22906(6)
O3H O 0.22906(6) 0.15990(3) 0.10741(3)
O3L O 0.22906(6) 0.10741(3) 0.15990(3)
O3J O 0.22906(6) -0.15990(3) -0.10741(3)
O3N O 0.22906(6) -0.10741(3) -0.15990(3)
O3HA O -0.27094(6) 0.34010(3) 0.39259(3)
O3LA O -0.27094(6) 0.39259(3) 0.34010(3)
O3FA O -0.27094(6) 0.65990(3) 0.60741(3)
O3JA O -0.27094(6) 0.60741(3) 0.65990(3)
O3SA O -0.34010(3) 0.27094(6) 0.39259(3)
O3AA O -0.39259(3) 0.27094(6) 0.34010(3)
O3UA O -0.65990(3) 0.27094(6) 0.60741(3)
O3Y O -0.60741(3) 0.27094(6) 0.65990(3)
O3CA O -0.34010(3) 0.39259(3) 0.27094(6)
O3QA O -0.39259(3) 0.34010(3) 0.27094(6)
O3EA O -0.65990(3) 0.60741(3) 0.27094(6)
O3OA O -0.60741(3) 0.65990(3) 0.27094(6)
O3Q O -0.10741(3) 0.15990(3) -0.22906(6)
O3I O -0.22906(6) 0.15990(3) -0.10741(3)
O3A O -0.10741(3) -0.22906(6) 0.15990(3)
O3M O -0.22906(6) -0.10741(3) 0.15990(3)
O3EA_2 O 0.34010(3) 0.60741(3) 0.27094(6)
O3MA O 0.27094(6) 0.60741(3) 0.34010(3)
O3UA_2 O 0.34010(3) 0.27094(6) 0.60741(3)
O3IA O 0.27094(6) 0.34010(3) 0.60741(3)
O3DA O 0.34010(3) 0.39259(3) -0.27094(6)
O3KA O 0.27094(6) 0.39259(3) -0.34010(3)
N1HA N 0.08095(4) 0.24956(4) 0.24956(4)
N1D N 0.25044(4) 0.25044(4) 0.58095(4)
N1H N 0.58095(4) 0.25044(4) 0.25044(4)
N1DA N 0.24956(4) 0.24956(4) 0.08095(4)
N1G N -0.25044(4) 0.25044(4) 0.41905(4)
N1AA N -0.24956(4) -0.08095(4) 0.24956(4)
N1A N -0.25044(4) 0.41905(4) 0.25044(4)
N1CA N -0.24956(4) 0.24956(4) -0.08095(4)
N1Z N 0.24956(4) 0.08095(4) 0.24956(4)
N1B N -0.25044(4) 0.58095(4) -0.25044(4)
N1IA N -0.08095(4) 0.24956(4) -0.24956(4)
N1GA N -0.08095(4) -0.24956(4) 0.24956(4)
N1C N 0.25044(4) 0.41905(4) -0.25044(4)
C1T C 0.27087(5) 0.56011(4) 0.21488(5)
C1HA C 0.06011(4) 0.22913(5) 0.28512(5)
C1LA C 0.06011(4) 0.28512(5) 0.22913(5)
C1P C 0.21488(5) 0.27087(5) 0.56011(4)
C1D C 0.27087(5) 0.21488(5) 0.56011(4)
C1H C 0.56011(4) 0.27087(5) 0.21488(5)
C1L C 0.56011(4) 0.21488(5) 0.27087(5)
C1DA C 0.22913(5) 0.28512(5) 0.06011(4)
C1PA C 0.28512(5) 0.22913(5) 0.06011(4)
C1G C -0.27087(5) 0.21488(5) 0.43989(4)
C1Q C -0.21488(5) 0.27087(5) 0.43989(4)
C1SA C -0.22913(5) -0.06011(4) 0.28512(5)
C1AA C -0.28512(5) -0.06011(4) 0.22913(5)
C1W C -0.27087(5) 0.43989(4) 0.21488(5)
C1A C -0.21488(5) 0.43989(4) 0.27087(5)
C1CA C -0.22913(5) 0.28512(5) -0.06011(4)
C1QA C -0.28512(5) 0.22913(5) -0.06011(4)
C1Z C 0.28512(5) 0.06011(4) 0.22913(5)
C1TA C 0.22913(5) 0.06011(4) 0.28512(5)
C1B C -0.21488(5) 0.56011(4) -0.27087(5)
C1V C -0.27087(5) 0.56011(4) -0.21488(5)
C1IA C -0.06011(4) 0.22913(5) -0.28512(5)
C1KA C -0.06011(4) 0.28512(5) -0.22913(5)
H1T H 0.2952 0.5749 0.1997
H1HA H 0.0749 0.2048 0.3003
H1LA H 0.0749 0.3003 0.2048
H1P H 0.1997 0.2952 0.5749
H1D H 0.2952 0.1997 0.5749
H1H H 0.5749 0.2952 0.1997
H1L H 0.5749 0.1997 0.2952
H1DA H 0.2048 0.3003 0.0749
H1PA H 0.3003 0.2048 0.0749
H1G H -0.2952 0.1997 0.4251
H1Q H -0.1997 0.2952 0.4251
H1SA H -0.2048 -0.0749 0.3003
H1AA H -0.3003 -0.0749 0.2048
H1W H -0.2952 0.4251 0.1997
H1A H -0.1997 0.4251 0.2952
H1CA H -0.2048 0.3003 -0.0749
H1QA H -0.3003 0.2048 -0.0749
H1Z H 0.3003 0.0749 0.2048
H1TA H 0.2048 0.0749 0.3003
H1B H -0.1997 0.5749 -0.2952
H1V H -0.2952 0.5749 -0.1997
H1IA H -0.0749 0.2048 -0.3003
H1KA H -0.0749 0.3003 -0.2048
C2T C 0.25701(5) 0.51788(4) 0.20035(5)
C2HA C 0.01788(4) 0.24299(5) 0.29965(5)
C2LA C 0.01788(4) 0.29965(5) 0.24299(5)
C2P C 0.20035(5) 0.25701(5) 0.51788(4)
C2D C 0.25701(5) 0.20035(5) 0.51788(4)
C2H C 0.51788(4) 0.25701(5) 0.20035(5)
C2L C 0.51788(4) 0.20035(5) 0.25701(5)
C2DA C 0.24299(5) 0.29965(5) 0.01788(4)
C2PA C 0.29965(5) 0.24299(5) 0.01788(4)
C2G C -0.25701(5) 0.20035(5) 0.48212(4)
C2Q C -0.20035(5) 0.25701(5) 0.48212(4)
C2SA C -0.24299(5) -0.01788(4) 0.29965(5)
C2AA C -0.29965(5) -0.01788(4) 0.24299(5)
C2W C -0.25701(5) 0.48212(4) 0.20035(5)
C2A C -0.20035(5) 0.48212(4) 0.25701(5)
C2CA C -0.24299(5) 0.29965(5) -0.01788(4)
C2QA C -0.29965(5) 0.24299(5) -0.01788(4)
C2Z C 0.29965(5) 0.01788(4) 0.24299(5)
C2TA C 0.24299(5) 0.01788(4) 0.29965(5)
C2B C -0.20035(5) 0.51788(4) -0.25701(5)
C2V C -0.25701(5) 0.51788(4) -0.20035(5)
C2IA C -0.01788(4) 0.24299(5) -0.29965(5)
C2KA C -0.01788(4) 0.29965(5) -0.24299(5)
H2T H 0.2720 0.5037 0.1756
H2HA H 0.0037 0.2280 0.3244
H2LA H 0.0037 0.3244 0.2280
H2P H 0.1756 0.2720 0.5037
H2D H 0.2720 0.1756 0.5037
H2H H 0.5037 0.2720 0.1756
H2L H 0.5037 0.1756 0.2720
H2DA H 0.2280 0.3244 0.0037
H2PA H 0.3244 0.2280 0.0037
H2G H -0.2720 0.1756 0.4963
H2Q H -0.1756 0.2720 0.4963
H2SA H -0.2280 -0.0037 0.3244
H2AA H -0.3244 -0.0037 0.2280
H2W H -0.2720 0.4963 0.1756
H2A H -0.1756 0.4963 0.2720
H2CA H -0.2280 0.3244 -0.0037
H2QA H -0.3244 0.2280 -0.0037
H2Z H 0.3244 0.0037 0.2280
H2TA H 0.2280 0.0037 0.3244
H2B H -0.1756 0.5037 -0.2720
H2V H -0.2720 0.5037 -0.1756
H2IA H -0.0037 0.2280 -0.3244
H2KA H -0.0037 0.3244 -0.2280
C3HA C -0.00371(5) 0.27848(5) 0.27848(5)
C3D C 0.22152(5) 0.22152(5) 0.49629(5)
C3H C 0.49629(5) 0.22152(5) 0.22152(5)
C3DA C 0.27848(5) 0.27848(5) -0.00371(5)
C3G C -0.22152(5) 0.22152(5) 0.50371(5)
C3AA C -0.27848(5) 0.00371(5) 0.27848(5)
C3A C -0.22152(5) 0.50371(5) 0.22152(5)
C3CA C -0.27848(5) 0.27848(5) 0.00371(5)
C3Z C 0.27848(5) -0.00371(5) 0.27848(5)
C3B C -0.22152(5) 0.49629(5) -0.22152(5)
C3IA C 0.00371(5) 0.27848(5) -0.27848(5)
C4HA C -0.05240(7) 0.29042(6) 0.29042(6)
C4D C 0.20958(6) 0.20958(6) 0.44760(7)
C4H C 0.44760(7) 0.20958(6) 0.20958(6)
C4DA C 0.29042(6) 0.29042(6) -0.05240(7)
C4G C -0.20958(6) 0.20958(6) 0.55240(7)
C4AA C -0.29042(6) 0.05240(7) 0.29042(6)
C4A C -0.20958(6) 0.55240(7) 0.20958(6)
C4CA C -0.29042(6) 0.29042(6) 0.05240(7)
C4Z C 0.29042(6) -0.05240(7) 0.29042(6)
C4B C -0.20958(6) 0.44760(7) -0.20958(6)
C4IA C 0.05240(7) 0.29042(6) -0.29042(6)
C5T C 0.23350(7) 0.42428(6) 0.17766(7)
C5HA C -0.07572(6) 0.26650(7) 0.32234(7)
C5LA C -0.07572(6) 0.32234(7) 0.26650(7)
C5P C 0.17766(7) 0.23350(7) 0.42428(6)
C5D C 0.23350(7) 0.17766(7) 0.42428(6)
C5H C 0.42428(6) 0.23350(7) 0.17766(7)
C5L C 0.42428(6) 0.17766(7) 0.23350(7)
C5DA C 0.26650(7) 0.32234(7) -0.07572(6)
C5PA C 0.32234(7) 0.26650(7) -0.07572(6)
C5G C -0.23350(7) 0.17766(7) 0.57572(6)
C5Q C -0.17766(7) 0.23350(7) 0.57572(6)
C5SA C -0.26650(7) 0.07572(6) 0.32234(7)
C5AA C -0.32234(7) 0.07572(6) 0.26650(7)
C5W C -0.23350(7) 0.57572(6) 0.17766(7)
C5A C -0.17766(7) 0.57572(6) 0.23350(7)
C5CA C -0.26650(7) 0.32234(7) 0.07572(6)
C5QA C -0.32234(7) 0.26650(7) 0.07572(6)
C5Z C 0.32234(7) -0.07572(6) 0.26650(7)
C5TA C 0.26650(7) -0.07572(6) 0.32234(7)
C5B C -0.17766(7) 0.42428(6) -0.23350(7)
C5V C -0.23350(7) 0.42428(6) -0.17766(7)
C5IA C 0.07572(6) 0.26650(7) -0.32234(7)
C5KA C 0.07572(6) 0.32234(7) -0.26650(7)
H3T H 0.2550 0.4400 0.1595
H3HA H -0.0600 0.2450 0.3405
H3LA H -0.0600 0.3405 0.2450
H3P H 0.1595 0.2550 0.4400
H3D H 0.2550 0.1595 0.4400
H3H H 0.4400 0.2550 0.1595
H3L H 0.4400 0.1595 0.2550
H3DA H 0.2450 0.3405 -0.0600
H3PA H 0.3405 0.2450 -0.0600
H3G H -0.2550 0.1595 0.5600
H3Q H -0.1595 0.2550 0.5600
H3SA H -0.2450 0.0600 0.3405
H3AA H -0.3405 0.0600 0.2450
H3W H -0.2550 0.5600 0.1595
H3A H -0.1595 0.5600 0.2550
H3CA H -0.2450 0.3405 0.0600
H3QA H -0.3405 0.2450 0.0600
H3Z H 0.3405 -0.0600 0.2450
H3TA H 0.2450 -0.0600 0.3405
H3B H -0.1595 0.4400 -0.2550
H3V H -0.2550 0.4400 -0.1595
H3IA H 0.0600 0.2450 -0.3405
H3KA H 0.0600 0.3405 -0.2450
C6T C 0.22726(6) 0.37894(5) 0.17110(5)
C6HA C -0.12106(5) 0.27274(6) 0.32890(5)
C6LA C -0.12106(5) 0.32890(5) 0.27274(6)
C6P C 0.17110(5) 0.22726(6) 0.37894(5)
C6D C 0.22726(6) 0.17110(5) 0.37894(5)
C6H C 0.37894(5) 0.22726(6) 0.17110(5)
C6L C 0.37894(5) 0.17110(5) 0.22726(6)
C6DA C 0.27274(6) 0.32890(5) -0.12106(5)
C6PA C 0.32890(5) 0.27274(6) -0.12106(5)
C6G C -0.22726(6) 0.17110(5) 0.62106(5)
C6Q C -0.17110(5) 0.22726(6) 0.62106(5)
C6SA C -0.27274(6) 0.12106(5) 0.32890(5)
C6AA C -0.32890(5) 0.12106(5) 0.27274(6)
C6W C -0.22726(6) 0.62106(5) 0.17110(5)
C6A C -0.17110(5) 0.62106(5) 0.22726(6)
C6CA C -0.27274(6) 0.32890(5) 0.12106(5)
C6QA C -0.32890(5) 0.27274(6) 0.12106(5)
C6Z C 0.32890(5) -0.12106(5) 0.27274(6)
C6TA C 0.27274(6) -0.12106(5) 0.32890(5)
C6B C -0.17110(5) 0.37894(5) -0.22726(6)
C6V C -0.22726(6) 0.37894(5) -0.17110(5)
C6IA C 0.12106(5) 0.27274(6) -0.32890(5)
C6KA C 0.12106(5) 0.32890(5) -0.27274(6)
H4T H 0.2449 0.3636 0.1489
H4HA H -0.1364 0.2551 0.3511
H4LA H -0.1364 0.3511 0.2551
H4P H 0.1489 0.2449 0.3636
H4D H 0.2449 0.1489 0.3636
H4H H 0.3636 0.2449 0.1489
H4L H 0.3636 0.1489 0.2449
H4DA H 0.2551 0.3511 -0.1364
H4PA H 0.3511 0.2551 -0.1364
H4G H -0.2449 0.1489 0.6364
H4Q H -0.1489 0.2449 0.6364
H4SA H -0.2551 0.1364 0.3511
H4AA H -0.3511 0.1364 0.2551
H4W H -0.2449 0.6364 0.1489
H4A H -0.1489 0.6364 0.2449
H4CA H -0.2551 0.3511 0.1364
H4QA H -0.3511 0.2551 0.1364
H4Z H 0.3511 -0.1364 0.2551
H4TA H 0.2551 -0.1364 0.3511
H4B H -0.1489 0.3636 -0.2449
H4V H -0.2449 0.3636 -0.1489
H4IA H 0.1364 0.2551 -0.3511
H4KA H 0.1364 0.3511 -0.2551
C7HA C -0.14496(6) 0.30400(5) 0.30400(5)
C7D C 0.19600(5) 0.19600(5) 0.35504(6)
C7H C 0.35504(6) 0.19600(5) 0.19600(5)
C7DA C 0.30400(5) 0.30400(5) -0.14496(6)
C7G C -0.19600(5) 0.19600(5) 0.64496(6)
C7AA C -0.30400(5) 0.14496(6) 0.30400(5)
C7A C -0.19600(5) 0.64496(6) 0.19600(5)
C7CA C -0.30400(5) 0.30400(5) 0.14496(6)
C7Z C 0.30400(5) -0.14496(6) 0.30400(5)
C7B C -0.19600(5) 0.35504(6) -0.19600(5)
C7IA C 0.14496(6) 0.30400(5) -0.30400(5)
C8HA C -0.19561(5) 0.30855(4) 0.30855(4)
C8D C 0.19145(4) 0.19145(4) 0.30439(5)
C8H C 0.30439(5) 0.19145(4) 0.19145(4)
C8DA C 0.30855(4) 0.30855(4) -0.19561(5)
C8G C -0.19145(4) 0.19145(4) 0.69561(5)
C8AA C -0.30855(4) 0.19561(5) 0.30855(4)
C8A C -0.19145(4) 0.69561(5) 0.19145(4)
C8CA C -0.30855(4) 0.30855(4) 0.19561(5)
C8Z C 0.30855(4) -0.19561(5) 0.30855(4)
C8B C -0.19145(4) 0.30439(5) -0.19145(4)
C8IA C 0.19561(5) 0.30855(4) -0.30855(4)
C9B C -0.12063(4) 0.23207(6) -0.12063(4)
C9D C 0.12063(4) 0.12063(4) 0.23207(6)
C9F C -0.12063(4) -0.12063(4) 0.23207(6)
C9H C 0.23207(6) 0.12063(4) 0.12063(4)
C9J C 0.23207(6) -0.12063(4) -0.12063(4)
C9HA C -0.26793(6) 0.37937(4) 0.37937(4)
C9FA C -0.26793(6) 0.62063(4) 0.62063(4)
C9AA C -0.37937(4) 0.26793(6) 0.37937(4)
C9Y C -0.62063(4) 0.26793(6) 0.62063(4)
C9CA C -0.37937(4) 0.37937(4) 0.26793(6)
C9EA C -0.62063(4) 0.62063(4) 0.26793(6)
C10B C -0.08500(4) 0.23955(7) -0.08500(4)
C10D C 0.08500(4) 0.08500(4) 0.23955(7)
C10F C -0.08500(4) -0.08500(4) 0.23955(7)
C10H C 0.23955(7) 0.08500(4) 0.08500(4)
C10J C 0.23955(7) -0.08500(4) -0.08500(4)
C10HA C -0.26045(7) 0.41500(4) 0.41500(4)
C10FA C -0.26045(7) 0.58500(4) 0.58500(4)
C10AA C -0.41500(4) 0.26045(7) 0.41500(4)
C10Y C -0.58500(4) 0.26045(7) 0.58500(4)
C10CA C -0.41500(4) 0.41500(4) 0.26045(7)
C10EA C -0.58500(4) 0.58500(4) 0.26045(7)
C11T C 0.09598(6) 0.24211(6) 0.03987(6)
C11B C -0.03987(6) 0.24211(6) -0.09598(6)
C11V C -0.09598(6) 0.24211(6) -0.03987(6)
C11P C 0.03987(6) 0.09598(6) 0.24211(6)
C11D C 0.09598(6) 0.03987(6) 0.24211(6)
C11R C -0.03987(6) -0.09598(6) 0.24211(6)
C11F C -0.09598(6) -0.03987(6) 0.24211(6)
C11H C 0.24211(6) 0.09598(6) 0.03987(6)
C11L C 0.24211(6) 0.03987(6) 0.09598(6)
C11J C 0.24211(6) -0.09598(6) -0.03987(6)
C11N C 0.24211(6) -0.03987(6) -0.09598(6)
C11HA C -0.25789(6) 0.40402(6) 0.46013(6)
C11LA C -0.25789(6) 0.46013(6) 0.40402(6)
C11FA C -0.25789(6) 0.59598(6) 0.53987(6)
C11JA C -0.25789(6) 0.53987(6) 0.59598(6)
C11SA C -0.40402(6) 0.25789(6) 0.46013(6)
C11AA C -0.46013(6) 0.25789(6) 0.40402(6)
C11UA C -0.59598(6) 0.25789(6) 0.53987(6)
C11Y C -0.53987(6) 0.25789(6) 0.59598(6)
C11CA C -0.40402(6) 0.46013(6) 0.25789(6)
C11QA C -0.46013(6) 0.40402(6) 0.25789(6)
C11EA C -0.59598(6) 0.53987(6) 0.25789(6)
C11OA C -0.53987(6) 0.59598(6) 0.25789(6)
H5T H 0.1269 0.2405 0.0311
H5V H -0.1269 0.2405 -0.0311
H5B H -0.0311 0.2405 -0.1269
H5P H 0.0311 0.1269 0.2405
H5D H 0.1269 0.0311 0.2405
H5F H -0.1269 -0.0311 0.2405
H5R H -0.0311 -0.1269 0.2405
H5H H 0.2405 0.1269 0.0311
H5L H 0.2405 0.0311 0.1269
H5N H 0.2405 -0.0311 -0.1269
H5J H 0.2405 -0.1269 -0.0311
H5HA H -0.2595 0.3731 0.4689
H5LA H -0.2595 0.4689 0.3731
H5JA H -0.2595 0.5311 0.6269
H5FA H -0.2595 0.6269 0.5311
H5SA H -0.3731 0.2595 0.4689
H5AA H -0.4689 0.2595 0.3731
H5Y H -0.5311 0.2595 0.6269
H5UA H -0.6269 0.2595 0.5311
H5CA H -0.3731 0.4689 0.2595
H5QA H -0.4689 0.3731 0.2595
H5OA H -0.5311 0.6269 0.2595
H5EA H -0.6269 0.5311 0.2595
C12T C 0.06336(6) 0.24691(8) 0.00714(7)
C12B C -0.00714(7) 0.24691(8) -0.06336(6)
C12V C -0.06336(6) 0.24691(8) -0.00714(7)
C12P C 0.00714(7) 0.06336(6) 0.24691(8)
C12D C 0.06336(6) 0.00714(7) 0.24691(8)
C12R C -0.00714(7) -0.06336(6) 0.24691(8)
C12F C -0.06336(6) -0.00714(7) 0.24691(8)
C12H C 0.24691(8) 0.06336(6) 0.00714(7)
C12L C 0.24691(8) 0.00714(7) 0.06336(6)
C12J C 0.24691(8) -0.06336(6) -0.00714(7)
C12N C 0.24691(8) -0.00714(7) -0.06336(6)
C12HA C -0.25309(8) 0.43664(6) 0.49286(7)
C12LA C -0.25309(8) 0.49286(7) 0.43664(6)
C12FA C -0.25309(8) 0.56336(6) 0.50714(7)
C12JA C -0.25309(8) 0.50714(7) 0.56336(6)
C12SA C -0.43664(6) 0.25309(8) 0.49286(7)
C12AA C -0.49286(7) 0.25309(8) 0.43664(6)
C12UA C -0.56336(6) 0.25309(8) 0.50714(7)
C12Y C -0.50714(7) 0.25309(8) 0.56336(6)
C12CA C -0.43664(6) 0.49286(7) 0.25309(8)
C12QA C -0.49286(7) 0.43664(6) 0.25309(8)
C12EA C -0.56336(6) 0.50714(7) 0.25309(8)
C12OA C -0.50714(7) 0.56336(6) 0.25309(8)
H6T H 0.0722 0.2488 -0.0238
H6V H -0.0722 0.2488 0.0238
H6B H 0.0238 0.2488 -0.0722
H6P H -0.0238 0.0722 0.2488
H6D H 0.0722 -0.0238 0.2488
H6F H -0.0722 0.0238 0.2488
H6R H 0.0238 -0.0722 0.2488
H6H H 0.2488 0.0722 -0.0238
H6L H 0.2488 -0.0238 0.0722
H6N H 0.2488 0.0238 -0.0722
H6J H 0.2488 -0.0722 0.0238
H6HA H -0.2512 0.4278 0.5238
H6LA H -0.2512 0.5238 0.4278
H6JA H -0.2512 0.4762 0.5722
H6FA H -0.2512 0.5722 0.4762
H6SA H -0.4278 0.2512 0.5238
H6AA H -0.5238 0.2512 0.4278
H6Y H -0.4762 0.2512 0.5722
H6UA H -0.5722 0.2512 0.4762
H6CA H -0.4278 0.5238 0.2512
H6QA H -0.5238 0.4278 0.2512
H6OA H -0.4762 0.5722 0.2512
H6EA H -0.5722 0.4762 0.2512
C13B C -0.01808(4) 0.24909(9) -0.01808(4)
C13D C 0.01808(4) 0.01808(4) 0.24909(9)
C13F C -0.01808(4) -0.01808(4) 0.24909(9)
C13H C 0.24909(9) 0.01808(4) 0.01808(4)
C13J C 0.24909(9) -0.01808(4) -0.01808(4)
C13HA C -0.25091(9) 0.48192(4) 0.48192(4)
C13FA C -0.25091(9) 0.51808(4) 0.51808(4)
C13AA C -0.48192(4) 0.25091(9) 0.48192(4)
C13Y C -0.51808(4) 0.25091(9) 0.51808(4)
C13CA C -0.48192(4) 0.48192(4) 0.25091(9)
C13EA C -0.51808(4) 0.51808(4) 0.25091(9)
loop_
_geom_bond_atom_site_label_1
_geom_bond_atom_site_label_2
_geom_bond_site_symmetry_1
_geom_bond_site_symmetry_2
Ni1 O1 1_555 1_555
O1 Ni1H 1_555 1_555
O2 Ni1 1_555 1_555
O3 Ni1 1_555 1_555
N1 C1 1_555 1_555
C1 H1 1_555 1_555
C2 C1 1_555 1_555
H2 C2 1_555 1_555
C3 C2 1_555 1_555
C4 C3 1_555 1_555
C5 C4 1_555 1_555
H3 C5 1_555 1_555
C6 C5 1_555 1_555
H4 C6 1_555 1_555
C7 C6 1_555 1_555
C8 O2 1_555 1_555
C9 O3 1_555 1_555
C10 C9 1_555 1_555
C11 C10 1_555 1_555
H5 C11 1_555 1_555
C12 C11 1_555 1_555
H6 C12 1_555 1_555
C13 C12 1_555 1_555
Ni1H O2T 1_555 1_555
Ni1HA O1AA 1_555 1_555
Ni1CA O1AA 1_555 1_555
Ni1D O1 1_555 1_555
Ni1B O1B 1_555 1_555
Ni1I O1B 1_555 1_555
Ni1A O1A 1_555 1_555
Ni1F O1A 1_555 1_555
Ni1EA N1 1_555 1_555
Ni1IA O1Y 1_555 1_555
Ni1DA O1Y_2 1_555 1_555
Ni1AA N1H 1_555 1_555
Ni1J O3J 1_555 1_555
Ni1E O3N 1_555 1_555
Ni1Y O1Y_2 1_555 1_555
Ni1AA_2 O1AA 1_555 1_555
Ni1FA O3FA 1_555 1_555
Ni1BA O3JA 1_555 1_555
Ni1G O2G 1_555 1_555
Ni1B_2 O2Q 1_555 1_555
Ni1IA_2 O3UA 1_555 1_555
Ni1Y_2 O3Y 1_555 1_555
Ni1K O2W 1_555 1_555
Ni1A_2 O2A 1_555 1_555
Ni1EA_2 O3EA 1_555 1_555
Ni1Z O3OA 1_555 1_555
Ni1Z_2 O2Z 1_555 1_555
Ni1GA O2TA 1_555 1_555
Ni1G_2 O1B 1_555 1_555
Ni1BA_2 N1B 1_555 1_555
Ni1IA_3 O1Y_2 1_555 1_555
Ni1K_2 O1A 1_555 1_555
O1Z Ni1EA 1_555 1_555
O2T C8 1_555 1_555
O2HA Ni1HA 1_555 1_555
O2LA Ni1CA 1_555 1_555
O2P Ni1 1_555 1_555
O2D Ni1D 1_555 1_555
O2H Ni1H 1_555 1_555
O2L Ni1D 1_555 1_555
O2DA Ni1DA 1_555 1_555
O2PA Ni1Y 1_555 1_555
O2G C8G 1_555 1_555
O2Q C8G 1_555 1_555
O2SA Ni1HA 1_555 1_555
O2AA Ni1AA_2 1_555 1_555
O2W C8A 1_555 1_555
O2A C8A 1_555 1_555
O2CA Ni1CA 1_555 1_555
O2QA Ni1AA_2 1_555 1_555
O2Z C8Z 1_555 1_555
O2TA C8Z 1_555 1_555
O2B Ni1B 1_555 1_555
O2V Ni1I 1_555 1_555
O2IA Ni1IA_3 1_555 1_555
O2KA Ni1DA 1_555 1_555
O2Q_2 Ni1B 1_555 1_555
O2I Ni1I 1_555 1_555
O2R Ni1A 1_555 1_555
O2A_2 Ni1A 1_555 1_555
O2F Ni1F 1_555 1_555
O2M Ni1F 1_555 1_555
O2EA Ni1EA 1_555 1_555
O2MA Ni1EA 1_555 1_555
O2UA Ni1IA 1_555 1_555
O2IA_2 Ni1IA 1_555 1_555
O3T C9 1_555 1_555
O3B Ni1B 1_555 1_555
O3V Ni1I 1_555 1_555
O3P Ni1 1_555 1_555
O3D Ni1D 1_555 1_555
O3R Ni1A 1_555 1_555
O3F Ni1F 1_555 1_555
O3H Ni1H 1_555 1_555
O3L Ni1D 1_555 1_555
O3J C9J 1_555 1_555
O3N C9J 1_555 1_555
O3HA Ni1HA 1_555 1_555
O3LA Ni1CA 1_555 1_555
O3FA C9FA 1_555 1_555
O3JA C9FA 1_555 1_555
O3SA Ni1HA 1_555 1_555
O3AA Ni1AA_2 1_555 1_555
O3UA C9Y 1_555 1_555
O3Y C9Y 1_555 1_555
O3CA Ni1CA 1_555 1_555
O3QA Ni1AA_2 1_555 1_555
O3EA C9EA 1_555 1_555
O3OA C9EA 1_555 1_555
O3Q Ni1B 1_555 1_555
O3I Ni1I 1_555 1_555
O3A Ni1A 1_555 1_555
O3M Ni1F 1_555 1_555
O3EA_2 Ni1EA 1_555 1_555
O3MA Ni1EA 1_555 1_555
O3UA_2 Ni1IA 1_555 1_555
O3IA Ni1IA 1_555 1_555
O3DA Ni1DA 1_555 1_555
O3KA Ni1DA 1_555 1_555
N1HA Ni1 1_555 1_555
N1D Ni1IA 1_555 1_555
N1H C1H 1_555 1_555
N1DA Ni1H 1_555 1_555
N1G Ni1HA 1_555 1_555
N1AA Ni1F 1_555 1_555
N1A Ni1CA 1_555 1_555
N1CA Ni1I 1_555 1_555
N1Z Ni1D 1_555 1_555
N1B C1B 1_555 1_555
N1IA Ni1B 1_555 1_555
N1GA Ni1A 1_555 1_555
N1C Ni1DA 1_555 1_555
C1T N1 1_555 1_555
C1HA N1HA 1_555 1_555
C1LA N1HA 1_555 1_555
C1P N1D 1_555 1_555
C1D N1D 1_555 1_555
C1H H1H 1_555 1_555
C1L N1H 1_555 1_555
C1DA N1DA 1_555 1_555
C1PA N1DA 1_555 1_555
C1G N1G 1_555 1_555
C1Q N1G 1_555 1_555
C1SA N1AA 1_555 1_555
C1AA N1AA 1_555 1_555
C1W N1A 1_555 1_555
C1A N1A 1_555 1_555
C1CA N1CA 1_555 1_555
C1QA N1CA 1_555 1_555
C1Z N1Z 1_555 1_555
C1TA N1Z 1_555 1_555
C1B H1B 1_555 1_555
C1V N1B 1_555 1_555
C1IA N1IA 1_555 1_555
C1KA N1IA 1_555 1_555
H1T C1T 1_555 1_555
H1HA C1HA 1_555 1_555
H1LA C1LA 1_555 1_555
H1P C1P 1_555 1_555
H1D C1D 1_555 1_555
H1L C1L 1_555 1_555
H1DA C1DA 1_555 1_555
H1PA C1PA 1_555 1_555
H1G C1G 1_555 1_555
H1Q C1Q 1_555 1_555
H1SA C1SA 1_555 1_555
H1AA C1AA 1_555 1_555
H1W C1W 1_555 1_555
H1A C1A 1_555 1_555
H1CA C1CA 1_555 1_555
H1QA C1QA 1_555 1_555
H1Z C1Z 1_555 1_555
H1TA C1TA 1_555 1_555
H1V C1V 1_555 1_555
H1IA C1IA 1_555 1_555
H1KA C1KA 1_555 1_555
C2T C3 1_555 1_555
C2HA C1HA 1_555 1_555
C2LA C1LA 1_555 1_555
C2P C1P 1_555 1_555
C2D C1D 1_555 1_555
C2H C1H 1_555 1_555
C2L C1L 1_555 1_555
C2DA C1DA 1_555 1_555
C2PA C1PA 1_555 1_555
C2G C1G 1_555 1_555
C2Q C1Q 1_555 1_555
C2SA C1SA 1_555 1_555
C2AA C1AA 1_555 1_555
C2W C1W 1_555 1_555
C2A C1A 1_555 1_555
C2CA C1CA 1_555 1_555
C2QA C1QA 1_555 1_555
C2Z C1Z 1_555 1_555
C2TA C1TA 1_555 1_555
C2B C1B 1_555 1_555
C2V C1V 1_555 1_555
C2IA C1IA 1_555 1_555
C2KA C1KA 1_555 1_555
H2T C2T 1_555 1_555
H2HA C2HA 1_555 1_555
H2LA C2LA 1_555 1_555
H2P C2P 1_555 1_555
H2D C2D 1_555 1_555
H2H C2H 1_555 1_555
H2L C2L 1_555 1_555
H2DA C2DA 1_555 1_555
H2PA C2PA 1_555 1_555
H2G C2G 1_555 1_555
H2Q C2Q 1_555 1_555
H2SA C2SA 1_555 1_555
H2AA C2AA 1_555 1_555
H2W C2W 1_555 1_555
H2A C2A 1_555 1_555
H2CA C2CA 1_555 1_555
H2QA C2QA 1_555 1_555
H2Z C2Z 1_555 1_555
H2TA C2TA 1_555 1_555
H2B C2B 1_555 1_555
H2V C2V 1_555 1_555
H2IA C2IA 1_555 1_555
H2KA C2KA 1_555 1_555
C3HA C2HA 1_555 1_555
C3D C2P 1_555 1_555
C3H C2H 1_555 1_555
C3DA C2DA 1_555 1_555
C3G C2G 1_555 1_555
C3AA C2SA 1_555 1_555
C3A C2W 1_555 1_555
C3CA C2CA 1_555 1_555
C3Z C2Z 1_555 1_555
C3B C2B 1_555 1_555
C3IA C2IA 1_555 1_555
C4HA C3HA 1_555 1_555
C4D C3D 1_555 1_555
C4H C3H 1_555 1_555
C4DA C3DA 1_555 1_555
C4G C3G 1_555 1_555
C4AA C3AA 1_555 1_555
C4A C3A 1_555 1_555
C4CA C3CA 1_555 1_555
C4Z C3Z 1_555 1_555
C4B C3B 1_555 1_555
C4IA C3IA 1_555 1_555
C5T C4 1_555 1_555
C5HA C4HA 1_555 1_555
C5LA C4HA 1_555 1_555
C5P C4D 1_555 1_555
C5D C4D 1_555 1_555
C5H C4H 1_555 1_555
C5L C4H 1_555 1_555
C5DA C4DA 1_555 1_555
C5PA C4DA 1_555 1_555
C5G C4G 1_555 1_555
C5Q C4G 1_555 1_555
C5SA C4AA 1_555 1_555
C5AA C4AA 1_555 1_555
C5W C4A 1_555 1_555
C5A C4A 1_555 1_555
C5CA C4CA 1_555 1_555
C5QA C4CA 1_555 1_555
C5Z C4Z 1_555 1_555
C5TA C4Z 1_555 1_555
C5B C4B 1_555 1_555
C5V C4B 1_555 1_555
C5IA C4IA 1_555 1_555
C5KA C4IA 1_555 1_555
H3T C5T 1_555 1_555
H3HA C5HA 1_555 1_555
H3LA C5LA 1_555 1_555
H3P C5P 1_555 1_555
H3D C5D 1_555 1_555
H3H C5H 1_555 1_555
H3L C5L 1_555 1_555
H3DA C5DA 1_555 1_555
H3PA C5PA 1_555 1_555
H3G C5G 1_555 1_555
H3Q C5Q 1_555 1_555
H3SA C5SA 1_555 1_555
H3AA C5AA 1_555 1_555
H3W C5W 1_555 1_555
H3A C5A 1_555 1_555
H3CA C5CA 1_555 1_555
H3QA C5QA 1_555 1_555
H3Z C5Z 1_555 1_555
H3TA C5TA 1_555 1_555
H3B C5B 1_555 1_555
H3V C5V 1_555 1_555
H3IA C5IA 1_555 1_555
H3KA C5KA 1_555 1_555
C6T C7 1_555 1_555
C6HA C5HA 1_555 1_555
C6LA C5LA 1_555 1_555
C6P C5P 1_555 1_555
C6D C5D 1_555 1_555
C6H C5H 1_555 1_555
C6L C5L 1_555 1_555
C6DA C5DA 1_555 1_555
C6PA C5PA 1_555 1_555
C6G C5G 1_555 1_555
C6Q C5Q 1_555 1_555
C6SA C5SA 1_555 1_555
C6AA C5AA 1_555 1_555
C6W C5W 1_555 1_555
C6A C5A 1_555 1_555
C6CA C5CA 1_555 1_555
C6QA C5QA 1_555 1_555
C6Z C5Z 1_555 1_555
C6TA C5TA 1_555 1_555
C6B C5B 1_555 1_555
C6V C5V 1_555 1_555
C6IA C5IA 1_555 1_555
C6KA C5KA 1_555 1_555
H4T C6T 1_555 1_555
H4HA C6HA 1_555 1_555
H4LA C6LA 1_555 1_555
H4P C6P 1_555 1_555
H4D C6D 1_555 1_555
H4H C6H 1_555 1_555
H4L C6L 1_555 1_555
H4DA C6DA 1_555 1_555
H4PA C6PA 1_555 1_555
H4G C6G 1_555 1_555
H4Q C6Q 1_555 1_555
H4SA C6SA 1_555 1_555
H4AA C6AA 1_555 1_555
H4W C6W 1_555 1_555
H4A C6A 1_555 1_555
H4CA C6CA 1_555 1_555
H4QA C6QA 1_555 1_555
H4Z C6Z 1_555 1_555
H4TA C6TA 1_555 1_555
H4B C6B 1_555 1_555
H4V C6V 1_555 1_555
H4IA C6IA 1_555 1_555
H4KA C6KA 1_555 1_555
C7HA C6HA 1_555 1_555
C7D C6P 1_555 1_555
C7H C6H 1_555 1_555
C7DA C6DA 1_555 1_555
C7G C6G 1_555 1_555
C7AA C6SA 1_555 1_555
C7A C6W 1_555 1_555
C7CA C6CA 1_555 1_555
C7Z C6Z 1_555 1_555
C7B C6B 1_555 1_555
C7IA C6IA 1_555 1_555
C8HA O2HA 1_555 1_555
C8D O2P 1_555 1_555
C8H O2H 1_555 1_555
C8DA O2DA 1_555 1_555
C8G C7G 1_555 1_555
C8AA O2SA 1_555 1_555
C8A C7A 1_555 1_555
C8CA O2CA 1_555 1_555
C8Z C7Z 1_555 1_555
C8B O2B 1_555 1_555
C8IA O2IA 1_555 1_555
C9B O3B 1_555 1_555
C9D O3P 1_555 1_555
C9F O3R 1_555 1_555
C9H O3H 1_555 1_555
C9J C10J 1_555 1_555
C9HA O3HA 1_555 1_555
C9FA C10FA 1_555 1_555
C9AA O3SA 1_555 1_555
C9Y C10Y 1_555 1_555
C9CA O3CA 1_555 1_555
C9EA C10EA 1_555 1_555
C10B C9B 1_555 1_555
C10D C9D 1_555 1_555
C10F C9F 1_555 1_555
C10H C9H 1_555 1_555
C10J C11J 1_555 1_555
C10HA C9HA 1_555 1_555
C10FA C11FA 1_555 1_555
C10AA C9AA 1_555 1_555
C10Y C11UA 1_555 1_555
C10CA C9CA 1_555 1_555
C10EA C11EA 1_555 1_555
C11T C10 1_555 1_555
C11B C10B 1_555 1_555
C11V C10B 1_555 1_555
C11P C10D 1_555 1_555
C11D C10D 1_555 1_555
C11R C10F 1_555 1_555
C11F C10F 1_555 1_555
C11H C10H 1_555 1_555
C11L C10H 1_555 1_555
C11J H5J 1_555 1_555
C11N C10J 1_555 1_555
C11HA C10HA 1_555 1_555
C11LA C10HA 1_555 1_555
C11FA H5FA 1_555 1_555
C11JA C10FA 1_555 1_555
C11SA C10AA 1_555 1_555
C11AA C10AA 1_555 1_555
C11UA H5UA 1_555 1_555
C11Y C10Y 1_555 1_555
C11CA C10CA 1_555 1_555
C11QA C10CA 1_555 1_555
C11EA H5EA 1_555 1_555
C11OA C10EA 1_555 1_555
H5T C11T 1_555 1_555
H5V C11V 1_555 1_555
H5B C11B 1_555 1_555
H5P C11P 1_555 1_555
H5D C11D 1_555 1_555
H5F C11F 1_555 1_555
H5R C11R 1_555 1_555
H5H C11H 1_555 1_555
H5L C11L 1_555 1_555
H5N C11N 1_555 1_555
H5HA C11HA 1_555 1_555
H5LA C11LA 1_555 1_555
H5JA C11JA 1_555 1_555
H5SA C11SA 1_555 1_555
H5AA C11AA 1_555 1_555
H5Y C11Y 1_555 1_555
H5CA C11CA 1_555 1_555
H5QA C11QA 1_555 1_555
H5OA C11OA 1_555 1_555
C12T C13 1_555 1_555
C12B C11B 1_555 1_555
C12V C11V 1_555 1_555
C12P C11P 1_555 1_555
C12D C11D 1_555 1_555
C12R C11R 1_555 1_555
C12F C11F 1_555 1_555
C12H C11H 1_555 1_555
C12L C11L 1_555 1_555
C12J C11J 1_555 1_555
C12N C11N 1_555 1_555
C12HA C11HA 1_555 1_555
C12LA C11LA 1_555 1_555
C12FA C11FA 1_555 1_555
C12JA C11JA 1_555 1_555
C12SA C11SA 1_555 1_555
C12AA C11AA 1_555 1_555
C12UA C11UA 1_555 1_555
C12Y C11Y 1_555 1_555
C12CA C11CA 1_555 1_555
C12QA C11QA 1_555 1_555
C12EA C11EA 1_555 1_555
C12OA C11OA 1_555 1_555
H6T C12T 1_555 1_555
H6V C12V 1_555 1_555
H6B C12B 1_555 1_555
H6P C12P 1_555 1_555
H6D C12D 1_555 1_555
H6F C12F 1_555 1_555
H6R C12R 1_555 1_555
H6H C12H 1_555 1_555
H6L C12L 1_555 1_555
H6N C12N 1_555 1_555
H6J C12J 1_555 1_555
H6HA C12HA 1_555 1_555
H6LA C12LA 1_555 1_555
H6JA C12JA 1_555 1_555
H6FA C12FA 1_555 1_555
H6SA C12SA 1_555 1_555
H6AA C12AA 1_555 1_555
H6Y C12Y 1_555 1_555
H6UA C12UA 1_555 1_555
H6CA C12CA 1_555 1_555
H6QA C12QA 1_555 1_555
H6OA C12OA 1_555 1_555
H6EA C12EA 1_555 1_555
C13B C13 1_555 1_555
C13D C12P 1_555 1_555
C13F C12R 1_555 1_555
C13H C12H 1_555 1_555
C13J C12J 1_555 1_555
C13HA C12HA 1_555 1_555
C13FA C12FA 1_555 1_555
C13AA C12SA 1_555 1_555
C13Y C12UA 1_555 1_555
C13CA C12CA 1_555 1_555
C13EA C12EA 1_555 1_555
C7 C8 1_555 1_555
Ni1H O3T 1_555 1_555
O2LA C8HA 1_555 1_555
O2D C8D 1_555 1_555
O2L C8H 1_555 1_555
O2PA C8DA 1_555 1_555
O2AA C8AA 1_555 1_555
O2QA C8CA 1_555 1_555
O2V C8B 1_555 1_555
O2KA C8IA 1_555 1_555
O3V C9B 1_555 1_555
O3D C9D 1_555 1_555
O3F C9F 1_555 1_555
O3L C9H 1_555 1_555
O3LA C9HA 1_555 1_555
O3AA C9AA 1_555 1_555
O3QA C9CA 1_555 1_555
C1T C2T 1_555 1_555
C2LA C3HA 1_555 1_555
C2D C3D 1_555 1_555
C2L C3H 1_555 1_555
C2PA C3DA 1_555 1_555
C2Q C3G 1_555 1_555
C2AA C3AA 1_555 1_555
C2A C3A 1_555 1_555
C2QA C3CA 1_555 1_555
C2TA C3Z 1_555 1_555
C2V C3B 1_555 1_555
C2KA C3IA 1_555 1_555
C5T C6T 1_555 1_555
C6LA C7HA 1_555 1_555
C6D C7D 1_555 1_555
C6L C7H 1_555 1_555
C6PA C7DA 1_555 1_555
C6Q C7G 1_555 1_555
C6AA C7AA 1_555 1_555
C6A C7A 1_555 1_555
C6QA C7CA 1_555 1_555
C6TA C7Z 1_555 1_555
C6V C7B 1_555 1_555
C6KA C7IA 1_555 1_555
C7HA C8HA 1_555 1_555
C7D C8D 1_555 1_555
C7H C8H 1_555 1_555
C7DA C8DA 1_555 1_555
C7AA C8AA 1_555 1_555
C7CA C8CA 1_555 1_555
C7B C8B 1_555 1_555
C7IA C8IA 1_555 1_555
C11T C12T 1_555 1_555
C12B C13B 1_555 1_555
C12V C13B 1_555 1_555
C12D C13D 1_555 1_555
C12F C13F 1_555 1_555
C12L C13H 1_555 1_555
C12N C13J 1_555 1_555
C12LA C13HA 1_555 1_555
C12JA C13FA 1_555 1_555
C12AA C13AA 1_555 1_555
C12Y C13Y 1_555 1_555
C12QA C13CA 1_555 1_555
C12OA C13EA 1_555 1_555
C13D C13F 1_555 1_555
C13H C13J 1_555 1_555
C13HA C13FA 1_555 1_555
C13AA C13Y 1_555 1_555
C13CA C13EA 1_555 1_555

#END
