
#######################################################################
#
#                 Cambridge Crystallographic Data Centre
#                                CCDC 
#
#######################################################################
#
# If this CIF has been generated from an entry in the Cambridge 
# Structural Database, then it will include bibliographic, chemical, 
# crystal, experimental, refinement or atomic coordinate data resulting 
# from the CCDC's data processing and validation procedures.
#
#######################################################################

data_KAXQOR01
_symmetry_cell_setting           monoclinic
_symmetry_space_group_name_H-M   'P 21/n'
_symmetry_Int_Tables_number      14
_space_group_name_Hall           '-P 2yn'
loop_
_symmetry_equiv_pos_site_id
_symmetry_equiv_pos_as_xyz
1 x,y,z
2 1/2-x,1/2+y,1/2-z
3 -x,-y,-z
4 1/2+x,1/2-y,1/2+z
_cell_length_a                   11.7361(10)
_cell_length_b                   5.5499(4)
_cell_length_c                   22.8190(18)
_cell_angle_alpha                90
_cell_angle_beta                 100.999(4)
_cell_angle_gamma                90
_cell_volume                     1458.99
loop_
_atom_site_label
_atom_site_type_symbol
_atom_site_fract_x
_atom_site_fract_y
_atom_site_fract_z
Ca1 Ca 0.13571(4) 0.74108(7) 0.222238(19)
S1 S -0.10494(5) 0.53390(10) 0.10652(2)
C1 C -0.2229(2) 0.7639(4) -0.15514(10)
C2 C -0.1997(2) 0.7103(4) -0.08968(10)
C3 C -0.2315(2) 0.4911(4) -0.06887(11)
H1 H -0.2699 0.3777 -0.0956
C4 C -0.2065(3) 0.4401(4) -0.00839(11)
H2 H -0.2290 0.2941 0.0059
C5 C -0.1479(2) 0.6083(4) 0.03041(10)
C6 C -0.1188(2) 0.8303(5) 0.01045(11)
H3 H -0.0817 0.9448 0.0372
C7 C -0.1455(2) 0.8797(4) -0.04991(11)
H4 H -0.1266 1.0292 -0.0638
C8 C -0.2223(2) 0.6077(4) 0.14091(10)
C9 C -0.3114(2) 0.4416(5) 0.13887(11)
H5 H -0.3112 0.2989 0.1175
C10 C -0.4001(2) 0.4911(4) 0.16890(12)
H6 H -0.4592 0.3794 0.1687
C11 C -0.4015(2) 0.7063(4) 0.19942(10)
C12 C -0.3135(2) 0.8731(4) 0.19948(11)
H7 H -0.3156 1.0194 0.2191
C13 C -0.2225(2) 0.8240(4) 0.17061(11)
H8 H -0.1628 0.9346 0.1712
C14 C -0.4951(2) 0.7555(4) 0.23511(11)
O1 O -0.23746(15) 0.5883(3) -0.19088(7)
O2 O -0.23116(16) 0.9786(3) -0.17178(7)
O3 O -0.51512(16) 0.9719(3) 0.24433(8)
O4 O -0.00881(15) 0.6913(3) 0.13038(7)
O5 O -0.54184(17) 0.5775(3) 0.25367(9)
O6 O -0.08874(17) 0.2782(3) 0.11028(8)
Ca1A Ca -0.63571(4) 0.24108(7) 0.277762(19)
Ca1A_2 Ca -0.63571(4) 1.24108(7) 0.277762(19)
Ca1B Ca -0.13571(4) 0.25892(7) -0.222238(19)
Ca1B_2 Ca -0.13571(4) 1.25892(7) -0.222238(19)
Ca1C Ca -0.36429(4) 0.75892(7) -0.277762(19)
O1B O 0.23746(15) 0.4117(3) 0.19088(7)
O1C O 0.26254(15) 0.9117(3) 0.30912(7)
O2B O 0.23116(16) 1.0214(3) 0.17178(7)
O3A O 0.01512(16) 0.4719(3) 0.25567(8)
O5A O 0.04184(17) 1.0775(3) 0.24633(9)
loop_
_geom_bond_atom_site_label_1
_geom_bond_atom_site_label_2
_geom_bond_site_symmetry_1
_geom_bond_site_symmetry_2
Ca1 O4 1_555 1_555
S1 C5 1_555 1_555
C1 C2 1_555 1_555
C2 C3 1_555 1_555
C3 H1 1_555 1_555
C4 C3 1_555 1_555
H2 C4 1_555 1_555
C5 C4 1_555 1_555
C6 C5 1_555 1_555
H3 C6 1_555 1_555
C7 C2 1_555 1_555
H4 C7 1_555 1_555
C8 S1 1_555 1_555
C9 C8 1_555 1_555
H5 C9 1_555 1_555
C10 C9 1_555 1_555
H6 C10 1_555 1_555
C11 C10 1_555 1_555
C12 C11 1_555 1_555
H7 C12 1_555 1_555
C13 C8 1_555 1_555
H8 C13 1_555 1_555
C14 C11 1_555 1_555
O1 C1 1_555 1_555
O2 C1 1_555 1_555
O3 C14 1_555 1_555
O4 S1 1_555 1_555
O5 C14 1_555 1_555
O6 S1 1_555 1_555
Ca1A O5 1_555 1_555
Ca1A_2 O3 1_555 1_555
Ca1B O1 1_555 1_555
Ca1B_2 O2 1_555 1_555
Ca1C O1 1_555 1_555
O1B Ca1 1_555 1_555
O1C Ca1 1_555 1_555
O2B Ca1 1_555 1_555
O3A Ca1 1_555 1_555
O5A Ca1 1_555 1_555
C6 C7 1_555 1_555
C12 C13 1_555 1_555

#END
