
#######################################################################
#
#                 Cambridge Crystallographic Data Centre
#                                CCDC 
#
#######################################################################
#
# If this CIF has been generated from an entry in the Cambridge 
# Structural Database, then it will include bibliographic, chemical, 
# crystal, experimental, refinement or atomic coordinate data resulting 
# from the CCDC's data processing and validation procedures.
#
#######################################################################

data_KEDPEQ
_symmetry_cell_setting           orthorhombic
_symmetry_space_group_name_H-M   'P c c m'
_symmetry_Int_Tables_number      49
_space_group_name_Hall           '-P 2 2c'
loop_
_symmetry_equiv_pos_site_id
_symmetry_equiv_pos_as_xyz
1 x,y,z
2 -x,-y,z
3 -x,y,1/2-z
4 x,-y,1/2-z
5 -x,-y,-z
6 x,y,-z
7 x,-y,1/2+z
8 -x,y,1/2+z
_cell_length_a                   7.5718(10)
_cell_length_b                   10.8468(15)
_cell_length_c                   23.771(3)
_cell_angle_alpha                90
_cell_angle_beta                 90
_cell_angle_gamma                90
_cell_volume                     1952.31
loop_
_atom_site_label
_atom_site_type_symbol
_atom_site_fract_x
_atom_site_fract_y
_atom_site_fract_z
Ag1 Ag 0.0000 0.5000 0.2500
Al1 Al 0.5000 0.0000 0.43998(8)
O1 O 0.2693(4) 0.0675(3) 0.43422(14)
O2 O 0.5761(4) 0.1157(4) 0.38583(15)
O3 O 0.5624(5) 0.0979(4) 0.5000
C1 C 0.0181(7) 0.1820(6) 0.4124(3)
H1 H -0.0434 0.1613 0.3774
H2 H 0.0019 0.2699 0.4206
H3 H -0.0305 0.1328 0.4433
C2 C 0.2093(6) 0.1550(4) 0.4062(2)
C3 C 0.3162(6) 0.2249(5) 0.3691(2)
C4 C 0.4952(7) 0.2054(5) 0.3622(2)
C5 C 0.6085(8) 0.2886(7) 0.3265(3)
H4 H 0.6678 0.3492 0.3505
H5 H 0.5341 0.3315 0.2990
H6 H 0.6972 0.2392 0.3067
C6 C 0.2373(7) 0.3200(6) 0.3370(3)
C7 C 0.617(3) 0.239(2) 0.5000
H7 H 0.6944 0.2567 0.5320
H8 H 0.5094 0.2894 0.5000
N1 N 0.1695(7) 0.3934(5) 0.3098(3)
Al1B Al 0.5000 1.0000 0.06002(8)
Al1_2 Al -0.5000 1.0000 0.43998(8)
Al1B_2 Al -0.5000 0.0000 0.06002(8)
Al1D Al 0.5000 0.0000 0.56002(8)
O1A O -0.2693(4) 0.9325(3) 0.43422(14)
O1B O -0.2693(4) 0.0675(3) 0.06578(14)
O1C O 0.2693(4) 0.9325(3) 0.06578(14)
O1A_2 O 0.7307(4) -0.0675(3) 0.43422(14)
O1B_2 O 0.7307(4) 1.0675(3) 0.06578(14)
O2A O -0.5761(4) 0.8843(4) 0.38583(15)
O2B O -0.5761(4) 0.1157(4) 0.11417(15)
O2C O 0.5761(4) 0.8843(4) 0.11417(15)
O2A_2 O 0.4239(4) -0.1157(4) 0.38583(15)
O2B_2 O 0.4239(4) 1.1157(4) 0.11417(15)
O3A O 0.4376(5) -0.0979(4) 0.5000
O3B O 0.4376(5) 1.0979(4) 0.0000
O3C O 0.5624(5) 0.9021(4) 0.0000
C1A C -0.0181(7) 0.8180(6) 0.4124(3)
C1B C -0.0181(7) 0.1820(6) 0.0876(3)
C1C C 0.0181(7) 0.8180(6) 0.0876(3)
H1A H 0.0434 0.8387 0.3774
H1B H 0.0434 0.1613 0.1226
H1C H -0.0434 0.8387 0.1226
H2A H -0.0019 0.7301 0.4206
H2B H -0.0019 0.2699 0.0794
H2C H 0.0019 0.7301 0.0794
H3A H 0.0305 0.8672 0.4433
H3B H 0.0305 0.1328 0.0567
H3C H -0.0305 0.8672 0.0567
C2A C -0.2093(6) 0.8450(4) 0.4062(2)
C2B C -0.2093(6) 0.1550(4) 0.0938(2)
C2C C 0.2093(6) 0.8450(4) 0.0938(2)
C3A C -0.3162(6) 0.7751(5) 0.3691(2)
C3B C -0.3162(6) 0.2249(5) 0.1309(2)
C3C C 0.3162(6) 0.7751(5) 0.1309(2)
C4A C -0.4952(7) 0.7946(5) 0.3622(2)
C4B C -0.4952(7) 0.2054(5) 0.1378(2)
C4C C 0.4952(7) 0.7946(5) 0.1378(2)
C5A C -0.6085(8) 0.7114(7) 0.3265(3)
C5B C -0.6085(8) 0.2886(7) 0.1735(3)
C5C C 0.6085(8) 0.7114(7) 0.1735(3)
H4A H -0.6678 0.6508 0.3505
H4B H -0.6678 0.3492 0.1495
H4C H 0.6678 0.6508 0.1495
H5A H -0.5341 0.6685 0.2990
H5B H -0.5341 0.3315 0.2010
H5C H 0.5341 0.6685 0.2010
H6A H -0.6972 0.7608 0.3067
H6B H -0.6972 0.2392 0.1933
H6C H 0.6972 0.7608 0.1933
C6A C -0.2373(7) 0.6800(6) 0.3370(3)
C6B C -0.2373(7) 0.3200(6) 0.1630(3)
C6C C 0.2373(7) 0.6800(6) 0.1630(3)
C7A C 0.383(3) -0.239(2) 0.5000
H7E H 0.6944 0.2567 0.4680
H7A H 0.3056 -0.2567 0.5320
H7D H 0.3056 -0.2567 0.4680
H8A H 0.4906 -0.2894 0.5000
N1A N -0.1695(7) 0.6066(5) 0.3098(3)
N1B N -0.1695(7) 0.3934(5) 0.1902(3)
N1C N 0.1695(7) 0.6066(5) 0.1902(3)
loop_
_geom_bond_atom_site_label_1
_geom_bond_atom_site_label_2
_geom_bond_site_symmetry_1
_geom_bond_site_symmetry_2
Ag1 N1 1_555 1_555
Al1 O1 1_555 1_555
O1 C2 1_555 1_555
O2 Al1 1_555 1_555
O3 Al1 1_555 1_555
C1 H1 1_555 1_555
H2 C1 1_555 1_555
H3 C1 1_555 1_555
C2 C1 1_555 1_555
C3 C2 1_555 1_555
C4 O2 1_555 1_555
C5 C4 1_555 1_555
H4 C5 1_555 1_555
H5 C5 1_555 1_555
H6 C5 1_555 1_555
C6 C3 1_555 1_555
C7 O3 1_555 1_555
H7 C7 1_555 1_555
H8 C7 1_555 1_555
N1 C6 1_555 1_555
Al1B O1C 1_555 1_555
Al1_2 O1A 1_555 1_555
Al1B_2 O1B 1_555 1_555
Al1D O3 1_555 1_555
O1A C2A 1_555 1_555
O1B C2B 1_555 1_555
O1C C2C 1_555 1_555
O1A_2 Al1 1_555 1_555
O1B_2 Al1B 1_555 1_555
O2A Al1_2 1_555 1_555
O2B Al1B_2 1_555 1_555
O2C Al1B 1_555 1_555
O2A_2 Al1 1_555 1_555
O2B_2 Al1B 1_555 1_555
O3A Al1 1_555 1_555
O3B Al1B 1_555 1_555
O3C Al1B 1_555 1_555
C1A H1A 1_555 1_555
C1B H1B 1_555 1_555
C1C H1C 1_555 1_555
H2A C1A 1_555 1_555
H2B C1B 1_555 1_555
H2C C1C 1_555 1_555
H3A C1A 1_555 1_555
H3B C1B 1_555 1_555
H3C C1C 1_555 1_555
C2A C1A 1_555 1_555
C2B C1B 1_555 1_555
C2C C1C 1_555 1_555
C3A C2A 1_555 1_555
C3B C2B 1_555 1_555
C3C C2C 1_555 1_555
C4A O2A 1_555 1_555
C4B O2B 1_555 1_555
C4C O2C 1_555 1_555
C5A C4A 1_555 1_555
C5B C4B 1_555 1_555
C5C C4C 1_555 1_555
H4A C5A 1_555 1_555
H4B C5B 1_555 1_555
H4C C5C 1_555 1_555
H5A C5A 1_555 1_555
H5B C5B 1_555 1_555
H5C C5C 1_555 1_555
H6A C5A 1_555 1_555
H6B C5B 1_555 1_555
H6C C5C 1_555 1_555
C6A C3A 1_555 1_555
C6B C3B 1_555 1_555
C6C C3C 1_555 1_555
C7A O3A 1_555 1_555
H7E C7 1_555 1_555
H7A C7A 1_555 1_555
H7D C7A 1_555 1_555
H8A C7A 1_555 1_555
N1A Ag1 1_555 1_555
N1B Ag1 1_555 1_555
N1C Ag1 1_555 1_555
C3 C4 1_555 1_555
Al1D O3A 1_555 1_555
C3A C4A 1_555 1_555
C3B C4B 1_555 1_555
C3C C4C 1_555 1_555
C6A N1A 1_555 1_555
C6B N1B 1_555 1_555
C6C N1C 1_555 1_555

#END
