
#######################################################################
#
#                 Cambridge Crystallographic Data Centre
#                                CCDC 
#
#######################################################################
#
# If this CIF has been generated from an entry in the Cambridge 
# Structural Database, then it will include bibliographic, chemical, 
# crystal, experimental, refinement or atomic coordinate data resulting 
# from the CCDC's data processing and validation procedures.
#
#######################################################################

data_KEHFUA
_symmetry_cell_setting           monoclinic
_symmetry_space_group_name_H-M   'P 21/c'
_symmetry_Int_Tables_number      14
_space_group_name_Hall           '-P 2ybc'
loop_
_symmetry_equiv_pos_site_id
_symmetry_equiv_pos_as_xyz
1 x,y,z
2 -x,1/2+y,1/2-z
3 -x,-y,-z
4 x,1/2-y,1/2+z
_cell_length_a                   21.8567(15)
_cell_length_b                   11.5525(9)
_cell_length_c                   21.4604(14)
_cell_angle_alpha                90
_cell_angle_beta                 117.611(4)
_cell_angle_gamma                90
_cell_volume                     4801.63
loop_
_atom_site_label
_atom_site_type_symbol
_atom_site_fract_x
_atom_site_fract_y
_atom_site_fract_z
Cu1 Cu 0.744931(19) 0.32630(2) 0.419404(19)
Cu2 Cu 0.756774(18) 0.30125(3) 0.602473(19)
O1 O 0.70961(12) 0.20357(16) 0.34650(12)
H1 H 0.6995 0.1361 0.3546
H2 H 0.6836 0.2197 0.3035
O2 O 0.84929(13) 0.31764(18) 0.40978(13)
H3 H 0.8495 0.3555 0.3759
H4 H 0.8840 0.3386 0.4476
O3 O 0.72845(12) 0.16619(16) 0.66363(12)
H5 H 0.6973 0.1881 0.6742
H6 H 0.7619 0.1390 0.7004
N1 N 0.79112(14) 0.45610(18) 0.48675(13)
N2 N 0.78699(15) 0.46706(19) 0.54803(14)
N3 N 0.84907(14) 0.61079(18) 0.53973(14)
N4 N 0.79626(13) 1.20053(18) 0.49529(13)
N5 N 0.78872(13) 1.18071(17) 0.55490(13)
N6 N 0.84942(13) 1.03911(17) 0.54394(13)
N7 N 1.14259(13) 0.81029(19) 0.82263(14)
N8 N 1.09019(15) 0.8199(3) 0.84177(16)
N9 N 1.04440(13) 0.82214(19) 0.72592(14)
N10 N 0.97355(14) 0.82778(19) 0.52902(14)
N11 N 0.65948(13) 0.29143(19) 0.45152(13)
N12 N 0.66216(13) 0.29370(18) 0.51753(13)
N13 N 0.55565(13) 0.25648(17) 0.43952(13)
N14 N 0.31238(14) -0.05281(18) 0.15110(14)
N15 N 0.36167(18) 0.0056(2) 0.14051(18)
N16 N 0.36462(13) 0.06625(18) 0.23905(13)
N17 N 0.27328(14) 0.57805(19) 0.35149(13)
N18 N 0.24677(15) 0.5636(2) 0.27962(14)
N19 N 0.32019(14) 0.42311(19) 0.33558(14)
N20 N 0.38853(14) 0.13222(19) 0.42148(14)
C1 C 0.82733(17) 0.5422(2) 0.48172(17)
H7 H 0.8369 0.5549 0.4439
C2 C 0.82225(19) 0.5606(2) 0.57948(19)
H8 H 0.8282 0.5888 0.6230
C3 C 0.89245(16) 0.7169(2) 0.55734(16)
C4 C 0.84571(15) 0.8248(2) 0.54238(16)
H9 H 0.8106 0.8259 0.4929
H10 H 0.8223 0.8236 0.5718
C5 C 0.89246(16) 0.9326(2) 0.55935(16)
C6 C 0.94637(15) 0.9331(2) 0.63702(16)
H11 H 0.9234 0.9326 0.6669
H12 H 0.9750 1.0029 0.6477
C7 C 0.99190(15) 0.8238(2) 0.65130(16)
C8 C 0.94693(16) 0.7136(2) 0.63556(16)
H13 H 0.9758 0.6443 0.6450
H14 H 0.9241 0.7113 0.6655
C9 C 0.93025(17) 0.7226(2) 0.51170(17)
H15 H 0.9593 0.6538 0.5203
H16 H 0.8963 0.7237 0.4618
C10 C 0.92880(17) 0.9314(2) 0.51279(17)
H17 H 0.8943 0.9303 0.4631
H18 H 0.9568 1.0015 0.5213
C11 C 1.02636(16) 0.8271(2) 0.60304(17)
H19 H 1.0551 0.8967 0.6131
H20 H 1.0562 0.7593 0.6121
C12 C 0.82089(16) 1.0838(2) 0.58321(16)
H21 H 0.8238 1.0503 0.6244
C13 C 0.83244(16) 1.1153(2) 0.48987(16)
H22 H 0.8451 1.1073 0.4538
C14 C 1.11368(16) 0.8115(2) 0.75369(17)
H23 H 1.1379 0.8058 0.7272
C15 C 1.03266(19) 0.8267(3) 0.78314(19)
H24 H 0.9887 0.8338 0.7806
C16 C 0.59554(16) 0.2688(2) 0.40606(17)
H25 H 0.5792 0.2619 0.3573
C17 C 0.59944(16) 0.2734(2) 0.50877(16)
H26 H 0.5868 0.2710 0.5451
C18 C 0.48039(15) 0.2321(2) 0.40544(15)
C19 C 0.46091(15) 0.1627(2) 0.33755(16)
H27 H 0.4706 0.2085 0.3047
H28 H 0.4881 0.0913 0.3484
C20 C 0.38378(15) 0.1340(2) 0.30450(16)
C21 C 0.34073(16) 0.2460(2) 0.28464(16)
H29 H 0.2914 0.2276 0.2628
H30 H 0.3498 0.2913 0.2512
C22 C 0.36200(16) 0.3152(2) 0.35307(16)
C23 C 0.43916(16) 0.3463(2) 0.38785(16)
H31 H 0.4517 0.3911 0.4309
H32 H 0.4494 0.3930 0.3557
C24 C 0.46286(16) 0.1592(2) 0.45544(16)
H33 H 0.4896 0.0872 0.4675
H34 H 0.4754 0.2024 0.4990
C25 C 0.36852(17) 0.0637(2) 0.35641(17)
H35 H 0.3192 0.0450 0.3350
H36 H 0.3945 -0.0090 0.3678
C26 C 0.34738(16) 0.2405(2) 0.40444(17)
H37 H 0.3593 0.2842 0.4477
H38 H 0.2981 0.2216 0.3830
C27 C 0.31495(16) -0.0151(2) 0.20956(16)
H39 H 0.2863 -0.0410 0.2285
C28 C 0.3918(2) 0.0762(3) 0.1939(2)
H40 H 0.4277 0.1272 0.2002
C29 C 0.31715(16) 0.4951(2) 0.38386(17)
H41 H 0.3426 0.4867 0.4329
C30 C 0.27617(19) 0.4696(3) 0.27235(18)
H42 H 0.2678 0.4380 0.2287
Cu1_2 Cu 0.744931(19) 1.32630(2) 0.419404(19)
Cu1A Cu 0.255069(19) -0.17370(2) 0.080596(19)
Cu2_2 Cu 0.756774(18) 1.30125(3) 0.602473(19)
Cu2A Cu 1.243226(18) 0.80125(3) 0.897527(19)
Cu2B Cu 0.243226(18) 0.69875(3) 0.397527(19)
N4_2 N 0.79626(13) 0.20053(18) 0.49529(13)
N5_2 N 0.78872(13) 0.18071(17) 0.55490(13)
N7A N 0.85741(13) 0.31029(19) 0.67737(14)
N14A N 0.68762(14) 0.44719(18) 0.34890(14)
N17B N 0.72672(14) 0.42195(19) 0.64851(13)
S1 S 0.55444(4) 0.24923(6) 0.17969(4)
O4 O 0.51965(17) 0.3632(2) 0.16707(18)
O5 O 0.53869(15) 0.1807(2) 0.22832(14)
O6 O 0.53120(16) 0.1883(2) 0.11164(15)
O7 O 0.63078(13) 0.2657(2) 0.21155(13)
S2 S 0.86735(5) 0.52906(7) 0.29735(5)
O8 O 0.8409(2) 0.6119(2) 0.33122(18)
O9 O 0.83058(15) 0.4174(2) 0.28849(14)
O10 O 0.8523(3) 0.5711(3) 0.2268(2)
O11 O 0.9413(2) 0.5084(3) 0.3433(3)
O12 O 0.55759(18) 0.9397(2) 0.26155(17)
H43 H 0.5317 0.9180 0.2791
H44 H 0.5480 1.0097 0.2485
O13 O 0.68297(19) 0.9879(2) 0.38001(19)
H45 H 0.6510 0.9592 0.3426
H46 H 0.6678 0.9957 0.4098
O14 O 0.6006(2) 0.9614(3) 0.44721(18)
H47 H 0.5676 0.9186 0.4193
H48 H 0.6072 0.9487 0.4889
O15 O 0.8374(2) 0.8060(3) 0.21069(19)
H49 H 0.8401 0.7326 0.2128
H50 H 0.8583 0.8326 0.2523
O16 O 0.41709(16) 0.0485(2) 0.04195(14)
H51 H 0.4005 0.0262 0.0688
H52 H 0.4545 0.0847 0.0667
O17 O 1.04413(19) 0.6337(3) 0.44978(18)
H53 H 1.0692 0.6508 0.4304
H54 H 1.0087 0.5977 0.4200
O18 O 0.9289(3) 0.8266(3) 0.3645(2)
H55 H 0.9138 0.7582 0.3627
H56 H 0.9493 0.8478 0.4072
loop_
_geom_bond_atom_site_label_1
_geom_bond_atom_site_label_2
_geom_bond_site_symmetry_1
_geom_bond_site_symmetry_2
Cu1 O1 1_555 1_555
Cu2 O3 1_555 1_555
S1 O4 1_555 1_555
S2 O8 1_555 1_555
O1 H1 1_555 1_555
H2 O1 1_555 1_555
O2 Cu1 1_555 1_555
H3 O2 1_555 1_555
H4 O2 1_555 1_555
O3 H5 1_555 1_555
H6 O3 1_555 1_555
O5 S1 1_555 1_555
O6 S1 1_555 1_555
O7 S1 1_555 1_555
O9 S2 1_555 1_555
O10 S2 1_555 1_555
O11 S2 1_555 1_555
N1 Cu1 1_555 1_555
N2 Cu2 1_555 1_555
N3 C1 1_555 1_555
N4 N5 1_555 1_555
N5 C12 1_555 1_555
N6 C5 1_555 1_555
N7 N8 1_555 1_555
N8 C15 1_555 1_555
N9 C7 1_555 1_555
N10 C9 1_555 1_555
N11 Cu1 1_555 1_555
N12 Cu2 1_555 1_555
N13 C16 1_555 1_555
N14 N15 1_555 1_555
N15 C28 1_555 1_555
N16 C20 1_555 1_555
N17 N18 1_555 1_555
N18 C30 1_555 1_555
N19 C22 1_555 1_555
N20 C24 1_555 1_555
C1 N1 1_555 1_555
H7 C1 1_555 1_555
C2 N2 1_555 1_555
H8 C2 1_555 1_555
C3 N3 1_555 1_555
C4 C3 1_555 1_555
H9 C4 1_555 1_555
H10 C4 1_555 1_555
C5 C4 1_555 1_555
C6 C5 1_555 1_555
H11 C6 1_555 1_555
H12 C6 1_555 1_555
C7 C6 1_555 1_555
C8 C3 1_555 1_555
H13 C8 1_555 1_555
H14 C8 1_555 1_555
C9 C3 1_555 1_555
H15 C9 1_555 1_555
H16 C9 1_555 1_555
C10 N10 1_555 1_555
H17 C10 1_555 1_555
H18 C10 1_555 1_555
C11 N10 1_555 1_555
H19 C11 1_555 1_555
H20 C11 1_555 1_555
C12 N6 1_555 1_555
H21 C12 1_555 1_555
C13 N4 1_555 1_555
H22 C13 1_555 1_555
C14 N7 1_555 1_555
H23 C14 1_555 1_555
C15 N9 1_555 1_555
H24 C15 1_555 1_555
C16 N11 1_555 1_555
H25 C16 1_555 1_555
C17 N12 1_555 1_555
H26 C17 1_555 1_555
C18 N13 1_555 1_555
C19 C18 1_555 1_555
H27 C19 1_555 1_555
H28 C19 1_555 1_555
C20 C19 1_555 1_555
C21 C20 1_555 1_555
H29 C21 1_555 1_555
H30 C21 1_555 1_555
C22 C21 1_555 1_555
C23 C18 1_555 1_555
H31 C23 1_555 1_555
H32 C23 1_555 1_555
C24 C18 1_555 1_555
H33 C24 1_555 1_555
H34 C24 1_555 1_555
C25 N20 1_555 1_555
H35 C25 1_555 1_555
H36 C25 1_555 1_555
C26 N20 1_555 1_555
H37 C26 1_555 1_555
H38 C26 1_555 1_555
C27 N14 1_555 1_555
H39 C27 1_555 1_555
C28 N16 1_555 1_555
H40 C28 1_555 1_555
C29 N17 1_555 1_555
H41 C29 1_555 1_555
C30 N19 1_555 1_555
H42 C30 1_555 1_555
O12 H43 1_555 1_555
H44 O12 1_555 1_555
O13 H45 1_555 1_555
H46 O13 1_555 1_555
O14 H47 1_555 1_555
H48 O14 1_555 1_555
O15 H49 1_555 1_555
H50 O15 1_555 1_555
O16 H51 1_555 1_555
H52 O16 1_555 1_555
O17 H53 1_555 1_555
H54 O17 1_555 1_555
O18 H55 1_555 1_555
H56 O18 1_555 1_555
Cu1_2 N4 1_555 1_555
Cu1A N14 1_555 1_555
Cu2_2 N5 1_555 1_555
Cu2A N7 1_555 1_555
Cu2B N17 1_555 1_555
N4_2 Cu1 1_555 1_555
N5_2 Cu2 1_555 1_555
N7A Cu2 1_555 1_555
N14A Cu1 1_555 1_555
N17B Cu2 1_555 1_555
N1 N2 1_555 1_555
N3 C2 1_555 1_555
N6 C13 1_555 1_555
N9 C14 1_555 1_555
N11 N12 1_555 1_555
N13 C17 1_555 1_555
N16 C27 1_555 1_555
N19 C29 1_555 1_555
C5 C10 1_555 1_555
C7 C8 1_555 1_555
C7 C11 1_555 1_555
C20 C25 1_555 1_555
C22 C23 1_555 1_555
C22 C26 1_555 1_555
N4_2 N5_2 1_555 1_555

#END
