
#######################################################################
#
#                 Cambridge Crystallographic Data Centre
#                                CCDC 
#
#######################################################################
#
# If this CIF has been generated from an entry in the Cambridge 
# Structural Database, then it will include bibliographic, chemical, 
# crystal, experimental, refinement or atomic coordinate data resulting 
# from the CCDC's data processing and validation procedures.
#
#######################################################################

data_KEQJEX
_symmetry_cell_setting           monoclinic
_symmetry_space_group_name_H-M   'P 2/m'
_symmetry_Int_Tables_number      10
_space_group_name_Hall           '-P 2y'
loop_
_symmetry_equiv_pos_site_id
_symmetry_equiv_pos_as_xyz
1 x,y,z
2 -x,y,-z
3 -x,-y,-z
4 x,-y,z
_cell_length_a                   6.8131(19)
_cell_length_b                   15.782(4)
_cell_length_c                   11.155(3)
_cell_angle_alpha                90
_cell_angle_beta                 103.078(4)
_cell_angle_gamma                90
_cell_volume                     1168.32
loop_
_atom_site_label
_atom_site_type_symbol
_atom_site_fract_x
_atom_site_fract_y
_atom_site_fract_z
Zn1 Zn 0.37182(6) 0.5000 0.08955(4)
O1 O 0.5592(4) 0.40663(18) 0.1678(3)
O2 O 0.1580(5) 0.5000 0.1835(3)
H1 H 0.2155 0.5000 0.2720
O3 O 0.7601(4) 0.41319(19) 0.0391(3)
C1 C 0.7046(4) 0.38172(19) 0.1271(3)
C2 C 0.8182(5) 0.3050(2) 0.1845(3)
C3 C 0.7318(5) 0.2496(2) 0.2544(4)
H2 H 0.6036 0.2625 0.2699
C4 C 0.8293(5) 0.1759(2) 0.3017(4)
H3 H 0.7675 0.1384 0.3486
C5 C 1.0169(5) 0.1569(2) 0.2807(3)
C6 C 1.1029(5) 0.2127(2) 0.2111(3)
H4 H 1.2327 0.2006 0.1974
C7 C 1.0037(5) 0.2853(2) 0.1612(3)
H5 H 1.0627 0.3215 0.1111
C8 C 1.1223(5) 0.0763(2) 0.3321(3)
C9 C 1.0279(7) 0.0000 0.2943(4)
H6 H 0.8969 0.0000 0.2419
C10 C 1.3136(4) 0.07888(17) 0.4152(3)
C11 C 1.4039(6) 0.0000 0.4561(4)
C12 C 1.4101(4) 0.15630(19) 0.4586(3)
H7 H 1.3482 0.2086 0.4295
H8 H 0.0303 0.5000 0.1378
Zn1_2 Zn 0.37182(6) -0.5000 0.08955(4)
Zn1A Zn 0.62818(6) 0.5000 -0.08955(4)
Zn1A_2 Zn 0.62818(6) -0.5000 -0.08955(4)
Zn1A_3 Zn 2.62818(6) 0.5000 0.91045(4)
Zn1_3 Zn 2.37182(6) 0.5000 1.08955(4)
Zn1A_4 Zn 2.62818(6) -0.5000 0.91045(4)
Zn1_4 Zn 2.37182(6) -0.5000 1.08955(4)
O1C O 0.5592(4) -0.40663(18) 0.1678(3)
O1A O 2.4408(4) 0.40663(18) 0.8322(3)
O1B O 2.4408(4) -0.40663(18) 0.8322(3)
O1C_2 O 0.5592(4) 0.59337(18) 0.1678(3)
O1_2 O 0.5592(4) -0.59337(18) 0.1678(3)
O2_2 O 0.1580(5) -0.5000 0.1835(3)
H1_2 H 0.2155 -0.5000 0.2720
O3C O 0.7601(4) -0.41319(19) 0.0391(3)
O3A O 2.2399(4) 0.41319(19) 0.9609(3)
O3B O 2.2399(4) -0.41319(19) 0.9609(3)
O3B_2 O 0.2399(4) 0.58681(19) -0.0391(3)
O3A_2 O 0.2399(4) 0.41319(19) -0.0391(3)
O3A_3 O 0.2399(4) -0.58681(19) -0.0391(3)
O3B_3 O 0.2399(4) -0.41319(19) -0.0391(3)
C1C C 0.7046(4) -0.38172(19) 0.1271(3)
C1A C 2.2954(4) 0.38172(19) 0.8729(3)
C1B C 2.2954(4) -0.38172(19) 0.8729(3)
C2C C 0.8182(5) -0.3050(2) 0.1845(3)
C2A C 2.1818(5) 0.3050(2) 0.8155(3)
C2B C 2.1818(5) -0.3050(2) 0.8155(3)
C3C C 0.7318(5) -0.2496(2) 0.2544(4)
C3A C 2.2682(5) 0.2496(2) 0.7456(4)
C3B C 2.2682(5) -0.2496(2) 0.7456(4)
H2C H 0.6036 -0.2625 0.2699
H2A H 2.3964 0.2625 0.7301
H2B H 2.3964 -0.2625 0.7301
C4C C 0.8293(5) -0.1759(2) 0.3017(4)
C4A C 2.1707(5) 0.1759(2) 0.6983(4)
C4B C 2.1707(5) -0.1759(2) 0.6983(4)
H3C H 0.7675 -0.1384 0.3486
H3A H 2.2325 0.1384 0.6514
H3B H 2.2325 -0.1384 0.6514
C5C C 1.0169(5) -0.1569(2) 0.2807(3)
C5A C 1.9831(5) 0.1569(2) 0.7193(3)
C5B C 1.9831(5) -0.1569(2) 0.7193(3)
C6C C 1.1029(5) -0.2127(2) 0.2111(3)
C6A C 1.8971(5) 0.2127(2) 0.7889(3)
C6B C 1.8971(5) -0.2127(2) 0.7889(3)
H4C H 1.2327 -0.2006 0.1974
H4A H 1.7673 0.2006 0.8026
H4B H 1.7673 -0.2006 0.8026
C7C C 1.0037(5) -0.2853(2) 0.1612(3)
C7A C 1.9963(5) 0.2853(2) 0.8388(3)
C7B C 1.9963(5) -0.2853(2) 0.8388(3)
H5C H 1.0627 -0.3215 0.1111
H5A H 1.9373 0.3215 0.8889
H5B H 1.9373 -0.3215 0.8889
C8C C 1.1223(5) -0.0763(2) 0.3321(3)
C8A C 1.8777(5) 0.0763(2) 0.6679(3)
C8B C 1.8777(5) -0.0763(2) 0.6679(3)
C9A C 1.9721(7) 0.0000 0.7057(4)
H6A H 2.1031 0.0000 0.7581
C10C C 1.3136(4) -0.07888(17) 0.4152(3)
C10A C 1.6864(4) 0.07888(17) 0.5848(3)
C10B C 1.6864(4) -0.07888(17) 0.5848(3)
C11A C 1.5961(6) 0.0000 0.5439(4)
C12A C 1.5899(4) 0.15630(19) 0.5414(3)
C12B C 1.5899(4) -0.15630(19) 0.5414(3)
C12C C 1.4101(4) -0.15630(19) 0.4586(3)
H7B H 1.6518 -0.2086 0.5705
H7C H 1.3482 -0.2086 0.4295
H7A H 1.6518 0.2086 0.5705
H8_2 H 0.0303 -0.5000 0.1378
loop_
_geom_bond_atom_site_label_1
_geom_bond_atom_site_label_2
_geom_bond_site_symmetry_1
_geom_bond_site_symmetry_2
Zn1 O1 1_555 1_555
O1 C1 1_555 1_555
O2 Zn1 1_555 1_555
H1 O2 1_555 1_555
O3 C1 1_555 1_555
C1 C2 1_555 1_555
C2 C3 1_555 1_555
C3 H2 1_555 1_555
C4 C3 1_555 1_555
H3 C4 1_555 1_555
C5 C4 1_555 1_555
C6 C5 1_555 1_555
H4 C6 1_555 1_555
C7 C2 1_555 1_555
H5 C7 1_555 1_555
C8 C5 1_555 1_555
C9 C8 1_555 1_555
H6 C9 1_555 1_555
C10 C8 1_555 1_555
C11 C10 1_555 1_555
C12 C10 1_555 1_555
H7 C12 1_555 1_555
H8 O2 1_555 1_555
Zn1_2 O1C 1_555 1_555
Zn1A O3 1_555 1_555
Zn1A_2 O3C 1_555 1_555
Zn1A_3 O1A 1_555 1_555
Zn1_3 O3A 1_555 1_555
Zn1A_4 O1B 1_555 1_555
Zn1_4 O3B 1_555 1_555
O1C C1C 1_555 1_555
O1A C1A 1_555 1_555
O1B C1B 1_555 1_555
O1C_2 Zn1 1_555 1_555
O1_2 Zn1_2 1_555 1_555
O2_2 Zn1_2 1_555 1_555
H1_2 O2_2 1_555 1_555
O3C C1C 1_555 1_555
O3A C1A 1_555 1_555
O3B C1B 1_555 1_555
O3B_2 Zn1 1_555 1_555
O3A_2 Zn1 1_555 1_555
O3A_3 Zn1_2 1_555 1_555
O3B_3 Zn1_2 1_555 1_555
C1C C2C 1_555 1_555
C1A C2A 1_555 1_555
C1B C2B 1_555 1_555
C2C C3C 1_555 1_555
C2A C3A 1_555 1_555
C2B C3B 1_555 1_555
C3C H2C 1_555 1_555
C3A H2A 1_555 1_555
C3B H2B 1_555 1_555
C4C C3C 1_555 1_555
C4A C3A 1_555 1_555
C4B C3B 1_555 1_555
H3C C4C 1_555 1_555
H3A C4A 1_555 1_555
H3B C4B 1_555 1_555
C5C C4C 1_555 1_555
C5A C4A 1_555 1_555
C5B C4B 1_555 1_555
C6C C5C 1_555 1_555
C6A C5A 1_555 1_555
C6B C5B 1_555 1_555
H4C C6C 1_555 1_555
H4A C6A 1_555 1_555
H4B C6B 1_555 1_555
C7C C2C 1_555 1_555
C7A C2A 1_555 1_555
C7B C2B 1_555 1_555
H5C C7C 1_555 1_555
H5A C7A 1_555 1_555
H5B C7B 1_555 1_555
C8C C9 1_555 1_555
C8A C5A 1_555 1_555
C8B C5B 1_555 1_555
C9A C8A 1_555 1_555
H6A C9A 1_555 1_555
C10C C11 1_555 1_555
C10A C8A 1_555 1_555
C10B C8B 1_555 1_555
C11A C11 1_555 1_555
C12A C12 1_555 1_555
C12B C10B 1_555 1_555
C12C C10C 1_555 1_555
H7B C12B 1_555 1_555
H7C C12C 1_555 1_555
H7A C12A 1_555 1_555
H8_2 O2_2 1_555 1_555
C6 C7 1_555 1_555
C5C C8C 1_555 1_555
C6C C7C 1_555 1_555
C6A C7A 1_555 1_555
C6B C7B 1_555 1_555
C8C C10C 1_555 1_555
C8B C9A 1_555 1_555
C10A C11A 1_555 1_555
C10A C12A 1_555 1_555
C10B C11A 1_555 1_555
C12B C12C 1_555 1_555

#END
