
#######################################################################
#
#                 Cambridge Crystallographic Data Centre
#                                CCDC 
#
#######################################################################
#
# If this CIF has been generated from an entry in the Cambridge 
# Structural Database, then it will include bibliographic, chemical, 
# crystal, experimental, refinement or atomic coordinate data resulting 
# from the CCDC's data processing and validation procedures.
#
#######################################################################

data_KETSEI
_symmetry_cell_setting           monoclinic
_symmetry_space_group_name_H-M   'C 2/c'
_symmetry_Int_Tables_number      15
_space_group_name_Hall           '-C 2yn'
loop_
_symmetry_equiv_pos_site_id
_symmetry_equiv_pos_as_xyz
1 x,y,z
2 1/2+x,1/2+y,z
3 -x,y,1/2-z
4 1/2-x,1/2+y,1/2-z
5 -x,-y,-z
6 1/2-x,1/2-y,-z
7 x,-y,1/2+z
8 1/2+x,1/2-y,1/2+z
_cell_length_a                   7.9180(16)
_cell_length_b                   14.912(3)
_cell_length_c                   19.617(4)
_cell_angle_alpha                90
_cell_angle_beta                 94.66(3)
_cell_angle_gamma                90
_cell_volume                     2308.59
loop_
_atom_site_label
_atom_site_type_symbol
_atom_site_fract_x
_atom_site_fract_y
_atom_site_fract_z
Dy1 Dy 1.24288(2) -0.037249(13) 0.487557(11)
O1 O 1.1445(5) -0.0537(2) 0.36961(19)
O2 O 1.1666(4) -0.1776(2) 0.42902(17)
C1 C 1.1292(5) -0.1374(3) 0.3725(2)
C2 C 1.0724(6) -0.1911(3) 0.3101(2)
H1 H 0.9869 -0.2337 0.3219
H2 H 1.1681 -0.2250 0.2960
C3 C 1.0000 -0.1346(4) 0.2500
H3 H 0.9123 -0.0966 0.2650
O3 O 1.0126(4) 0.0778(2) 0.46698(17)
O4 O 1.2675(4) 0.1131(2) 0.44192(18)
C4 C 1.1126(5) 0.1345(3) 0.4444(2)
C5 C 1.0487(7) 0.2254(3) 0.4227(3)
H4 H 1.0590 0.2650 0.4621
H5 H 0.9293 0.2208 0.4076
C6 C 1.1414(7) 0.2670(3) 0.3659(3)
H6 H 1.1327 0.2274 0.3265
H7 H 1.2605 0.2733 0.3811
C7 C 1.0685(6) 0.3593(3) 0.3449(2)
H8 H 1.1140 0.3785 0.3028
H9 H 0.9463 0.3551 0.3366
C8 C 1.1128(6) 0.4267(3) 0.4001(2)
O5 O 1.2616(4) 0.4535(2) 0.40909(19)
O6 O 1.0036(4) 0.4551(2) 0.43924(18)
O7 O 1.3819(4) -0.1442(2) 0.56020(16)
H10 H 1.4806 -0.1366 0.5671
H11 H 1.3621 -0.2008 0.5566
Dy1B Dy 0.75712(2) -0.037249(13) 0.012443(11)
Dy1D Dy 0.75712(2) 0.037249(13) 0.512443(11)
Dy1E Dy 1.25712(2) 0.537249(13) 0.512443(11)
Dy1A Dy 0.74288(2) 0.462751(13) 0.487557(11)
Dy1A_2 Dy 0.74288(2) -0.537249(13) 0.487557(11)
Dy1E_2 Dy 1.25712(2) -0.462751(13) 0.512443(11)
O1B O 0.8555(5) -0.0537(2) 0.13039(19)
O2B O 0.8334(4) -0.1776(2) 0.07098(17)
C1B C 0.8708(5) -0.1374(3) 0.1275(2)
C2B C 0.9276(6) -0.1911(3) 0.1899(2)
H1B H 1.0131 -0.2337 0.1781
H2B H 0.8319 -0.2250 0.2040
H3B H 1.0877 -0.0966 0.2350
O3D O 0.9874(4) -0.0778(2) 0.53302(17)
O3F O 1.0126(4) -0.0778(2) -0.03302(17)
O3B O 0.9874(4) 0.0778(2) 0.03302(17)
O4D O 0.7325(4) -0.1131(2) 0.55808(18)
O4B O 0.7325(4) 0.1131(2) 0.05808(18)
C4D C 0.8874(5) -0.1345(3) 0.5556(2)
C5D C 0.9513(7) -0.2254(3) 0.5773(3)
H4D H 0.9410 -0.2650 0.5379
H5D H 1.0707 -0.2208 0.5924
C6D C 0.8586(7) -0.2670(3) 0.6341(3)
H6D H 0.8673 -0.2274 0.6735
H7D H 0.7395 -0.2733 0.6189
C7D C 0.9315(6) -0.3593(3) 0.6551(2)
H8D H 0.8860 -0.3785 0.6972
H9D H 1.0537 -0.3551 0.6634
C8D C 0.8872(6) -0.4267(3) 0.5999(2)
O5D O 0.7384(4) -0.4535(2) 0.59091(19)
O5E O 1.2384(4) 0.0465(2) 0.59091(19)
O5G O 0.7616(4) 0.0465(2) -0.09091(19)
O6D O 0.9964(4) -0.4551(2) 0.56076(18)
O6A O 1.5036(4) -0.0449(2) 0.43924(18)
O6E O 1.4964(4) 0.0449(2) 0.56076(18)
O6G O 0.5036(4) 0.0449(2) -0.06076(18)
O6C O 0.4964(4) -0.0449(2) 0.06076(18)
O7B O 0.6181(4) -0.1442(2) -0.06020(16)
H10B H 0.5194 -0.1366 -0.0671
H11B H 0.6379 -0.2008 -0.0566
O8 O 0.9166(4) 0.0882(2) 0.30051(16)
O9 O 0.6198(4) 0.0710(2) 0.21528(16)
H12 H 0.6268 0.0578 0.2576
H13 H 0.6787 0.0398 0.1940
O10? O 0.9710(4) 0.0936(2) 0.29518(16)
O11? O 0.8657(4) 0.0929(2) 0.30324(16)
O12? O 0.7996(4) 0.0888(2) 0.29641(16)
loop_
_geom_bond_atom_site_label_1
_geom_bond_atom_site_label_2
_geom_bond_site_symmetry_1
_geom_bond_site_symmetry_2
Dy1 O1 1_555 1_555
O1 C1 1_555 1_555
O2 Dy1 1_555 1_555
C1 O2 1_555 1_555
C2 C1 1_555 1_555
H1 C2 1_555 1_555
H2 C2 1_555 1_555
C3 C2 1_555 1_555
H3 C3 1_555 1_555
O3 Dy1 1_555 1_555
O4 Dy1 1_555 1_555
C4 O3 1_555 1_555
C5 C4 1_555 1_555
H4 C5 1_555 1_555
H5 C5 1_555 1_555
C6 C5 1_555 1_555
H6 C6 1_555 1_555
H7 C6 1_555 1_555
C7 C6 1_555 1_555
H8 C7 1_555 1_555
H9 C7 1_555 1_555
C8 C7 1_555 1_555
O5 C8 1_555 1_555
O6 C8 1_555 1_555
O7 Dy1 1_555 1_555
H10 O7 1_555 1_555
H11 O7 1_555 1_555
O9 H12 1_555 1_555
H13 O9 1_555 1_555
Dy1B O1B 1_555 1_555
Dy1D O3 1_555 1_555
Dy1E O5 1_555 1_555
Dy1A O6 1_555 1_555
Dy1A_2 O5D 1_555 1_555
Dy1E_2 O6D 1_555 1_555
O1B C1B 1_555 1_555
O2B Dy1B 1_555 1_555
C1B O2B 1_555 1_555
C2B C3 1_555 1_555
H1B C2B 1_555 1_555
H2B C2B 1_555 1_555
H3B C3 1_555 1_555
O3D Dy1 1_555 1_555
O3F Dy1B 1_555 1_555
O3B Dy1B 1_555 1_555
O4D Dy1D 1_555 1_555
O4B Dy1B 1_555 1_555
C4D O3D 1_555 1_555
C5D C4D 1_555 1_555
H4D C5D 1_555 1_555
H5D C5D 1_555 1_555
C6D C5D 1_555 1_555
H6D C6D 1_555 1_555
H7D C6D 1_555 1_555
C7D C6D 1_555 1_555
H8D C7D 1_555 1_555
H9D C7D 1_555 1_555
C8D C7D 1_555 1_555
O5D C8D 1_555 1_555
O5E Dy1 1_555 1_555
O5G Dy1B 1_555 1_555
O6D Dy1A_2 1_555 1_555
O6A Dy1 1_555 1_555
O6E Dy1 1_555 1_555
O6G Dy1B 1_555 1_555
O6C Dy1B 1_555 1_555
O7B Dy1B 1_555 1_555
H10B O7B 1_555 1_555
H11B O7B 1_555 1_555
O4 C4 1_555 1_555
O6 Dy1E 1_555 1_555
Dy1D O3D 1_555 1_555
C1B C2B 1_555 1_555
O4D C4D 1_555 1_555
C8D O6D 1_555 1_555

#END
