
#######################################################################
#
#                 Cambridge Crystallographic Data Centre
#                                CCDC 
#
#######################################################################
#
# If this CIF has been generated from an entry in the Cambridge 
# Structural Database, then it will include bibliographic, chemical, 
# crystal, experimental, refinement or atomic coordinate data resulting 
# from the CCDC's data processing and validation procedures.
#
#######################################################################

data_KEXFAU
_symmetry_cell_setting           monoclinic
_symmetry_space_group_name_H-M   'C 2/c'
_symmetry_Int_Tables_number      15
_space_group_name_Hall           '-C 2yn'
loop_
_symmetry_equiv_pos_site_id
_symmetry_equiv_pos_as_xyz
1 x,y,z
2 1/2+x,1/2+y,z
3 -x,y,1/2-z
4 1/2-x,1/2+y,1/2-z
5 -x,-y,-z
6 1/2-x,1/2-y,-z
7 x,-y,1/2+z
8 1/2+x,1/2-y,1/2+z
_cell_length_a                   28.59(1)
_cell_length_b                   9.087(8)
_cell_length_c                   17.239(7)
_cell_angle_alpha                90
_cell_angle_beta                 106.08(4)
_cell_angle_gamma                90
_cell_volume                     4303.42
loop_
_atom_site_label
_atom_site_type_symbol
_atom_site_fract_x
_atom_site_fract_y
_atom_site_fract_z
Cd1 Cd 0.0000 0.00000 0.0000
Ni1 Ni 0.0000 0.34254(6) 0.2500
N1 N 0.0573(1) 0.1628(4) -0.0284(2)
N2 N 0.4407(1) 0.3259(4) 0.4364(2)
N3 N 0.0056(1) 0.1125(3) 0.1279(2)
N4 N 0.0048(2) 0.5815(5) 0.1321(3)
C1 C 0.0901(2) 0.2572(4) 0.0328(3)
C2 C 0.1286(1) 0.1678(4) 0.0914(3)
C3 C 0.1674(2) 0.2608(5) 0.1484(3)
C4 C 0.2084(1) 0.1710(5) 0.2020(3)
C5 C 0.2481(2) 0.2621(5) 0.2578(3)
C6 C 0.2884(1) 0.1695(5) 0.3112(3)
C7 C 0.3295(2) 0.2590(5) 0.3657(3)
C8 C 0.3675(1) 0.1674(5) 0.4248(3)
C9 C 0.4087(2) 0.2572(5) 0.4787(2)
C10 C 0.0034(1) 0.1991(4) 0.1745(2)
C11 C 0.0034(2) 0.4884(4) 0.1764(2)
H1 H 0.076(1) 0.120(4) -0.049(2)
H2 H 0.042(2) 0.221(5) -0.065(3)
H3 H 0.070(1) 0.308(4) 0.059(2)
H4 H 0.106(2) 0.321(5) 0.006(3)
H5 H 0.113(1) 0.103(4) 0.124(2)
H6 H 0.142(2) 0.107(5) 0.060(3)
H7 H 0.153(2) 0.310(5) 0.182(3)
H8 H 0.179(2) 0.331(6) 0.120(3)
H9 H 0.221(2) 0.118(5) 0.170(3)
H10 H 0.194(1) 0.106(5) 0.237(2)
H11 H 0.235(2) 0.324(5) 0.291(3)
H12 H 0.261(2) 0.320(6) 0.229(3)
H13 H 0.276(1) 0.110(4) 0.344(2)
H14 H 0.301(2) 0.107(5) 0.276(3)
H15 H 0.345(2) 0.324(5) 0.331(3)
H16 H 0.318(2) 0.329(6) 0.390(3)
H17 H 0.382(2) 0.103(5) 0.393(2)
H18 H 0.350(2) 0.112(5) 0.461(3)
H19 H 0.430(2) 0.196(5) 0.520(3)
H20 H 0.396(1) 0.332(5) 0.511(2)
H21 H 0.425(2) 0.371(5) 0.394(3)
H22 H 0.456(2) 0.254(6) 0.420(3)
N1D N -0.0573(1) -0.1628(4) 0.0284(2)
N2D N -0.4407(1) -0.3259(4) -0.4364(2)
C1D C -0.0901(2) -0.2572(4) -0.0328(3)
C2D C -0.1286(1) -0.1678(4) -0.0914(3)
C3D C -0.1674(2) -0.2608(5) -0.1484(3)
C4D C -0.2084(1) -0.1710(5) -0.2020(3)
C5D C -0.2481(2) -0.2621(5) -0.2578(3)
C6D C -0.2884(1) -0.1695(5) -0.3112(3)
C7D C -0.3295(2) -0.2590(5) -0.3657(3)
C8D C -0.3675(1) -0.1674(5) -0.4248(3)
C9D C -0.4087(2) -0.2572(5) -0.4787(2)
H1D H -0.076(1) -0.120(4) 0.049(2)
H2D H -0.042(2) -0.221(5) 0.065(3)
H3D H -0.070(1) -0.308(4) -0.059(2)
H4D H -0.106(2) -0.321(5) -0.006(3)
H5D H -0.113(1) -0.103(4) -0.124(2)
H6D H -0.142(2) -0.107(5) -0.060(3)
H7D H -0.153(2) -0.310(5) -0.182(3)
H8D H -0.179(2) -0.331(6) -0.120(3)
H9D H -0.221(2) -0.118(5) -0.170(3)
H10D H -0.194(1) -0.106(5) -0.237(2)
H11D H -0.235(2) -0.324(5) -0.291(3)
H12D H -0.261(2) -0.320(6) -0.229(3)
H13D H -0.276(1) -0.110(4) -0.344(2)
H14D H -0.301(2) -0.107(5) -0.276(3)
H15D H -0.345(2) -0.324(5) -0.331(3)
H16D H -0.318(2) -0.329(6) -0.390(3)
H17D H -0.382(2) -0.103(5) -0.393(2)
H18D H -0.350(2) -0.112(5) -0.461(3)
H19D H -0.430(2) -0.196(5) -0.520(3)
H20D H -0.396(1) -0.332(5) -0.511(2)
H21D H -0.425(2) -0.371(5) -0.394(3)
H22D H -0.456(2) -0.254(6) -0.420(3)
N3D N -0.0056(1) -0.1125(3) -0.1279(2)
C10D C -0.0034(1) -0.1991(4) -0.1745(2)
N4B N -0.0048(2) 0.5815(5) 0.3679(3)
C11B C -0.0034(2) 0.4884(4) 0.3236(2)
N2C N 0.0593(1) -0.1741(4) 0.0636(2)
N2G N -0.0593(1) 0.1741(4) -0.0636(2)
C10B C -0.0034(1) 0.1991(4) 0.3255(2)
Cd1C Cd 0.5000 0.50000 0.5000
Cd1C_2 Cd -0.5000 -0.50000 -0.5000
Ni1D Ni 0.0000 -0.34254(6) -0.2500
H21C H 0.075(2) -0.129(5) 0.106(3)
H22C H 0.044(2) -0.246(6) 0.080(3)
H21G H -0.075(2) 0.129(5) -0.106(3)
H22G H -0.044(2) 0.246(6) -0.080(3)
N5 N 0.0651(2) -0.1450(8) 0.2549(3)
C12 C 0.1075(2) -0.1050(7) 0.3112(3)
C13 C 0.1405(2) -0.2142(7) 0.3533(3)
C14 C 0.1821(2) -0.1685(8) 0.4077(3)
C15 C 0.1945(2) -0.0207(7) 0.4255(3)
C16 C 0.1621(2) 0.0823(8) 0.3844(4)
C17 C 0.1193(2) 0.0397(7) 0.3288(3)
C18 C 0.1297(3) -0.371(1) 0.3366(6)
C19 C 0.2410(3) 0.021(1) 0.4891(6)
H23 H 0.202(2) -0.244(6) 0.440(3)
H24 H 0.168(2) 0.194(7) 0.394(3)
H25 H 0.102(2) 0.134(6) 0.305(3)
H26 H 0.152(3) -0.449(8) 0.361(4)
H27 H 0.103(2) -0.415(7) 0.352(4)
H28 H 0.124(3) -0.41(1) 0.287(5)
H29 H 0.236(5) -0.01(1) 0.54(1)
H30 H 0.273(4) -0.03(1) 0.480(6)
H31 H 0.244(3) 0.12(1) 0.474(5)
H32 H 0.057(4) -0.25(1) 0.263(6)
H33 H 0.045(3) -0.04(1) 0.235(5)
loop_
_geom_bond_atom_site_label_1
_geom_bond_atom_site_label_2
_geom_bond_site_symmetry_1
_geom_bond_site_symmetry_2
Cd1 N1 1_555 1_555
Ni1 C10 1_555 1_555
N1 C1 1_555 1_555
N2 C9 1_555 1_555
N3 Cd1 1_555 1_555
N4 C11 1_555 1_555
C1 C2 1_555 1_555
C2 C3 1_555 1_555
C3 C4 1_555 1_555
C4 C5 1_555 1_555
C5 C6 1_555 1_555
C6 C7 1_555 1_555
C7 C8 1_555 1_555
C8 C9 1_555 1_555
C9 H19 1_555 1_555
C10 N3 1_555 1_555
C11 Ni1 1_555 1_555
H1 N1 1_555 1_555
H2 N1 1_555 1_555
H3 C1 1_555 1_555
H4 C1 1_555 1_555
H5 C2 1_555 1_555
H6 C2 1_555 1_555
H7 C3 1_555 1_555
H8 C3 1_555 1_555
H9 C4 1_555 1_555
H10 C4 1_555 1_555
H11 C5 1_555 1_555
H12 C5 1_555 1_555
H13 C6 1_555 1_555
H14 C6 1_555 1_555
H15 C7 1_555 1_555
H16 C7 1_555 1_555
H17 C8 1_555 1_555
H18 C8 1_555 1_555
H20 C9 1_555 1_555
H21 N2 1_555 1_555
H22 N2 1_555 1_555
N5 C12 1_555 1_555
C12 C13 1_555 1_555
C13 C14 1_555 1_555
C14 C15 1_555 1_555
C15 C16 1_555 1_555
C16 C17 1_555 1_555
C17 C12 1_555 1_555
C18 C13 1_555 1_555
C19 C15 1_555 1_555
H23 C14 1_555 1_555
H24 C16 1_555 1_555
H25 C17 1_555 1_555
H26 C18 1_555 1_555
H27 C18 1_555 1_555
H28 C18 1_555 1_555
H29 C19 1_555 1_555
H30 C19 1_555 1_555
H31 C19 1_555 1_555
H32 N5 1_555 1_555
H33 N5 1_555 1_555
N1D Cd1 1_555 1_555
N2D C9D 1_555 1_555
C1D N1D 1_555 1_555
C2D C1D 1_555 1_555
C3D C2D 1_555 1_555
C4D C3D 1_555 1_555
C5D C4D 1_555 1_555
C6D C5D 1_555 1_555
C7D C6D 1_555 1_555
C8D C7D 1_555 1_555
C9D C8D 1_555 1_555
H1D N1D 1_555 1_555
H2D N1D 1_555 1_555
H3D C1D 1_555 1_555
H4D C1D 1_555 1_555
H5D C2D 1_555 1_555
H6D C2D 1_555 1_555
H7D C3D 1_555 1_555
H8D C3D 1_555 1_555
H9D C4D 1_555 1_555
H10D C4D 1_555 1_555
H11D C5D 1_555 1_555
H12D C5D 1_555 1_555
H13D C6D 1_555 1_555
H14D C6D 1_555 1_555
H15D C7D 1_555 1_555
H16D C7D 1_555 1_555
H17D C8D 1_555 1_555
H18D C8D 1_555 1_555
H19D C9D 1_555 1_555
H20D C9D 1_555 1_555
H21D N2D 1_555 1_555
H22D N2D 1_555 1_555
N3D Cd1 1_555 1_555
C10D N3D 1_555 1_555
N4B C11B 1_555 1_555
C11B Ni1 1_555 1_555
N2C Cd1 1_555 1_555
N2G Cd1 1_555 1_555
C10B Ni1 1_555 1_555
Cd1C N2 1_555 1_555
Cd1C_2 N2D 1_555 1_555
Ni1D C10D 1_555 1_555
H21C N2C 1_555 1_555
H22C N2C 1_555 1_555
H21G N2G 1_555 1_555
H22G N2G 1_555 1_555

#END
