
#######################################################################
#
#                 Cambridge Crystallographic Data Centre
#                                CCDC 
#
#######################################################################
#
# If this CIF has been generated from an entry in the Cambridge 
# Structural Database, then it will include bibliographic, chemical, 
# crystal, experimental, refinement or atomic coordinate data resulting 
# from the CCDC's data processing and validation procedures.
#
#######################################################################

data_KEXKAB
_symmetry_cell_setting           orthorhombic
_symmetry_space_group_name_H-M   'P n a 21'
_symmetry_Int_Tables_number      33
_space_group_name_Hall           'P 2c -2n'
loop_
_symmetry_equiv_pos_site_id
_symmetry_equiv_pos_as_xyz
1 x,y,z
2 -x,-y,1/2+z
3 1/2+x,1/2-y,z
4 1/2-x,1/2+y,1/2+z
_cell_length_a                   14.610(3)
_cell_length_b                   7.3190(15)
_cell_length_c                   20.564(4)
_cell_angle_alpha                90
_cell_angle_beta                 90
_cell_angle_gamma                90
_cell_volume                     2198.92
loop_
_atom_site_label
_atom_site_type_symbol
_atom_site_fract_x
_atom_site_fract_y
_atom_site_fract_z
Zn1 Zn 0.87484(3) 0.75010(4) 0.87844(4)
Zn2 Zn 0.62562(3) 0.23740(5) 0.95463(3)
O1 O 0.9716(3) 0.7511(2) 0.9571(3)
H1 H 1.003(2) 0.659(4) 0.943(2)
H2 H 1.007(2) 0.842(4) 0.947(3)
O2 O 0.7216(3) 0.2424(3) 0.8760(3)
H3 H 0.750(3) 0.142(3) 0.884(3)
H4 H 0.746(3) 0.347(3) 0.884(3)
O3 O 0.7918(2) 0.5513(5) 0.9254(2)
O4 O 0.6954(2) 0.4535(4) 1.0012(2)
O5 O 0.7989(2) 0.9426(5) 0.9297(2)
O6 O 0.6947(2) 1.0247(4) 1.0011(2)
O7 O 0.5442(2) 0.4350(4) 0.9088(2)
O8 O 0.4500(2) 0.5384(4) 0.8321(2)
O9 O 0.5441(2) 0.0449(4) 0.9033(2)
O10 O 0.4390(2) -0.0335(4) 0.8294(2)
N1 N 0.7801(2) 0.7817(4) 0.7980(3)
N2 N 0.4692(2) 0.7843(4) 0.5344(3)
C1 C 0.7505(3) 0.5663(6) 0.9790(3)
C2 C 0.7683(4) 0.7406(4) 1.0195(3)
H5 H 0.7276 0.7410 1.0568
H6 H 0.8307 0.7382 1.0356
C3 C 0.7534(3) 0.9173(6) 0.9801(3)
C4 C 0.5022(3) 0.4156(6) 0.8550(3)
C5 C 0.5165(5) 0.2478(4) 0.8150(4)
H7 H 0.4762 0.2517 0.7775
H8 H 0.5791 0.2459 0.7992
C6 C 0.4985(3) 0.0771(6) 0.8524(3)
C7 C 0.8048(2) 0.8469(5) 0.7414(2)
H9 H 0.8650 0.8857 0.7363
C8 C 0.7467(2) 0.8613(5) 0.6886(2)
H10 H 0.7677 0.9068 0.6491
C9 C 0.6561(2) 0.8065(5) 0.6957(2)
C10 C 0.6301(3) 0.7448(4) 0.7569(4)
H11 H 0.5697 0.7112 0.7647
C11 C 0.6934(4) 0.7337(5) 0.8055(4)
H12 H 0.6747 0.6903 0.8459
C12 C 0.5921(2) 0.8060(5) 0.6398(2)
C13 C 0.4996(2) 0.8461(5) 0.6475(2)
H13 H 0.4771 0.8809 0.6879
C14 C 0.4417(2) 0.8342(5) 0.5951(2)
H14 H 0.3802 0.8618 0.6014
C15 C 0.5602(3) 0.7499(4) 0.5271(4)
H15 H 0.5819 0.7184 0.4861
C16 C 0.6217(2) 0.7599(5) 0.5781(4)
H16 H 0.6833 0.7355 0.5708
Zn1B Zn 0.37484(3) -0.25010(4) 0.87844(4)
Zn1B_2 Zn 0.37484(3) 0.74990(4) 0.87844(4)
Zn2_2 Zn 0.62562(3) 1.23740(5) 0.95463(3)
Zn2A Zn 0.37438(3) 0.76260(5) 0.45463(3)
O6_2 O 0.6947(2) 0.0247(4) 1.0011(2)
O8B O 0.9500(2) 0.9616(4) 0.8321(2)
O10B O 0.9390(2) 0.5335(4) 0.8294(2)
N2A N 0.5308(2) 0.2157(4) 1.0344(3)
C17 C 0.0346(3) 0.8278(7) 0.1146(3)
H17 H 0.0788 0.7723 0.1430
H18 H 0.0514 0.9527 0.1068
H19 H 0.0332 0.7626 0.0741
C18 C -0.0548(4) 0.8212(7) 0.1446(3)
N3 N -0.1254(4) 0.8168(7) 0.1681(4)
O11 O 0.3219(3) 0.1225(7) 0.7131(2)
H20 H 0.344(3) 0.122(8) 0.7555(9)
H21 H 0.266(2) 0.179(8) 0.704(3)
loop_
_geom_bond_atom_site_label_1
_geom_bond_atom_site_label_2
_geom_bond_site_symmetry_1
_geom_bond_site_symmetry_2
Zn1 O1 1_555 1_555
Zn2 O2 1_555 1_555
O1 H1 1_555 1_555
H2 O1 1_555 1_555
O2 H3 1_555 1_555
H4 O2 1_555 1_555
O3 Zn1 1_555 1_555
O4 Zn2 1_555 1_555
O5 Zn1 1_555 1_555
O6 C3 1_555 1_555
O7 Zn2 1_555 1_555
O8 C4 1_555 1_555
O9 Zn2 1_555 1_555
O10 C6 1_555 1_555
N1 Zn1 1_555 1_555
N2 C14 1_555 1_555
C1 O3 1_555 1_555
C2 C1 1_555 1_555
H5 C2 1_555 1_555
H6 C2 1_555 1_555
C3 O5 1_555 1_555
C4 O7 1_555 1_555
C5 C4 1_555 1_555
H7 C5 1_555 1_555
H8 C5 1_555 1_555
C6 O9 1_555 1_555
C7 N1 1_555 1_555
H9 C7 1_555 1_555
C8 C7 1_555 1_555
H10 C8 1_555 1_555
C9 C8 1_555 1_555
C10 C9 1_555 1_555
H11 C10 1_555 1_555
C11 N1 1_555 1_555
H12 C11 1_555 1_555
C12 C9 1_555 1_555
C13 C12 1_555 1_555
H13 C13 1_555 1_555
C14 C13 1_555 1_555
H14 C14 1_555 1_555
C15 N2 1_555 1_555
H15 C15 1_555 1_555
C16 C12 1_555 1_555
H16 C16 1_555 1_555
C17 H17 1_555 1_555
H18 C17 1_555 1_555
H19 C17 1_555 1_555
C18 C17 1_555 1_555
N3 C18 1_555 1_555
O11 H20 1_555 1_555
H21 O11 1_555 1_555
Zn1B O10 1_555 1_555
Zn1B_2 O8 1_555 1_555
Zn2_2 O6 1_555 1_555
Zn2A N2 1_555 1_555
O6_2 Zn2 1_555 1_555
O8B Zn1 1_555 1_555
O10B Zn1 1_555 1_555
N2A Zn2 1_555 1_555
O4 C1 1_555 1_555
C2 C3 1_555 1_555
C5 C6 1_555 1_555
C10 C11 1_555 1_555
C15 C16 1_555 1_555

#END
