
#######################################################################
#
#                 Cambridge Crystallographic Data Centre
#                                CCDC 
#
#######################################################################
#
# If this CIF has been generated from an entry in the Cambridge 
# Structural Database, then it will include bibliographic, chemical, 
# crystal, experimental, refinement or atomic coordinate data resulting 
# from the CCDC's data processing and validation procedures.
#
#######################################################################

data_KICXEB
_symmetry_cell_setting           triclinic
_symmetry_space_group_name_H-M   'P -1'
_symmetry_Int_Tables_number      2
_space_group_name_Hall           '-P 1'
loop_
_symmetry_equiv_pos_site_id
_symmetry_equiv_pos_as_xyz
1 x,y,z
2 -x,-y,-z
_cell_length_a                   14.868(3)
_cell_length_b                   14.943(3)
_cell_length_c                   22.117(5)
_cell_angle_alpha                88.543(3)
_cell_angle_beta                 86.822(4)
_cell_angle_gamma                75.615(3)
_cell_volume                     4752.07
loop_
_atom_site_label
_atom_site_type_symbol
_atom_site_fract_x
_atom_site_fract_y
_atom_site_fract_z
W1 W 0.59451(10) -0.34027(10) 0.41319(7)
W2 W 0.66140(9) 0.11055(9) 0.22959(7)
W3 W 0.87306(9) -0.16183(10) 0.13149(7)
W4 W 0.60019(9) -0.32713(10) 0.13879(7)
W5 W 0.64159(9) -0.08817(9) 0.13719(6)
W6 W 0.96042(9) -0.46337(9) 0.26928(7)
W7 W 0.57596(9) -0.52438(9) 0.23602(7)
W8 W 0.80965(9) -0.60831(9) 0.22051(7)
W9 W 0.89567(9) 0.02639(10) 0.22919(7)
W10 W 0.76895(10) 0.06517(9) 0.36155(7)
W11 W 0.70408(9) -0.57558(9) 0.35938(7)
W12 W 0.84997(10) -0.41932(9) 0.40529(6)
W13 W 0.99418(9) -0.22090(10) 0.27252(7)
W14 W 0.47664(9) -0.28175(9) 0.28738(7)
W15 W 0.83185(9) -0.40022(10) 0.13042(6)
W16 W 0.62319(9) -0.09589(10) 0.41168(6)
W17 W 0.50859(9) -0.03884(9) 0.28326(6)
W18 W 0.87854(9) -0.17541(9) 0.40667(7)
Co1 Co 0.7777(3) 0.2512(3) 0.4797(2)
O1 O 0.7234(15) -0.3556(16) 0.4226(11)
O2 O 1.1109(15) -0.2380(16) 0.2580(11)
O3 O 0.7064(15) -0.4821(16) 0.2731(11)
O4 O 0.7635(15) -0.0200(16) 0.2740(11)
O5 O 0.8377(15) -0.2777(16) 0.1212(11)
O6 O 0.8843(15) -0.3076(16) 0.4054(11)
O7 O 0.6588(15) -0.1223(16) 0.3087(11)
O8 O 0.7824(15) -0.6491(16) 0.3027(11)
O9 O 0.8723(15) 0.0780(16) 0.3073(11)
O10 O 0.5093(15) -0.4159(16) 0.2719(11)
O11 O 0.9849(15) -0.3425(16) 0.2811(11)
O12 O 0.9041(15) -0.5605(16) 0.2568(11)
O13 O 0.7163(15) -0.3792(16) 0.0938(11)
O14 O 0.6854(15) -0.6087(16) 0.2012(11)
O15 O 0.6583(15) 0.0285(16) 0.1671(11)
O16 O 0.5496(15) -0.0737(16) 0.2043(11)
O17 O 0.7514(15) -0.1488(16) 0.2093(11)
O18 O 0.4852(15) -0.1595(16) 0.2975(11)
O19 O 0.8133(15) -0.5205(16) 0.1601(11)
O20 O 0.9513(15) -0.1695(16) 0.0722(11)
O21 O 0.5905(15) -0.2092(16) 0.4140(11)
O22 O 0.6341(15) -0.2092(16) 0.1288(11)
O23 O 0.4804(15) -0.3064(16) 0.3718(11)
O24 O 0.7506(15) -0.1600(16) 0.4233(11)
O25 O 0.6423(15) 0.2334(16) 0.5036(11)
O26 O 0.5147(15) -0.0335(16) 0.3690(11)
O27 O 0.8535(15) -0.0488(16) 0.3884(11)
O28 O 0.7969(15) -0.5274(16) 0.3831(11)
O29 O 0.7872(15) 0.1171(16) 0.2068(11)
O30 O 0.9792(15) 0.0756(16) 0.2019(11)
O31 O 0.6162(15) -0.4633(16) 0.3931(11)
O32 O 0.5921(15) -0.4437(16) 0.1686(11)
O33 O 0.9183(15) -0.1724(16) 0.4761(11)
O34 O 0.5949(15) 0.2138(16) 0.2032(11)
O35 O 0.5679(15) 0.0580(16) 0.2705(11)
O36 O 0.6758(15) 0.0097(16) 0.3916(11)
O37 O 0.4926(15) -0.5727(16) 0.2111(11)
O38 O 0.8767(15) -0.0486(16) 0.1610(11)
O39 O 0.7577(15) -0.1052(16) 0.0943(11)
O40 O 0.3591(15) -0.2608(16) 0.2806(11)
O41 O 0.5858(15) -0.0627(16) 0.4860(11)
O42 O 0.5502(15) -0.3490(16) 0.4870(11)
O43 O 0.8354(15) -0.1851(16) 0.3040(11)
O44 O 0.7224(15) -0.3497(16) 0.2078(11)
O45 O 0.8098(15) -0.3825(16) 0.3042(11)
O46 O 0.9544(15) -0.4797(16) 0.3558(11)
O47 O 0.9200(15) -0.4154(16) 0.1924(11)
O48 O 0.5213(15) -0.2767(16) 0.2065(11)
O49 O 0.5248(15) -0.3125(16) 0.0838(11)
O50 O 0.9647(15) -0.0870(16) 0.2602(11)
O51 O 0.5991(15) -0.5819(16) 0.3118(11)
O52 O 0.9489(15) -0.2210(16) 0.1914(11)
O53 O 0.9910(15) -0.2016(16) 0.3568(11)
O54 O 0.8877(15) -0.4652(16) 0.4751(11)
O55 O 0.6349(15) -0.3177(16) 0.3089(11)
O56 O 1.0720(15) -0.5247(16) 0.2502(11)
O57 O 0.6945(15) -0.6528(16) 0.4133(11)
O58 O 0.3964(15) 0.0229(16) 0.2740(11)
O59 O 0.5744(15) -0.0424(16) 0.0775(11)
O60 O 0.9044(15) -0.4431(16) 0.0700(11)
O61 O 0.7769(15) 0.1423(16) 0.4164(11)
O62 O 0.8698(15) -0.7063(16) 0.1876(11)
O63 O 0.6877(15) 0.1460(16) 0.3091(11)
P1 P 0.7183(6) -0.3802(6) 0.2742(4)
N1 N 0.857(2) 0.054(2) 0.6167(16)
N2 N 0.900(2) 0.268(2) 0.4339(16)
N3 N 0.041(2) 0.378(2) 0.0550(16)
N4 N 0.758(2) 0.360(2) 0.5409(16)
N5 N 0.615(2) 0.044(2) 0.9572(16)
N6 N 0.438(2) 0.128(2) 0.0455(16)
N7 N 0.703(2) 0.084(2) 0.8840(16)
N8 N 1.016(2) 0.262(2) 0.3616(16)
N9 N 0.919(2) 0.012(2) 0.5741(16)
N10 N 0.764(2) 0.027(2) 0.9222(16)
N11 N 1.399(2) 0.206(2) 0.3856(16)
N12 N 0.352(2) 0.265(2) 0.0696(16)
N13 N 1.466(2) 0.201(2) 0.4223(16)
N14 N 0.091(2) 0.233(2) 0.0838(16)
N15 N 0.813(2) 0.420(2) 0.8899(16)
N16 N 0.757(2) 0.436(2) 0.6228(16)
N17 N 0.689(2) 0.491(2) 0.5908(16)
N18 N 0.083(2) 0.286(2) 0.1307(16)
N19 N 0.750(2) 0.468(2) 0.9269(16)
N20 N 1.480(2) 0.281(2) 0.3382(16)
N21 N 0.384(2) 0.217(2) 0.1222(16)
N22 N 1.028(2) 0.315(2) 0.4058(16)
N23 N 0.895(2) 0.449(2) 0.9582(16)
N24 N 0.833(2) 0.147(2) 0.5395(16)
C1 C 0.737(3) 0.472(3) 0.7916(19)
H1 H 0.7821 0.5086 0.7870
H2 H 0.6810 0.5096 0.8112
C2 C 0.618(3) 0.093(3) 0.9064(19)
H3 H 0.5651 0.1286 0.8889
C3 C 1.099(3) 0.360(3) 0.405(2)
H4 H 1.0818 0.4113 0.4324
H5 H 1.1051 0.3859 0.3642
C4 C 0.706(3) 0.008(3) 0.967(2)
H6 H 0.7271 -0.0266 1.0016
C5 C 0.383(3) 0.208(3) 0.030(2)
H7 H 0.3672 0.2199 -0.0101
C6 C 0.851(3) 0.008(3) 0.6777(19)
H8 H 0.8276 -0.0458 0.6737
H9 H 0.9132 -0.0115 0.6931
C7 C 1.194(3) 0.302(3) 0.4203(19)
H10 H 1.2383 0.3398 0.4154
H11 H 1.1910 0.2841 0.4627
C8 C 1.229(3) 0.217(3) 0.3837(19)
H12 H 1.1938 0.2022 0.3537
C9 C 1.319(3) 0.158(3) 0.396(2)
H13 H 1.3316 0.1044 0.3708
H14 H 1.3183 0.1373 0.4381
C10 C 0.736(3) 0.116(3) 0.8250(19)
H15 H 0.7784 0.1539 0.8316
H16 H 0.6832 0.1536 0.8043
C11 C 0.784(3) 0.035(3) 0.7858(19)
H17 H 0.7486 -0.0113 0.7877
H18 H 0.8454 0.0080 0.7998
C12 C 0.791(3) 0.072(3) 0.7207(19)
H19 H 0.7287 0.0888 0.7055
H20 H 0.8126 0.1278 0.7216
C13 C 1.407(3) 0.250(3) 0.3356(19)
H21 H 1.3680 0.2568 0.3036
C14 C 1.519(3) 0.248(3) 0.3924(19)
H22 H 1.5737 0.2569 0.4057
C15 C 0.798(3) 0.487(3) 0.9732(19)
H23 H 0.7733 0.5186 1.0083
C16 C 0.715(3) 0.448(3) 0.7307(19)
H24 H 0.7134 0.3833 0.7310
H25 H 0.6529 0.4842 0.7222
C17 C 0.774(3) 0.392(3) 0.8314(19)
H26 H 0.8228 0.3484 0.8093
H27 H 0.7247 0.3619 0.8426
C18 C 0.779(3) 0.463(3) 0.6825(19)
H28 H 0.8411 0.4282 0.6915
H29 H 0.7789 0.5280 0.6813
C19 C 0.688(3) 0.442(3) 0.5411(19)
H30 H 0.6459 0.4604 0.5107
C20 C 0.100(3) 0.246(3) 0.1915(19)
H31 H 0.0701 0.1953 0.1980
H32 H 0.0747 0.2923 0.2218
C21 C 0.208(3) 0.209(3) 0.197(2)
H33 H 0.2205 0.1769 0.2357
H34 H 0.2337 0.1660 0.1650
C22 C 0.254(3) 0.290(3) 0.193(2)
H35 H 0.2393 0.3250 0.2302
H36 H 0.2301 0.3301 0.1598
C23 C 0.362(3) 0.256(3) 0.1838(19)
H37 H 0.3901 0.3067 0.1881
H38 H 0.3857 0.2087 0.2139
C24 C 0.795(3) 0.363(3) 0.5941(19)
H39 H 0.8426 0.3170 0.6087
C25 C 0.899(3) 0.069(3) 0.530(2)
H40 H 0.9302 0.0573 0.4919
C26 C 0.811(3) 0.134(3) 0.5983(19)
H41 H 0.7684 0.1762 0.6222
C27 C 0.083(3) 0.292(3) 0.036(2)
H42 H 0.1023 0.2757 -0.0042
C28 C 0.956(3) 0.322(3) 0.4475(19)
H43 H 0.9467 0.3599 0.4813
C29 C 0.939(3) 0.231(3) 0.3816(19)
H44 H 0.9160 0.1881 0.3607
C30 C 0.044(3) 0.372(3) 0.1141(19)
H45 H 0.0215 0.4205 0.1405
C31 C 0.435(3) 0.134(3) 0.1058(19)
H46 H 0.4645 0.0882 0.1322
C32 C 0.897(3) 0.417(3) 0.9011(19)
H47 H 0.9496 0.3976 0.8753
Co2 Co 0.5000 0.0000 0.0000
P2 P 0.7518(6) -0.1238(6) 0.2745(4)
Co3 Co 1.0000 -0.5000 0.0000
W1A W 0.40549(10) 0.34027(10) -0.41319(7)
W2A W 0.33860(9) -0.11055(9) -0.22959(7)
W3A W 0.12694(9) 0.16183(10) -0.13149(7)
W4A W 0.39981(9) 0.32713(10) -0.13879(7)
W5A W 0.35841(9) 0.08817(9) -0.13719(6)
W6A W 0.03958(9) 0.46337(9) -0.26928(7)
W7A W 0.42404(9) 0.52438(9) -0.23602(7)
W8A W 0.19035(9) 0.60831(9) -0.22051(7)
W9A W 0.10433(9) -0.02639(10) -0.22919(7)
W10A W 0.23105(10) -0.06517(9) -0.36155(7)
W11A W 0.29592(9) 0.57558(9) -0.35938(7)
W12A W 0.15003(10) 0.41932(9) -0.40529(6)
W13A W 0.00582(9) 0.22090(10) -0.27252(7)
W14A W 0.52336(9) 0.28175(9) -0.28738(7)
W15A W 0.16815(9) 0.40022(10) -0.13042(6)
W16A W 0.37681(9) 0.09589(10) -0.41168(6)
W17A W 0.49141(9) 0.03884(9) -0.28326(6)
W18A W 0.12146(9) 0.17541(9) -0.40667(7)
Co1A Co 0.2223(3) -0.2512(3) -0.4797(2)
O1A O 0.2766(15) 0.3556(16) -0.4226(11)
O2A O -0.1109(15) 0.2380(16) -0.2580(11)
O3A O 0.2936(15) 0.4821(16) -0.2731(11)
O4A O 0.2365(15) 0.0200(16) -0.2740(11)
O5A O 0.1623(15) 0.2777(16) -0.1212(11)
O6A O 0.1157(15) 0.3076(16) -0.4054(11)
O7A O 0.3412(15) 0.1223(16) -0.3087(11)
O8A O 0.2176(15) 0.6491(16) -0.3027(11)
O9A O 0.1277(15) -0.0780(16) -0.3073(11)
O10A O 0.4907(15) 0.4159(16) -0.2719(11)
O11A O 0.0151(15) 0.3425(16) -0.2811(11)
O12A O 0.0959(15) 0.5605(16) -0.2568(11)
O13A O 0.2837(15) 0.3792(16) -0.0938(11)
O14A O 0.3146(15) 0.6087(16) -0.2012(11)
O15A O 0.3417(15) -0.0285(16) -0.1671(11)
O16A O 0.4504(15) 0.0737(16) -0.2043(11)
O17A O 0.2486(15) 0.1488(16) -0.2093(11)
O18A O 0.5148(15) 0.1595(16) -0.2975(11)
O19A O 0.1867(15) 0.5205(16) -0.1601(11)
O20A O 0.0487(15) 0.1695(16) -0.0722(11)
O21A O 0.4095(15) 0.2092(16) -0.4140(11)
O22A O 0.3659(15) 0.2092(16) -0.1288(11)
O23A O 0.5196(15) 0.3064(16) -0.3718(11)
O24A O 0.2494(15) 0.1600(16) -0.4233(11)
O25A O 0.3577(15) -0.2334(16) -0.5036(11)
O26A O 0.4853(15) 0.0335(16) -0.3690(11)
O27A O 0.1465(15) 0.0488(16) -0.3884(11)
O28A O 0.2031(15) 0.5274(16) -0.3831(11)
O29A O 0.2128(15) -0.1171(16) -0.2068(11)
O30A O 0.0208(15) -0.0756(16) -0.2019(11)
O31A O 0.3838(15) 0.4633(16) -0.3931(11)
O32A O 0.4079(15) 0.4437(16) -0.1686(11)
O33A O 0.0817(15) 0.1724(16) -0.4761(11)
O34A O 0.4051(15) -0.2138(16) -0.2032(11)
O35A O 0.4321(15) -0.0580(16) -0.2705(11)
O36A O 0.3242(15) -0.0097(16) -0.3916(11)
O37A O 0.5074(15) 0.5727(16) -0.2111(11)
O38A O 0.1233(15) 0.0486(16) -0.1610(11)
O39A O 0.2423(15) 0.1052(16) -0.0943(11)
O40A O 0.6409(15) 0.2608(16) -0.2806(11)
O41A O 0.4142(15) 0.0627(16) -0.4860(11)
O42A O 0.4498(15) 0.3490(16) -0.4870(11)
O43A O 0.1646(15) 0.1851(16) -0.3040(11)
O44A O 0.2776(15) 0.3497(16) -0.2078(11)
O45A O 0.1902(15) 0.3825(16) -0.3042(11)
O46A O 0.0456(15) 0.4797(16) -0.3558(11)
O47A O 0.0800(15) 0.4154(16) -0.1924(11)
O48A O 0.4787(15) 0.2767(16) -0.2065(11)
O49A O 0.4752(15) 0.3125(16) -0.0838(11)
O50A O 0.0353(15) 0.0870(16) -0.2602(11)
O51A O 0.4009(15) 0.5819(16) -0.3118(11)
O52A O 0.0511(15) 0.2210(16) -0.1914(11)
O53A O 0.0090(15) 0.2016(16) -0.3568(11)
O54A O 0.1123(15) 0.4652(16) -0.4751(11)
O55A O 0.3651(15) 0.3177(16) -0.3089(11)
O56A O -0.0720(15) 0.5247(16) -0.2502(11)
O57A O 0.3055(15) 0.6528(16) -0.4133(11)
O58A O 0.6036(15) -0.0229(16) -0.2740(11)
O59A O 0.4256(15) 0.0424(16) -0.0775(11)
O60A O 0.0956(15) 0.4431(16) -0.0700(11)
O61A O 0.2231(15) -0.1423(16) -0.4164(11)
O62A O 0.1302(15) 0.7063(16) -0.1876(11)
O63A O 0.3123(15) -0.1460(16) -0.3091(11)
P1A P 0.2817(6) 0.3802(6) -0.2742(4)
N1A N 0.143(2) -0.054(2) -0.6167(16)
N2A N 0.100(2) -0.268(2) -0.4339(16)
N3A N 0.959(2) -0.378(2) -0.0550(16)
N4A N 0.242(2) -0.360(2) -0.5409(16)
N5A N 0.385(2) -0.044(2) -0.9572(16)
N6A N 0.562(2) -0.128(2) -0.0455(16)
N7A N 0.297(2) -0.084(2) -0.8840(16)
N8A N -0.016(2) -0.262(2) -0.3616(16)
N9A N 0.081(2) -0.012(2) -0.5741(16)
N10A N 0.236(2) -0.027(2) -0.9222(16)
N11A N -0.399(2) -0.206(2) -0.3856(16)
N12A N 0.648(2) -0.265(2) -0.0696(16)
N13A N -0.466(2) -0.201(2) -0.4223(16)
N14A N 0.909(2) -0.233(2) -0.0838(16)
N15A N 0.187(2) -0.420(2) -0.8899(16)
N16A N 0.243(2) -0.436(2) -0.6228(16)
N17A N 0.311(2) -0.491(2) -0.5908(16)
N18A N 0.917(2) -0.286(2) -0.1307(16)
N19A N 0.250(2) -0.468(2) -0.9269(16)
N20A N -0.480(2) -0.281(2) -0.3382(16)
N21A N 0.616(2) -0.217(2) -0.1222(16)
N22A N -0.028(2) -0.315(2) -0.4058(16)
N23A N 0.105(2) -0.449(2) -0.9582(16)
N24A N 0.167(2) -0.147(2) -0.5395(16)
C1A C 0.263(3) -0.472(3) -0.7916(19)
H1A H 0.2179 -0.5086 -0.7870
H2A H 0.3190 -0.5096 -0.8112
C2A C 0.382(3) -0.093(3) -0.9064(19)
H3A H 0.4349 -0.1286 -0.8889
C3A C -0.099(3) -0.360(3) -0.405(2)
H4A H -0.0818 -0.4113 -0.4324
H5A H -0.1051 -0.3859 -0.3642
C4A C 0.294(3) -0.008(3) -0.967(2)
H6A H 0.2729 0.0266 -1.0016
C5A C 0.617(3) -0.208(3) -0.030(2)
H7A H 0.6328 -0.2199 0.0101
C6A C 0.149(3) -0.008(3) -0.6777(19)
H8A H 0.1724 0.0458 -0.6737
H9A H 0.0868 0.0115 -0.6931
C7A C -0.194(3) -0.302(3) -0.4203(19)
H10A H -0.2383 -0.3398 -0.4154
H11A H -0.1910 -0.2841 -0.4627
C8A C -0.229(3) -0.217(3) -0.3837(19)
H12A H -0.1938 -0.2022 -0.3537
C9A C -0.319(3) -0.158(3) -0.396(2)
H13A H -0.3316 -0.1044 -0.3708
H14A H -0.3183 -0.1373 -0.4381
C10A C 0.264(3) -0.116(3) -0.8250(19)
H15A H 0.2216 -0.1539 -0.8316
H16A H 0.3168 -0.1536 -0.8043
C11A C 0.216(3) -0.035(3) -0.7858(19)
H17A H 0.2514 0.0113 -0.7877
H18A H 0.1546 -0.0080 -0.7998
C12A C 0.209(3) -0.072(3) -0.7207(19)
H19A H 0.2713 -0.0888 -0.7055
H20A H 0.1874 -0.1278 -0.7216
C13A C -0.407(3) -0.250(3) -0.3356(19)
H21A H -0.3680 -0.2568 -0.3036
C14A C -0.519(3) -0.248(3) -0.3924(19)
H22A H -0.5737 -0.2569 -0.4057
C15A C 0.202(3) -0.487(3) -0.9732(19)
H23A H 0.2267 -0.5186 -1.0083
C16A C 0.285(3) -0.448(3) -0.7307(19)
H24A H 0.2866 -0.3833 -0.7310
H25A H 0.3471 -0.4842 -0.7222
C17A C 0.226(3) -0.392(3) -0.8314(19)
H26A H 0.1772 -0.3484 -0.8093
H27A H 0.2753 -0.3619 -0.8426
C18A C 0.221(3) -0.463(3) -0.6825(19)
H28A H 0.1589 -0.4282 -0.6915
H29A H 0.2211 -0.5280 -0.6813
C19A C 0.312(3) -0.442(3) -0.5411(19)
H30A H 0.3541 -0.4604 -0.5107
C20A C 0.900(3) -0.246(3) -0.1915(19)
H31A H 0.9299 -0.1953 -0.1980
H32A H 0.9253 -0.2923 -0.2218
C21A C 0.792(3) -0.209(3) -0.197(2)
H33A H 0.7795 -0.1769 -0.2357
H34A H 0.7663 -0.1660 -0.1650
C22A C 0.746(3) -0.290(3) -0.193(2)
H35A H 0.7607 -0.3250 -0.2302
H36A H 0.7699 -0.3301 -0.1598
C23A C 0.638(3) -0.256(3) -0.1838(19)
H37A H 0.6099 -0.3067 -0.1881
H38A H 0.6143 -0.2087 -0.2139
C24A C 0.205(3) -0.363(3) -0.5941(19)
H39A H 0.1574 -0.3170 -0.6087
C25A C 0.101(3) -0.069(3) -0.530(2)
H40A H 0.0698 -0.0573 -0.4919
C26A C 0.189(3) -0.134(3) -0.5983(19)
H41A H 0.2316 -0.1762 -0.6222
C27A C 0.917(3) -0.292(3) -0.036(2)
H42A H 0.8977 -0.2757 0.0042
C28A C 0.044(3) -0.322(3) -0.4475(19)
H43A H 0.0533 -0.3599 -0.4813
C29A C 0.061(3) -0.231(3) -0.3816(19)
H44A H 0.0840 -0.1881 -0.3607
C30A C 0.956(3) -0.372(3) -0.1141(19)
H45A H 0.9785 -0.4205 -0.1405
C31A C 0.565(3) -0.134(3) -0.1058(19)
H46A H 0.5355 -0.0882 -0.1322
C32A C 0.103(3) -0.417(3) -0.9011(19)
H47A H 0.0504 -0.3976 -0.8753
P2A P 0.2482(6) 0.1238(6) -0.2745(4)
Co1_2 Co 0.7777(3) -0.7488(3) 0.4797(2)
Co1A_2 Co 0.2223(3) 0.7488(3) -0.4797(2)
O57_2 O 0.6945(15) 0.3472(16) 0.4133(11)
O57A_2 O 0.3055(15) -0.3472(16) -0.4133(11)
O60A_2 O 1.0956(15) -0.5569(16) -0.0700(11)
N3_2 N 1.041(2) -0.622(2) 0.0550(16)
N5_2 N 0.615(2) 0.044(2) -0.0428(16)
N5A_2 N 0.385(2) -0.044(2) 0.0428(16)
N23_2 N 0.895(2) -0.551(2) -0.0418(16)
N23A_2 N 1.105(2) -0.449(2) 0.0418(16)
Co2_2 Co 0.5000 0.0000 -1.0000
Co2_3 Co 0.5000 0.0000 1.0000
Co3_2 Co 0.0000 -0.5000 -1.0000
Co3_3 Co 0.0000 0.5000 0.0000
Co3_4 Co 1.0000 0.5000 1.0000
loop_
_geom_bond_atom_site_label_1
_geom_bond_atom_site_label_2
_geom_bond_site_symmetry_1
_geom_bond_site_symmetry_2
W1 O1 1_555 1_555
W2 O4 1_555 1_555
W3 O5 1_555 1_555
W4 O13 1_555 1_555
W5 O15 1_555 1_555
W6 O11 1_555 1_555
W7 O3 1_555 1_555
W8 O3 1_555 1_555
W9 O4 1_555 1_555
W10 O4 1_555 1_555
W11 O3 1_555 1_555
W12 O1 1_555 1_555
W13 O2 1_555 1_555
W14 O10 1_555 1_555
W15 O5 1_555 1_555
W16 O7 1_555 1_555
W17 O7 1_555 1_555
W18 O6 1_555 1_555
Co1 O25 1_555 1_555
O3 P1 1_555 1_555
O4 P2 1_555 1_555
O6 W12 1_555 1_555
O7 P2 1_555 1_555
O8 W8 1_555 1_555
O9 W9 1_555 1_555
O10 W7 1_555 1_555
O11 W13 1_555 1_555
O12 W6 1_555 1_555
O13 W15 1_555 1_555
O14 W7 1_555 1_555
O15 W2 1_555 1_555
O16 W5 1_555 1_555
O17 W3 1_555 1_555
O18 W14 1_555 1_555
O19 W8 1_555 1_555
O20 W3 1_555 1_555
O21 W1 1_555 1_555
O22 W4 1_555 1_555
O23 W1 1_555 1_555
O24 W16 1_555 1_555
O26 W16 1_555 1_555
O27 W10 1_555 1_555
O28 W11 1_555 1_555
O29 W2 1_555 1_555
O30 W9 1_555 1_555
O31 W1 1_555 1_555
O32 W4 1_555 1_555
O33 W18 1_555 1_555
O34 W2 1_555 1_555
O35 W2 1_555 1_555
O36 W10 1_555 1_555
O37 W7 1_555 1_555
O38 W3 1_555 1_555
O39 W3 1_555 1_555
O40 W14 1_555 1_555
O41 W16 1_555 1_555
O42 W1 1_555 1_555
O43 W13 1_555 1_555
O44 W4 1_555 1_555
O45 W6 1_555 1_555
O46 W6 1_555 1_555
O47 W6 1_555 1_555
O48 W4 1_555 1_555
O49 W4 1_555 1_555
O50 W9 1_555 1_555
O51 W7 1_555 1_555
O52 W3 1_555 1_555
O53 W13 1_555 1_555
O54 W12 1_555 1_555
O55 W1 1_555 1_555
O56 W6 1_555 1_555
O57 W11 1_555 1_555
O58 W17 1_555 1_555
O59 W5 1_555 1_555
O60 W15 1_555 1_555
O61 W10 1_555 1_555
O62 W8 1_555 1_555
O63 W2 1_555 1_555
P1 O44 1_555 1_555
N1 N9 1_555 1_555
N2 Co1 1_555 1_555
N3 C27 1_555 1_555
N4 Co1 1_555 1_555
N5 C2 1_555 1_555
N6 C5 1_555 1_555
N7 N10 1_555 1_555
N8 N22 1_555 1_555
N9 C25 1_555 1_555
N10 C4 1_555 1_555
N11 N13 1_555 1_555
N12 N21 1_555 1_555
N13 C14 1_555 1_555
N14 N18 1_555 1_555
N15 N19 1_555 1_555
N16 N17 1_555 1_555
N17 C19 1_555 1_555
N18 C20 1_555 1_555
N19 C15 1_555 1_555
N20 C13 1_555 1_555
N21 C23 1_555 1_555
N22 C3 1_555 1_555
N23 C15 1_555 1_555
N24 Co1 1_555 1_555
C1 H1 1_555 1_555
H2 C1 1_555 1_555
C2 N7 1_555 1_555
H3 C2 1_555 1_555
C3 H4 1_555 1_555
H5 C3 1_555 1_555
C4 N5 1_555 1_555
H6 C4 1_555 1_555
C5 N12 1_555 1_555
H7 C5 1_555 1_555
C6 N1 1_555 1_555
H8 C6 1_555 1_555
H9 C6 1_555 1_555
C7 C3 1_555 1_555
H10 C7 1_555 1_555
H11 C7 1_555 1_555
C8 C7 1_555 1_555
H12 C8 1_555 1_555
C9 N11 1_555 1_555
H13 C9 1_555 1_555
H14 C9 1_555 1_555
C10 N7 1_555 1_555
H15 C10 1_555 1_555
H16 C10 1_555 1_555
C11 C10 1_555 1_555
H17 C11 1_555 1_555
H18 C11 1_555 1_555
C12 C6 1_555 1_555
H19 C12 1_555 1_555
H20 C12 1_555 1_555
C13 N11 1_555 1_555
H21 C13 1_555 1_555
C14 N20 1_555 1_555
H22 C14 1_555 1_555
C15 H23 1_555 1_555
C16 C1 1_555 1_555
H24 C16 1_555 1_555
H25 C16 1_555 1_555
C17 N15 1_555 1_555
H26 C17 1_555 1_555
H27 C17 1_555 1_555
C18 N16 1_555 1_555
H28 C18 1_555 1_555
H29 C18 1_555 1_555
C19 N4 1_555 1_555
H30 C19 1_555 1_555
C20 H31 1_555 1_555
H32 C20 1_555 1_555
C21 C20 1_555 1_555
H33 C21 1_555 1_555
H34 C21 1_555 1_555
C22 C21 1_555 1_555
H35 C22 1_555 1_555
H36 C22 1_555 1_555
C23 C22 1_555 1_555
H37 C23 1_555 1_555
H38 C23 1_555 1_555
C24 N4 1_555 1_555
H39 C24 1_555 1_555
C25 N24 1_555 1_555
H40 C25 1_555 1_555
C26 N1 1_555 1_555
H41 C26 1_555 1_555
C27 N14 1_555 1_555
H42 C27 1_555 1_555
C28 N2 1_555 1_555
H43 C28 1_555 1_555
C29 N2 1_555 1_555
H44 C29 1_555 1_555
C30 N3 1_555 1_555
H45 C30 1_555 1_555
C31 N6 1_555 1_555
H46 C31 1_555 1_555
C32 N15 1_555 1_555
H47 C32 1_555 1_555
Co2 O59 1_555 1_555
P2 O17 1_555 1_555
Co3 O60 1_555 1_555
W1A O1A 1_555 1_555
W2A O4A 1_555 1_555
W3A O5A 1_555 1_555
W4A O13A 1_555 1_555
W5A O15A 1_555 1_555
W6A O11A 1_555 1_555
W7A O3A 1_555 1_555
W8A O3A 1_555 1_555
W9A O4A 1_555 1_555
W10A O4A 1_555 1_555
W11A O3A 1_555 1_555
W12A O1A 1_555 1_555
W13A O2A 1_555 1_555
W14A O10A 1_555 1_555
W15A O5A 1_555 1_555
W16A O7A 1_555 1_555
W17A O7A 1_555 1_555
W18A O6A 1_555 1_555
Co1A O25A 1_555 1_555
O3A P1A 1_555 1_555
O4A P2A 1_555 1_555
O6A W12A 1_555 1_555
O7A P2A 1_555 1_555
O8A W8A 1_555 1_555
O9A W9A 1_555 1_555
O10A W7A 1_555 1_555
O11A W13A 1_555 1_555
O12A W6A 1_555 1_555
O13A W15A 1_555 1_555
O14A W7A 1_555 1_555
O15A W2A 1_555 1_555
O16A W5A 1_555 1_555
O17A W3A 1_555 1_555
O18A W14A 1_555 1_555
O19A W8A 1_555 1_555
O20A W3A 1_555 1_555
O21A W1A 1_555 1_555
O22A W4A 1_555 1_555
O23A W1A 1_555 1_555
O24A W16A 1_555 1_555
O26A W16A 1_555 1_555
O27A W10A 1_555 1_555
O28A W11A 1_555 1_555
O29A W2A 1_555 1_555
O30A W9A 1_555 1_555
O31A W1A 1_555 1_555
O32A W4A 1_555 1_555
O33A W18A 1_555 1_555
O34A W2A 1_555 1_555
O35A W2A 1_555 1_555
O36A W10A 1_555 1_555
O37A W7A 1_555 1_555
O38A W3A 1_555 1_555
O39A W3A 1_555 1_555
O40A W14A 1_555 1_555
O41A W16A 1_555 1_555
O42A W1A 1_555 1_555
O43A W13A 1_555 1_555
O44A W4A 1_555 1_555
O45A W6A 1_555 1_555
O46A W6A 1_555 1_555
O47A W6A 1_555 1_555
O48A W4A 1_555 1_555
O49A W4A 1_555 1_555
O50A W9A 1_555 1_555
O51A W7A 1_555 1_555
O52A W3A 1_555 1_555
O53A W13A 1_555 1_555
O54A W12A 1_555 1_555
O55A W1A 1_555 1_555
O56A W6A 1_555 1_555
O57A W11A 1_555 1_555
O58A W17A 1_555 1_555
O59A Co2 1_555 1_555
O60A W15A 1_555 1_555
O61A W10A 1_555 1_555
O62A W8A 1_555 1_555
O63A W2A 1_555 1_555
P1A O44A 1_555 1_555
N1A N9A 1_555 1_555
N2A Co1A 1_555 1_555
N3A Co3 1_555 1_555
N4A Co1A 1_555 1_555
N5A C2A 1_555 1_555
N6A Co2 1_555 1_555
N7A N10A 1_555 1_555
N8A N22A 1_555 1_555
N9A C25A 1_555 1_555
N10A C4A 1_555 1_555
N11A N13A 1_555 1_555
N12A N21A 1_555 1_555
N13A C14A 1_555 1_555
N14A N18A 1_555 1_555
N15A N19A 1_555 1_555
N16A N17A 1_555 1_555
N17A C19A 1_555 1_555
N18A C20A 1_555 1_555
N19A C15A 1_555 1_555
N20A C13A 1_555 1_555
N21A C23A 1_555 1_555
N22A C3A 1_555 1_555
N23A C15A 1_555 1_555
N24A Co1A 1_555 1_555
C1A H1A 1_555 1_555
H2A C1A 1_555 1_555
C2A N7A 1_555 1_555
H3A C2A 1_555 1_555
C3A H4A 1_555 1_555
H5A C3A 1_555 1_555
C4A N5A 1_555 1_555
H6A C4A 1_555 1_555
C5A N6A 1_555 1_555
H7A C5A 1_555 1_555
C6A N1A 1_555 1_555
H8A C6A 1_555 1_555
H9A C6A 1_555 1_555
C7A C3A 1_555 1_555
H10A C7A 1_555 1_555
H11A C7A 1_555 1_555
C8A C7A 1_555 1_555
H12A C8A 1_555 1_555
C9A N11A 1_555 1_555
H13A C9A 1_555 1_555
H14A C9A 1_555 1_555
C10A N7A 1_555 1_555
H15A C10A 1_555 1_555
H16A C10A 1_555 1_555
C11A C10A 1_555 1_555
H17A C11A 1_555 1_555
H18A C11A 1_555 1_555
C12A C6A 1_555 1_555
H19A C12A 1_555 1_555
H20A C12A 1_555 1_555
C13A N11A 1_555 1_555
H21A C13A 1_555 1_555
C14A N20A 1_555 1_555
H22A C14A 1_555 1_555
C15A H23A 1_555 1_555
C16A C1A 1_555 1_555
H24A C16A 1_555 1_555
H25A C16A 1_555 1_555
C17A N15A 1_555 1_555
H26A C17A 1_555 1_555
H27A C17A 1_555 1_555
C18A N16A 1_555 1_555
H28A C18A 1_555 1_555
H29A C18A 1_555 1_555
C19A N4A 1_555 1_555
H30A C19A 1_555 1_555
C20A H31A 1_555 1_555
H32A C20A 1_555 1_555
C21A C20A 1_555 1_555
H33A C21A 1_555 1_555
H34A C21A 1_555 1_555
C22A C21A 1_555 1_555
H35A C22A 1_555 1_555
H36A C22A 1_555 1_555
C23A C22A 1_555 1_555
H37A C23A 1_555 1_555
H38A C23A 1_555 1_555
C24A N4A 1_555 1_555
H39A C24A 1_555 1_555
C25A N24A 1_555 1_555
H40A C25A 1_555 1_555
C26A N1A 1_555 1_555
H41A C26A 1_555 1_555
C27A N3A 1_555 1_555
H42A C27A 1_555 1_555
C28A N2A 1_555 1_555
H43A C28A 1_555 1_555
C29A N2A 1_555 1_555
H44A C29A 1_555 1_555
C30A N3A 1_555 1_555
H45A C30A 1_555 1_555
C31A N6A 1_555 1_555
H46A C31A 1_555 1_555
C32A N15A 1_555 1_555
H47A C32A 1_555 1_555
P2A O17A 1_555 1_555
Co1_2 O57 1_555 1_555
Co1A_2 O57A 1_555 1_555
O57_2 Co1 1_555 1_555
O57A_2 Co1A 1_555 1_555
O60A_2 Co3 1_555 1_555
N3_2 Co3 1_555 1_555
N5_2 Co2 1_555 1_555
N5A_2 Co2 1_555 1_555
N23_2 Co3 1_555 1_555
N23A_2 Co3 1_555 1_555
Co2_2 N5A 1_555 1_555
Co2_3 N5 1_555 1_555
Co3_2 N23A 1_555 1_555
Co3_3 N3 1_555 1_555
Co3_4 N23 1_555 1_555
W5 O17 1_555 1_555
W5 O22 1_555 1_555
W5 O39 1_555 1_555
W7 O32 1_555 1_555
W8 O12 1_555 1_555
W8 O14 1_555 1_555
W9 O29 1_555 1_555
W9 O38 1_555 1_555
W10 O9 1_555 1_555
W10 O63 1_555 1_555
W11 O8 1_555 1_555
W11 O31 1_555 1_555
W11 O51 1_555 1_555
W12 O28 1_555 1_555
W12 O45 1_555 1_555
W12 O46 1_555 1_555
W13 O50 1_555 1_555
W13 O52 1_555 1_555
W14 O23 1_555 1_555
W14 O48 1_555 1_555
W14 O55 1_555 1_555
W15 O19 1_555 1_555
W15 O44 1_555 1_555
W15 O47 1_555 1_555
W16 O21 1_555 1_555
W16 O36 1_555 1_555
W17 O16 1_555 1_555
W17 O18 1_555 1_555
W17 O26 1_555 1_555
W17 O35 1_555 1_555
W18 O24 1_555 1_555
W18 O27 1_555 1_555
W18 O43 1_555 1_555
W18 O53 1_555 1_555
Co1 O61 1_555 1_555
O43 P2 1_555 1_555
O45 P1 1_555 1_555
O55 P1 1_555 1_555
N6 Co2 1_555 1_555
N8 C29 1_555 1_555
N16 C24 1_555 1_555
N18 C30 1_555 1_555
N21 C31 1_555 1_555
N22 C28 1_555 1_555
N23 C32 1_555 1_555
N24 C26 1_555 1_555
C1 C17 1_555 1_555
C8 C9 1_555 1_555
C11 C12 1_555 1_555
C16 C18 1_555 1_555
W5A O17A 1_555 1_555
W5A O22A 1_555 1_555
W5A O39A 1_555 1_555
W5A O59A 1_555 1_555
W7A O32A 1_555 1_555
W8A O12A 1_555 1_555
W8A O14A 1_555 1_555
W9A O29A 1_555 1_555
W9A O38A 1_555 1_555
W10A O9A 1_555 1_555
W10A O63A 1_555 1_555
W11A O8A 1_555 1_555
W11A O31A 1_555 1_555
W11A O51A 1_555 1_555
W12A O28A 1_555 1_555
W12A O45A 1_555 1_555
W12A O46A 1_555 1_555
W13A O50A 1_555 1_555
W13A O52A 1_555 1_555
W14A O23A 1_555 1_555
W14A O48A 1_555 1_555
W14A O55A 1_555 1_555
W15A O19A 1_555 1_555
W15A O44A 1_555 1_555
W15A O47A 1_555 1_555
W16A O21A 1_555 1_555
W16A O36A 1_555 1_555
W17A O16A 1_555 1_555
W17A O18A 1_555 1_555
W17A O26A 1_555 1_555
W17A O35A 1_555 1_555
W18A O24A 1_555 1_555
W18A O27A 1_555 1_555
W18A O43A 1_555 1_555
W18A O53A 1_555 1_555
Co1A O61A 1_555 1_555
O43A P2A 1_555 1_555
O45A P1A 1_555 1_555
O55A P1A 1_555 1_555
O60A Co3_3 1_555 1_555
N8A C29A 1_555 1_555
N12A C5A 1_555 1_555
N14A C27A 1_555 1_555
N16A C24A 1_555 1_555
N18A C30A 1_555 1_555
N21A C31A 1_555 1_555
N22A C28A 1_555 1_555
N23A C32A 1_555 1_555
N24A C26A 1_555 1_555
C1A C17A 1_555 1_555
C8A C9A 1_555 1_555
C11A C12A 1_555 1_555
C16A C18A 1_555 1_555

#END
