
#######################################################################
#
#                 Cambridge Crystallographic Data Centre
#                                CCDC 
#
#######################################################################
#
# If this CIF has been generated from an entry in the Cambridge 
# Structural Database, then it will include bibliographic, chemical, 
# crystal, experimental, refinement or atomic coordinate data resulting 
# from the CCDC's data processing and validation procedures.
#
#######################################################################

data_KIDXUR
_symmetry_cell_setting           triclinic
_symmetry_space_group_name_H-M   'P -1'
_symmetry_Int_Tables_number      2
_space_group_name_Hall           '-P 1'
loop_
_symmetry_equiv_pos_site_id
_symmetry_equiv_pos_as_xyz
1 x,y,z
2 -x,-y,-z
_cell_length_a                   9.7012(19)
_cell_length_b                   12.442(3)
_cell_length_c                   17.218(3)
_cell_angle_alpha                89.83(3)
_cell_angle_beta                 75.01(3)
_cell_angle_gamma                73.33(3)
_cell_volume                     1917.46
loop_
_atom_site_label
_atom_site_type_symbol
_atom_site_fract_x
_atom_site_fract_y
_atom_site_fract_z
Zn1 Zn 0.0000 1.0000 0.0000
Zn2 Zn 0.35164(4) 0.19291(3) 0.18370(2)
Zn3 Zn -0.03917(4) 0.88684(3) 0.19338(2)
Na1 Na 0.23335(17) 0.44451(12) 0.27429(9)
O1 O 0.0860(3) 0.8229(2) 0.00636(16)
O2 O 0.0379(3) 0.7458(2) 0.12300(15)
O3 O 0.4198(3) 0.2352(2) 0.03099(16)
O4 O 0.2942(3) 0.3452(2) 0.14291(15)
O5 O 0.3900(3) 0.4595(3) -0.24863(17)
O6 O 0.4842(3) 0.6149(2) -0.22997(16)
O7 O 0.6286(3) 0.4241(2) -0.21699(16)
O8 O 0.2064(6) 0.0440(4) 0.6347(2)
O9 O 0.0125(4) 0.1732(3) 0.70833(17)
O10 O 0.2472(3) 0.2544(2) 0.29619(14)
O11 O 0.3362(3) 0.0827(2) 0.33450(16)
O12 O -0.2222(4) 0.5272(3) 0.45998(19)
O13 O -0.2812(3) 0.5172(3) 0.60332(18)
O14 O -0.3521(4) 0.3975(3) 0.5210(2)
O16 O -0.0203(4) 0.5279(3) 0.3087(2)
S1 S 0.48099(10) 0.50247(7) -0.20767(5)
S2 S -0.24484(11) 0.45716(9) 0.52622(5)
C1 C -0.3339(4) 1.0882(3) 0.0909(2)
H1 H -0.3532 1.1254 0.0449
C2 C -0.3611(4) 1.0329(3) 0.2076(2)
H2 H -0.4038 1.0225 0.2622
C3 C 0.1701(4) 1.0284(3) 0.1977(2)
H3 H 0.1800 1.0104 0.2500
C4 C 0.1884(4) 1.0991(3) 0.0864(2)
H4 H 0.2147 1.1425 0.0426
C5 C 0.3845(4) 0.5165(3) -0.1046(2)
C6 C 0.2852(4) 0.6198(3) -0.0702(2)
H5 H 0.2711 0.6830 -0.1016
C7 C 0.2069(4) 0.6297(3) 0.0104(2)
C8 C 0.2291(4) 0.5362(3) 0.0555(2)
H6 H 0.1766 0.5431 0.1109
C9 C 0.3285(4) 0.4318(3) 0.0198(2)
C10 C 0.4073(4) 0.4221(3) -0.0605(2)
H7 H 0.4758 0.3522 -0.0851
C11 C 0.1018(4) 0.7425(3) 0.0489(2)
C12 C 0.3507(4) 0.3300(3) 0.0665(2)
C13 C -0.0746(4) 0.3474(3) 0.5155(2)
C14 C -0.0503(4) 0.2891(3) 0.5813(2)
H8 H -0.1180 0.3129 0.6331
C15 C 0.0746(4) 0.1945(3) 0.5713(2)
C16 C 0.1731(4) 0.1597(3) 0.4955(2)
H9 H 0.2562 0.0941 0.4884
C17 C 0.1501(4) 0.2207(3) 0.4302(2)
C18 C 0.0253(4) 0.3161(3) 0.4408(2)
H10 H 0.0100 0.3589 0.3964
C19 C 0.1024(5) 0.1297(3) 0.6423(2)
C20 C 0.2533(4) 0.1817(3) 0.3483(2)
N1 N -0.4361(3) 1.1007(2) 0.16155(17)
N2 N -0.2027(3) 1.0183(2) 0.09174(17)
N3 N -0.2211(3) 0.9826(2) 0.16763(17)
N4 N 0.2305(3) 1.1009(2) 0.15449(18)
N5 N 0.0948(3) 0.9845(2) 0.15898(18)
N6 N 0.1067(3) 1.0308(2) 0.08649(17)
Zn2A Zn -0.35164(4) 1.80709(3) -0.18370(2)
Zn2_2 Zn -0.64836(4) 1.19291(3) 0.18370(2)
Zn2_3 Zn 0.35164(4) 1.19291(3) 0.18370(2)
Zn2A_2 Zn 0.64836(4) 0.80709(3) -0.18370(2)
Zn2A_3 Zn -0.35164(4) 0.80709(3) -0.18370(2)
Zn2A_4 Zn -0.35164(4) 0.80709(3) 0.81630(2)
Zn3A Zn 0.03917(4) 1.11316(3) -0.19338(2)
Zn3A_2 Zn 0.03917(4) 0.11316(3) 0.80662(2)
Na1A Na -0.23335(17) 1.55549(12) -0.27429(9)
Na1A_2 Na 0.76665(17) 0.55549(12) -0.27429(9)
Na1A_3 Na -0.23335(17) 0.55549(12) 0.72571(9)
Na1_2 Na -0.76665(17) 1.44451(12) 0.27429(9)
O1A O -0.0860(3) 1.1771(2) -0.00636(16)
O2A O -0.0379(3) 1.2542(2) -0.12300(15)
O3A O -0.4198(3) 1.7648(2) -0.03099(16)
O4A O -0.2942(3) 1.6548(2) -0.14291(15)
O5A O -0.3900(3) 1.5405(3) 0.24863(17)
O6A O -0.4842(3) 1.3851(2) 0.22997(16)
O6A_2 O 0.5158(3) 0.3851(2) 0.22997(16)
O6_2 O -0.5158(3) 1.6149(2) -0.22997(16)
O7A O -0.6286(3) 1.5759(2) 0.21699(16)
O7A_2 O 0.3714(3) 0.5759(2) 0.21699(16)
O7_2 O -0.3714(3) 1.4241(2) -0.21699(16)
O8A O -0.2064(6) 0.9560(4) 0.3653(2)
O9A O -0.0125(4) 0.8268(3) 0.29167(17)
O9_2 O 0.0125(4) 1.1732(3) -0.29167(17)
O10A O -0.2472(3) 0.7456(2) 0.70381(14)
O10A_2 O -0.2472(3) 1.7456(2) -0.29619(14)
O11A O -0.3362(3) 0.9173(2) 0.66550(16)
O12A O 0.2222(4) 0.4728(3) 0.54002(19)
O13A O 0.2812(3) 0.4828(3) 0.39668(18)
O13_2 O -0.2812(3) 1.5172(3) -0.39668(18)
O14A O 0.3521(4) 0.6025(3) 0.4790(2)
O16A O 0.0203(4) 1.4721(3) -0.3087(2)
S1A S -0.48099(10) 1.49753(7) 0.20767(5)
S2A S 0.24484(11) 0.54284(9) 0.47378(5)
C1A C 0.3339(4) 0.9118(3) -0.0909(2)
H1A H 0.3532 0.8746 -0.0449
C2A C 0.3611(4) 0.9671(3) -0.2076(2)
H2A H 0.4038 0.9775 -0.2622
C3A C -0.1701(4) 0.9716(3) -0.1977(2)
H3A H -0.1800 0.9896 -0.2500
C4A C -0.1884(4) 0.9009(3) -0.0864(2)
H4A H -0.2147 0.8575 -0.0426
C5A C -0.3845(4) 1.4835(3) 0.1046(2)
C6A C -0.2852(4) 1.3802(3) 0.0702(2)
H5A H -0.2711 1.3170 0.1016
C7A C -0.2069(4) 1.3703(3) -0.0104(2)
C8A C -0.2291(4) 1.4638(3) -0.0555(2)
H6A H -0.1766 1.4569 -0.1109
C9A C -0.3285(4) 1.5682(3) -0.0198(2)
C10A C -0.4073(4) 1.5779(3) 0.0605(2)
H7A H -0.4758 1.6478 0.0851
C11A C -0.1018(4) 1.2575(3) -0.0489(2)
C12A C -0.3507(4) 1.6700(3) -0.0665(2)
C13A C 0.0746(4) 0.6526(3) 0.4845(2)
C14A C 0.0503(4) 0.7109(3) 0.4187(2)
H8A H 0.1180 0.6871 0.3669
C15A C -0.0746(4) 0.8055(3) 0.4287(2)
C16A C -0.1731(4) 0.8403(3) 0.5045(2)
H9A H -0.2562 0.9059 0.5116
C17A C -0.1501(4) 0.7793(3) 0.5698(2)
C18A C -0.0253(4) 0.6839(3) 0.5592(2)
H10A H -0.0100 0.6411 0.6036
C19A C -0.1024(5) 0.8703(3) 0.3577(2)
C20A C -0.2533(4) 0.8183(3) 0.6517(2)
N1A N 0.4361(3) 0.8993(2) -0.16155(17)
N1_2 N 0.5639(3) 0.1007(2) 0.16155(17)
N1A_2 N -0.5639(3) 1.8993(2) -0.16155(17)
N2A N 0.2027(3) 0.9817(2) -0.09174(17)
N3A N 0.2211(3) 1.0174(2) -0.16763(17)
N4A N -0.2305(3) 0.8991(2) -0.15449(18)
N4_2 N 0.2305(3) 0.1009(2) 0.15449(18)
N4A_2 N -0.2305(3) 1.8991(2) -0.15449(18)
N5A N -0.0948(3) 1.0155(2) -0.15898(18)
N6A N -0.1067(3) 0.9692(2) -0.08649(17)
O15 O 0.8162(5) 0.6630(4) 0.2155(3)
O17 O 0.2062(12) 0.8693(8) 0.5074(6)
C21 C 0.5520(6) 0.2481(4) 0.3869(4)
H11 H 0.5422 0.2177 0.3369
H12 H 0.4527 0.2791 0.4245
H13 H 0.6129 0.1880 0.4114
C22 C 0.7785(6) 0.2969(6) 0.3163(3)
H14 H 0.8401 0.2403 0.3428
H15 H 0.8199 0.3604 0.3061
H16 H 0.7777 0.2634 0.2650
N7 N 0.6239(5) 0.3372(3) 0.3691(2)
H23 H 0.6254 0.3694 0.4168
H24 H 0.5677 0.3922 0.3445
C23 C 0.6178(9) 0.1891(5) 0.6873(5)
H17 H 0.5509 0.1631 0.7311
H18 H 0.6780 0.2252 0.7097
H19 H 0.6839 0.1247 0.6500
C24 C 0.4245(8) 0.2282(6) 0.6135(4)
H20 H 0.4799 0.1580 0.5798
H21 H 0.3749 0.2838 0.5814
H22 H 0.3494 0.2138 0.6592
N8 N 0.5279(6) 0.2713(4) 0.6433(3)
H25 H 0.4743 0.3349 0.6771
H26 H 0.5916 0.2917 0.6003
loop_
_geom_bond_atom_site_label_1
_geom_bond_atom_site_label_2
_geom_bond_site_symmetry_1
_geom_bond_site_symmetry_2
Zn1 O1 1_555 1_555
Zn2 O4 1_555 1_555
Zn3 O2 1_555 1_555
Na1 O4 1_555 1_555
O1 C11 1_555 1_555
O2 C11 1_555 1_555
O3 C12 1_555 1_555
O4 C12 1_555 1_555
O5 S1 1_555 1_555
O6 S1 1_555 1_555
O7 S1 1_555 1_555
O8 C19 1_555 1_555
O9 C19 1_555 1_555
O10 Zn2 1_555 1_555
O11 C20 1_555 1_555
O12 S2 1_555 1_555
O13 S2 1_555 1_555
O14 S2 1_555 1_555
O16 Na1 1_555 1_555
S1 C5 1_555 1_555
S2 C13 1_555 1_555
C1 H1 1_555 1_555
C2 H2 1_555 1_555
C3 H3 1_555 1_555
C4 H4 1_555 1_555
C5 C6 1_555 1_555
C6 H5 1_555 1_555
C7 C6 1_555 1_555
C8 C7 1_555 1_555
H6 C8 1_555 1_555
C9 C8 1_555 1_555
C10 C5 1_555 1_555
H7 C10 1_555 1_555
C11 C7 1_555 1_555
C12 C9 1_555 1_555
C13 C14 1_555 1_555
C14 H8 1_555 1_555
C15 C14 1_555 1_555
C16 C15 1_555 1_555
H9 C16 1_555 1_555
C17 C16 1_555 1_555
C18 C13 1_555 1_555
H10 C18 1_555 1_555
C19 C15 1_555 1_555
C20 O10 1_555 1_555
C21 H11 1_555 1_555
H12 C21 1_555 1_555
H13 C21 1_555 1_555
C22 H14 1_555 1_555
H15 C22 1_555 1_555
H16 C22 1_555 1_555
C23 H17 1_555 1_555
H18 C23 1_555 1_555
H19 C23 1_555 1_555
C24 H20 1_555 1_555
H21 C24 1_555 1_555
H22 C24 1_555 1_555
N1 C1 1_555 1_555
N2 Zn1 1_555 1_555
N3 Zn3 1_555 1_555
N4 C3 1_555 1_555
N5 Zn3 1_555 1_555
N6 Zn1 1_555 1_555
N7 C21 1_555 1_555
H23 N7 1_555 1_555
H24 N7 1_555 1_555
N8 C23 1_555 1_555
H25 N8 1_555 1_555
H26 N8 1_555 1_555
Zn2A O4A 1_555 1_555
Zn2_2 N1 1_555 1_555
Zn2_3 N4 1_555 1_555
Zn2A_2 N1A 1_555 1_555
Zn2A_3 N4A 1_555 1_555
Zn2A_4 O10A 1_555 1_555
Zn3A O2A 1_555 1_555
Zn3A_2 O9 1_555 1_555
Na1A O4A 1_555 1_555
Na1A_2 O6 1_555 1_555
Na1A_3 O13 1_555 1_555
Na1_2 O6A 1_555 1_555
O1A Zn1 1_555 1_555
O2A C11A 1_555 1_555
O3A C12A 1_555 1_555
O4A C12A 1_555 1_555
O5A S1A 1_555 1_555
O6A S1A 1_555 1_555
O6A_2 Na1 1_555 1_555
O6_2 Na1A 1_555 1_555
O7A Na1_2 1_555 1_555
O7A_2 Na1 1_555 1_555
O7_2 Na1A 1_555 1_555
O8A C19A 1_555 1_555
O9A Zn3 1_555 1_555
O9_2 Zn3A 1_555 1_555
O10A Na1A_3 1_555 1_555
O10A_2 Zn2A 1_555 1_555
O11A C20A 1_555 1_555
O12A S2A 1_555 1_555
O13A Na1 1_555 1_555
O13_2 Na1A 1_555 1_555
O14A S2A 1_555 1_555
O16A Na1A 1_555 1_555
S1A O7A 1_555 1_555
S2A O13A 1_555 1_555
C1A H1A 1_555 1_555
C2A H2A 1_555 1_555
C3A H3A 1_555 1_555
C4A H4A 1_555 1_555
C5A S1A 1_555 1_555
C6A C5A 1_555 1_555
H5A C6A 1_555 1_555
C7A C6A 1_555 1_555
C8A C7A 1_555 1_555
H6A C8A 1_555 1_555
C9A C8A 1_555 1_555
C10A C5A 1_555 1_555
H7A C10A 1_555 1_555
C11A O1A 1_555 1_555
C12A C9A 1_555 1_555
C13A S2A 1_555 1_555
C14A C13A 1_555 1_555
H8A C14A 1_555 1_555
C15A C14A 1_555 1_555
C16A C15A 1_555 1_555
H9A C16A 1_555 1_555
C17A C16A 1_555 1_555
C18A C13A 1_555 1_555
H10A C18A 1_555 1_555
C19A O9A 1_555 1_555
C20A O10A 1_555 1_555
N1A C1A 1_555 1_555
N1_2 Zn2 1_555 1_555
N1A_2 Zn2A 1_555 1_555
N2A Zn1 1_555 1_555
N3A Zn3A 1_555 1_555
N4A C3A 1_555 1_555
N4_2 Zn2 1_555 1_555
N4A_2 Zn2A 1_555 1_555
N5A Zn3A 1_555 1_555
N6A Zn1 1_555 1_555
Na1 O10 1_555 1_555
O7 Na1A_2 1_555 1_555
C1 N2 1_555 1_555
C2 N1 1_555 1_555
C2 N3 1_555 1_555
C3 N5 1_555 1_555
C4 N4 1_555 1_555
C4 N6 1_555 1_555
C9 C10 1_555 1_555
C17 C18 1_555 1_555
C17 C20 1_555 1_555
C22 N7 1_555 1_555
C24 N8 1_555 1_555
N2 N3 1_555 1_555
N5 N6 1_555 1_555
Na1A O10A_2 1_555 1_555
C1A N2A 1_555 1_555
C2A N1A 1_555 1_555
C2A N3A 1_555 1_555
C3A N5A 1_555 1_555
C4A N4A 1_555 1_555
C4A N6A 1_555 1_555
C7A C11A 1_555 1_555
C9A C10A 1_555 1_555
C15A C19A 1_555 1_555
C17A C18A 1_555 1_555
C17A C20A 1_555 1_555
N2A N3A 1_555 1_555
N5A N6A 1_555 1_555

#END
