
#######################################################################
#
#                 Cambridge Crystallographic Data Centre
#                                CCDC 
#
#######################################################################
#
# If this CIF has been generated from an entry in the Cambridge 
# Structural Database, then it will include bibliographic, chemical, 
# crystal, experimental, refinement or atomic coordinate data resulting 
# from the CCDC's data processing and validation procedures.
#
#######################################################################

data_KINFAQ
_symmetry_cell_setting           monoclinic
_symmetry_space_group_name_H-M   'C 2/c'
_symmetry_Int_Tables_number      15
_space_group_name_Hall           '-C 2yn'
loop_
_symmetry_equiv_pos_site_id
_symmetry_equiv_pos_as_xyz
1 x,y,z
2 -x,y,1/2-z
3 1/2+x,1/2+y,z
4 1/2-x,1/2+y,1/2-z
5 -x,-y,-z
6 x,-y,1/2+z
7 1/2-x,1/2-y,-z
8 1/2+x,1/2-y,1/2+z
_cell_length_a                   17.488(14)
_cell_length_b                   13.252(11)
_cell_length_c                   18.842(16)
_cell_angle_alpha                90
_cell_angle_beta                 111.044(13)
_cell_angle_gamma                90
_cell_volume                     4075.42
loop_
_atom_site_label
_atom_site_type_symbol
_atom_site_fract_x
_atom_site_fract_y
_atom_site_fract_z
Tm1 Tm 0.50329(6) 0.94174(7) 0.60537(5)
O1 O 0.4103(8) 0.9408(14) 0.6631(10)
O2 O 0.3995(9) 0.9314(12) 0.7757(9)
O3 O 0.0783(11) 0.6265(14) 0.5032(9)
O4 O 0.0875(12) 0.5798(13) 0.6172(12)
O5 O 0.4162(11) 1.0756(13) 0.5535(11)
O6 O 0.4013(10) 1.1243(15) 0.4388(11)
O7 O 0.5027(10) 0.7691(12) 0.6392(12)
H1 H 0.4759 0.7581 0.6724
H2 H 0.4770 0.7289 0.5978
C1 C 0.3793(14) 0.9147(15) 0.7097(13)
C2 C 0.3006(12) 0.8478(18) 0.6711(12)
C3 C 0.2663(15) 0.836(2) 0.5959(14)
H3 H 0.2869 0.8717 0.5645
C4 C 0.2043(15) 0.7737(19) 0.5650(14)
H4 H 0.1820 0.7697 0.5123
C5 C 0.1695(15) 0.7131(19) 0.6075(13)
C6 C 0.1076(16) 0.6349(19) 0.572(2)
C7 C 0.2096(15) 0.7204(19) 0.6896(13)
H5 H 0.1922 0.6815 0.7220
C8 C 0.2774(17) 0.790(2) 0.7194(15)
H6 H 0.3051 0.7951 0.7716
C9 C 0.3836(14) 1.1245(19) 0.4945(15)
C10 C 0.3152(15) 1.1915(19) 0.4976(14)
C11 C 0.2813(18) 1.263(2) 0.4427(16)
H7 H 0.3030 1.2750 0.4051
C12 C 0.2879(14) 1.180(2) 0.5557(14)
H8 H 0.3143 1.1359 0.5950
O5F O 0.0838(11) 1.4244(13) 0.4465(11)
O6F O 0.0987(10) 1.3757(15) 0.5612(11)
C9F C 0.1164(14) 1.3755(19) 0.5055(15)
C10F C 0.1848(15) 1.3085(19) 0.5024(14)
C11F C 0.2187(18) 1.237(2) 0.5573(16)
H7F H 0.1970 1.2250 0.5949
C12F C 0.2121(14) 1.320(2) 0.4443(14)
H8F H 0.1857 1.3641 0.4050
Tm1A Tm 0.49671(6) 0.94174(7) 0.89463(5)
O1A O 0.5897(8) 0.9408(14) 0.8369(10)
O2A O 0.6005(9) 0.9314(12) 0.7243(9)
O3A O 0.9217(11) 0.6265(14) 0.9968(9)
O4A O 0.9125(12) 0.5798(13) 0.8828(12)
O7A O 0.4973(10) 0.7691(12) 0.8608(12)
H1A H 0.5241 0.7581 0.8276
H2A H 0.5230 0.7289 0.9022
C1A C 0.6207(14) 0.9147(15) 0.7903(13)
C2A C 0.6994(12) 0.8478(18) 0.8289(12)
C3A C 0.7337(15) 0.836(2) 0.9041(14)
H3A H 0.7131 0.8717 0.9355
C4A C 0.7957(15) 0.7737(19) 0.9350(14)
H4A H 0.8180 0.7697 0.9877
C5A C 0.8305(15) 0.7131(19) 0.8925(13)
C6A C 0.8924(16) 0.6349(19) 0.928(2)
C7A C 0.7904(15) 0.7204(19) 0.8104(13)
H5A H 0.8078 0.6815 0.7780
C8A C 0.7226(17) 0.790(2) 0.7806(15)
H6A H 0.6949 0.7951 0.7284
Tm1B Tm 0.00329(6) 0.44174(7) 0.60537(5)
Tm1B_2 Tm 0.00329(6) 1.44174(7) 0.60537(5)
Tm1C Tm 0.99671(6) 0.44174(7) 0.89463(5)
Tm1D Tm 0.49671(6) 1.05826(7) 0.39463(5)
Tm1F Tm -0.00329(6) 0.55826(7) 0.39463(5)
Tm1F_2 Tm -0.00329(6) 1.55826(7) 0.39463(5)
Tm1G Tm 1.00329(6) 0.55826(7) 1.10537(5)
O3F O 0.4217(11) 0.8735(14) 0.4968(9)
O3G O 0.5783(11) 0.8735(14) 1.0032(9)
O4B O 0.5875(12) 1.0798(13) 0.6172(12)
O4C O 0.4125(12) 1.0798(13) 0.8828(12)
O5A O 0.5838(11) 1.0756(13) 0.9465(11)
O6D O 0.5987(10) 0.8757(15) 0.5612(11)
O6E O 0.4013(10) 0.8757(15) 0.9388(11)
loop_
_geom_bond_atom_site_label_1
_geom_bond_atom_site_label_2
_geom_bond_site_symmetry_1
_geom_bond_site_symmetry_2
Tm1 O1 1_555 1_555
O1 C1 1_555 1_555
O2 C1 1_555 1_555
O3 C6 1_555 1_555
O4 C6 1_555 1_555
O5 Tm1 1_555 1_555
O6 C9 1_555 1_555
O7 Tm1 1_555 1_555
H1 O7 1_555 1_555
H2 O7 1_555 1_555
C1 C2 1_555 1_555
C2 C3 1_555 1_555
C3 H3 1_555 1_555
C4 C3 1_555 1_555
H4 C4 1_555 1_555
C5 C4 1_555 1_555
C6 C5 1_555 1_555
C7 C5 1_555 1_555
H5 C7 1_555 1_555
C8 C2 1_555 1_555
H6 C8 1_555 1_555
C9 O5 1_555 1_555
C10 C9 1_555 1_555
C11 C10 1_555 1_555
H7 C11 1_555 1_555
C12 C10 1_555 1_555
H8 C12 1_555 1_555
O5F C9F 1_555 1_555
O6F C9F 1_555 1_555
C9F C10F 1_555 1_555
C10F C11F 1_555 1_555
C11F C12 1_555 1_555
H7F C11F 1_555 1_555
C12F C11 1_555 1_555
H8F C12F 1_555 1_555
Tm1A O2 1_555 1_555
O1A Tm1A 1_555 1_555
O2A Tm1 1_555 1_555
O3A C6A 1_555 1_555
O4A C6A 1_555 1_555
O7A Tm1A 1_555 1_555
H1A O7A 1_555 1_555
H2A O7A 1_555 1_555
C1A O1A 1_555 1_555
C2A C1A 1_555 1_555
C3A C2A 1_555 1_555
H3A C3A 1_555 1_555
C4A C3A 1_555 1_555
H4A C4A 1_555 1_555
C5A C4A 1_555 1_555
C6A C5A 1_555 1_555
C7A C5A 1_555 1_555
H5A C7A 1_555 1_555
C8A C2A 1_555 1_555
H6A C8A 1_555 1_555
Tm1B O4 1_555 1_555
Tm1B_2 O6F 1_555 1_555
Tm1C O4A 1_555 1_555
Tm1D O6 1_555 1_555
Tm1F O3 1_555 1_555
Tm1F_2 O5F 1_555 1_555
Tm1G O3A 1_555 1_555
O3F Tm1 1_555 1_555
O3G Tm1A 1_555 1_555
O4B Tm1 1_555 1_555
O4C Tm1A 1_555 1_555
O5A Tm1A 1_555 1_555
O6D Tm1 1_555 1_555
O6E Tm1A 1_555 1_555
C7 C8 1_555 1_555
C10F C12F 1_555 1_555
O2A C1A 1_555 1_555
C7A C8A 1_555 1_555

#END
