
#######################################################################
#
#                 Cambridge Crystallographic Data Centre
#                                CCDC 
#
#######################################################################
#
# If this CIF has been generated from an entry in the Cambridge 
# Structural Database, then it will include bibliographic, chemical, 
# crystal, experimental, refinement or atomic coordinate data resulting 
# from the CCDC's data processing and validation procedures.
#
#######################################################################

data_KINHAS
_symmetry_cell_setting           monoclinic
_symmetry_space_group_name_H-M   'P 2/c'
_symmetry_Int_Tables_number      13
_space_group_name_Hall           '-P 2yc'
loop_
_symmetry_equiv_pos_site_id
_symmetry_equiv_pos_as_xyz
1 x,y,z
2 -x,y,1/2-z
3 -x,-y,-z
4 x,-y,1/2+z
_cell_length_a                   12.9879(16)
_cell_length_b                   6.2776(8)
_cell_length_c                   19.1040(17)
_cell_angle_alpha                90
_cell_angle_beta                 114.325(6)
_cell_angle_gamma                90
_cell_volume                     1419.33
loop_
_atom_site_label
_atom_site_type_symbol
_atom_site_fract_x
_atom_site_fract_y
_atom_site_fract_z
O1 O 0.8772(3) 0.5687(5) 0.84283(18)
Zn1 Zn 1.0000 0.61594(7) 0.7500
C1 C 0.7821(3) 0.0726(5) 0.67506(18)
H1 H 0.7671 -0.0415 0.7005
C2 C 0.7575(2) 0.2595(5) 0.56105(16)
H2 H 0.7258 0.2742 0.5079
S1 S 0.60216(6) -0.27646(12) 0.58944(4)
N1 N 0.8788(2) 0.4020(4) 0.68368(14)
O2 O 0.9931(2) 0.8033(4) 0.82955(12)
C3 C 0.5327(2) -0.4046(5) 0.50219(18)
C4 C 0.6562(2) -0.0848(5) 0.54802(17)
C5 C 0.9445(3) 0.8450(5) 0.93640(16)
H3 H 0.8874 0.7865 0.9523
C6 C 0.8303(2) 0.4122(5) 0.60655(17)
H4 H 0.8467 0.5285 0.5828
C7 C 1.0619(3) 0.8031(5) 1.00118(17)
H5 H 1.0725 0.6510 1.0103
H6 H 1.1197 0.8539 0.9855
C8 C 1.0751(3) 0.9145(5) 1.07532(17)
H7 H 1.1506 0.8888 1.1144
H8 H 1.0215 0.8550 1.0933
C9 C 0.6200(3) -0.1207(5) 0.47114(18)
H9 H 0.6392 -0.0342 0.4388
C10 C 0.7314(2) 0.0824(5) 0.59477(17)
C11 C 0.9336(3) 0.7318(5) 0.86334(17)
C12 C 0.5505(3) -0.3021(5) 0.44553(18)
H10 H 0.5198 -0.3473 0.3947
C13 C 0.8541(3) 0.2314(5) 0.71614(19)
H11 H 0.8876 0.2202 0.7694
O1B O 1.1228(3) 1.4313(5) 1.15717(18)
O2B O 1.0069(2) 1.1967(4) 1.17045(12)
C5B C 1.0555(3) 1.1550(5) 1.06360(16)
H3B H 1.1126 1.2135 1.0477
C7B C 0.9381(3) 1.1969(5) 0.99882(17)
H5B H 0.9275 1.3490 0.9897
H6B H 0.8803 1.1461 1.0145
C8B C 0.9249(3) 1.0855(5) 0.92468(17)
H7B H 0.8494 1.1112 0.8856
H8B H 0.9785 1.1450 0.9067
C11B C 1.0664(3) 1.2682(5) 1.13666(17)
C1B C 0.2179(3) -1.0726(5) 0.32494(18)
H1B H 0.2329 -0.9585 0.2995
C2B C 0.2425(2) -1.2595(5) 0.43895(16)
H2B H 0.2742 -1.2742 0.4921
S1B S 0.39784(6) -0.72354(12) 0.41056(4)
N1B N 0.1212(2) -1.4020(4) 0.31632(14)
C3B C 0.4673(2) -0.5954(5) 0.49781(18)
C4B C 0.3438(2) -0.9152(5) 0.45198(17)
C6B C 0.1697(2) -1.4122(5) 0.39345(17)
H4B H 0.1533 -1.5285 0.4172
C9B C 0.3800(3) -0.8793(5) 0.52886(18)
H9B H 0.3608 -0.9658 0.5612
C10B C 0.2686(2) -1.0824(5) 0.40523(17)
C12B C 0.4495(3) -0.6979(5) 0.55447(18)
H10B H 0.4802 -0.6527 0.6053
C13B C 0.1459(3) -1.2314(5) 0.28386(19)
H11B H 0.1124 -1.2202 0.2306
Zn1B Zn 0.0000 -1.61594(7) 0.2500
Zn1B_2 Zn 1.0000 1.38406(7) 1.2500
N1A N 1.1212(2) 0.4020(4) 0.81632(14)
O2A O 1.0069(2) 0.8033(4) 0.67045(12)
loop_
_geom_bond_atom_site_label_1
_geom_bond_atom_site_label_2
_geom_bond_site_symmetry_1
_geom_bond_site_symmetry_2
O1 C11 1_555 1_555
Zn1 N1 1_555 1_555
C1 H1 1_555 1_555
C2 H2 1_555 1_555
S1 C3 1_555 1_555
N1 C6 1_555 1_555
O2 Zn1 1_555 1_555
C3 C12 1_555 1_555
C4 S1 1_555 1_555
C5 H3 1_555 1_555
C6 C2 1_555 1_555
H4 C6 1_555 1_555
C7 C5 1_555 1_555
H5 C7 1_555 1_555
H6 C7 1_555 1_555
C8 C7 1_555 1_555
H7 C8 1_555 1_555
H8 C8 1_555 1_555
C9 C4 1_555 1_555
H9 C9 1_555 1_555
C10 C1 1_555 1_555
C11 O2 1_555 1_555
C12 C9 1_555 1_555
H10 C12 1_555 1_555
C13 C1 1_555 1_555
H11 C13 1_555 1_555
O1B C11B 1_555 1_555
O2B C11B 1_555 1_555
C5B C8 1_555 1_555
H3B C5B 1_555 1_555
C7B C5B 1_555 1_555
H5B C7B 1_555 1_555
H6B C7B 1_555 1_555
C8B C5 1_555 1_555
H7B C8B 1_555 1_555
H8B C8B 1_555 1_555
C11B C5B 1_555 1_555
C1B H1B 1_555 1_555
C2B H2B 1_555 1_555
S1B C3B 1_555 1_555
N1B C6B 1_555 1_555
C3B C3 1_555 1_555
C4B S1B 1_555 1_555
C6B C2B 1_555 1_555
H4B C6B 1_555 1_555
C9B C4B 1_555 1_555
H9B C9B 1_555 1_555
C10B C1B 1_555 1_555
C12B C3B 1_555 1_555
H10B C12B 1_555 1_555
C13B C1B 1_555 1_555
H11B C13B 1_555 1_555
Zn1B N1B 1_555 1_555
Zn1B_2 O2B 1_555 1_555
N1A Zn1 1_555 1_555
O2A Zn1 1_555 1_555
C2 C10 1_555 1_555
N1 C13 1_555 1_555
C4 C10 1_555 1_555
C5 C11 1_555 1_555
C7B C8B 1_555 1_555
C2B C10B 1_555 1_555
N1B C13B 1_555 1_555
C4B C10B 1_555 1_555
C9B C12B 1_555 1_555

#END
