
#######################################################################
#
#                 Cambridge Crystallographic Data Centre
#                                CCDC 
#
#######################################################################
#
# If this CIF has been generated from an entry in the Cambridge 
# Structural Database, then it will include bibliographic, chemical, 
# crystal, experimental, refinement or atomic coordinate data resulting 
# from the CCDC's data processing and validation procedures.
#
#######################################################################

data_KIPKAX
_symmetry_cell_setting           triclinic
_symmetry_space_group_name_H-M   'P -1'
_symmetry_Int_Tables_number      2
_space_group_name_Hall           '-P 1'
loop_
_symmetry_equiv_pos_site_id
_symmetry_equiv_pos_as_xyz
1 x,y,z
2 -x,-y,-z
_cell_length_a                   8.0659(4)
_cell_length_b                   21.2621(14)
_cell_length_c                   22.7182(16)
_cell_angle_alpha                82.919(3)
_cell_angle_beta                 82.369(4)
_cell_angle_gamma                80.025(4)
_cell_volume                     3783.13
loop_
_atom_site_label
_atom_site_type_symbol
_atom_site_fract_x
_atom_site_fract_y
_atom_site_fract_z
Yb1 Yb 0.19759(3) 0.577091(14) 0.715586(13)
Yb2 Yb 0.61286(3) 0.529181(13) 0.566948(12)
Yb3 Yb 0.53724(4) 0.753074(14) 0.903905(13)
Yb4 Yb 0.76047(4) 0.907206(14) 0.962900(13)
O1 O 0.2067(6) 0.4683(2) 0.7060(2)
O2 O 0.4319(5) 0.4999(2) 0.65634(19)
O3 O 0.4377(5) 0.4629(2) 0.54220(19)
O4 O 0.3075(5) 0.3930(2) 0.51097(19)
O5 O 0.3511(6) 0.1907(2) 1.02381(19)
O6 O 0.5210(6) 0.2598(3) 0.9898(2)
O7 O 0.0579(6) 0.1672(2) 0.9891(2)
O8 O -0.0521(6) 0.2710(2) 0.9786(2)
O9 O 0.3859(5) 0.6449(2) 0.68565(19)
O10 O 0.6204(5) 0.6028(2) 0.6300(2)
O11 O 0.5014(6) 0.7308(2) 0.8140(2)
O12 O 0.6267(5) 0.6398(2) 0.7756(2)
O13 O 1.1429(5) 0.6072(2) 0.62142(19)
O14 O 1.3727(5) 0.6026(2) 0.55347(19)
O15 O 1.2531(5) 0.5775(2) 0.39764(19)
O16 O 1.1761(5) 0.5384(2) 0.4900(2)
O17 O 0.4426(6) 0.8585(2) 0.8782(2)
O18 O 0.4931(6) 0.9325(2) 0.9333(2)
O19 O 0.3898(5) 1.0781(2) 0.9409(2)
O20 O 0.1639(6) 1.0309(2) 0.9659(2)
O21 O -0.2381(6) 0.7858(2) 0.8431(2)
O22 O -0.1618(6) 0.8706(2) 0.8752(2)
O23 O 0.0700(6) 0.6683(2) 0.7526(2)
O24 O 0.0821(6) 0.7013(2) 0.8416(2)
O25 O 0.4147(6) 0.5509(2) 0.7778(2)
H1 H 0.4840 0.5847 0.7803
H2 H 0.4952 0.5231 0.7708
O26 O 0.0987(6) 0.5311(2) 0.8127(2)
H3 H -0.0139 0.5455 0.8146
H4 H 0.1187 0.5611 0.8350
O27 O -0.0879(6) 0.5703(2) 0.7151(2)
H5 H -0.1687 0.5925 0.7302
H6 H -0.1173 0.5332 0.7093
O28 O 0.8968(5) 0.5375(2) 0.5840(2)
H7 H 0.8925 0.5715 0.6073
H8 H 0.9492 0.5326 0.5527
O29 O 0.2487(6) 0.7590(3) 0.9150(2)
H9 H 0.1816 0.7473 0.9475
H10 H 0.2191 0.7397 0.8889
O30 O 0.7869(6) 0.6860(2) 0.9217(2)
H11 H 0.8874 0.7012 0.9114
H12 H 0.8069 0.6559 0.9488
O31 O 0.4903(7) 0.6459(3) 0.9291(3)
H13 H 0.5678 0.6114 0.9410
H14 H 0.4125 0.6246 0.9295
O32 O 1.0307(5) 0.9342(2) 0.9305(2)
O33 O 0.7195(6) 1.0125(2) 0.9193(2)
H15 H 0.6157 1.0144 0.9150
H16 H 0.7255 1.0527 0.9203
F1 F 0.8392(5) 0.2525(3) 0.7134(2)
F2 F 0.8237(5) 0.2005(2) 0.80116(19)
F3 F 0.7274(5) 0.3016(2) 0.78963(19)
F4 F 0.7137(6) 0.1444(2) 0.70323(19)
F5 F 0.4442(6) 0.1477(2) 0.72613(19)
F6 F 0.6129(6) 0.1216(2) 0.7940(2)
F7 F 0.5681(5) 0.80303(19) 0.48921(18)
F8 F 0.5376(5) 0.8901(2) 0.53100(19)
F9 F 0.6980(5) 0.8797(2) 0.44788(18)
F10 F 0.9924(5) 0.8867(2) 0.48273(18)
F11 F 0.8196(5) 0.92758(19) 0.55319(19)
F12 F 1.0277(5) 0.85423(19) 0.57406(18)
F13 F 0.3768(5) 1.03591(19) 0.64811(18)
F14 F 0.4631(5) 0.93571(19) 0.66758(18)
F15 F 0.3031(5) 0.9682(2) 0.59774(18)
F16 F 0.0447(5) 1.07372(19) 0.65029(18)
F17 F -0.1148(5) 1.02186(19) 0.71639(19)
F18 F -0.0314(5) 0.9875(2) 0.6305(2)
C1 C 0.5635(8) 0.2328(3) 0.7559(3)
C2 C 0.5034(8) 0.2774(3) 0.7027(3)
C3 C 0.4467(8) 0.3422(3) 0.7095(3)
H17 H 0.4359 0.3558 0.7474
C4 C 0.4056(8) 0.3874(3) 0.6617(3)
C5 C 0.4126(8) 0.3666(3) 0.6049(3)
C6 C 0.4621(9) 0.3015(3) 0.5982(3)
H18 H 0.4611 0.2871 0.5612
C7 C 0.5124(9) 0.2580(3) 0.6452(3)
H19 H 0.5527 0.2154 0.6388
C8 C 0.3456(8) 0.4555(3) 0.6742(3)
C9 C 0.3797(7) 0.4103(3) 0.5506(3)
C10 C 0.4341(8) 0.2392(3) 0.8123(3)
C11 C 0.4837(8) 0.2319(3) 0.8699(3)
H20 H 0.5976 0.2287 0.8749
C12 C 0.3620(8) 0.2295(3) 0.9200(3)
C13 C 0.1908(8) 0.2337(3) 0.9132(3)
C14 C 0.1431(8) 0.2457(3) 0.8556(3)
H21 H 0.0289 0.2528 0.8501
C15 C 0.2655(8) 0.2472(3) 0.8060(3)
H22 H 0.2314 0.2539 0.7679
C16 C 0.4156(8) 0.2254(3) 0.9802(3)
C17 C 0.0569(8) 0.2245(3) 0.9646(3)
C18 C 0.7382(9) 0.2475(4) 0.7647(3)
C19 C 0.5826(10) 0.1607(4) 0.7449(3)
C20 C 0.8024(8) 0.8199(3) 0.5365(3)
C21 C 0.7267(8) 0.7945(3) 0.5987(3)
C22 C 0.6629(7) 0.7370(3) 0.6034(3)
H23 H 0.6598 0.7179 0.5689
C23 C 0.6044(7) 0.7078(3) 0.6578(3)
C24 C 0.6073(7) 0.7367(3) 0.7100(3)
C25 C 0.6642(8) 0.7946(3) 0.7055(3)
H24 H 0.6620 0.8147 0.7398
C26 C 0.7247(8) 0.8233(3) 0.6507(3)
H25 H 0.7644 0.8622 0.6485
C27 C 0.5316(8) 0.6464(3) 0.6585(3)
C28 C 0.5748(8) 0.6992(3) 0.7703(3)
C29 C 0.9181(8) 0.7636(3) 0.5080(3)
C30 C 1.0189(8) 0.7204(3) 0.5456(3)
H26 H 1.0224 0.7296 0.5844
C31 C 1.1135(8) 0.6643(3) 0.5264(3)
C32 C 1.1101(8) 0.6498(3) 0.4683(3)
C33 C 1.0187(8) 0.6944(3) 0.4290(3)
H27 H 1.0206 0.6862 0.3896
C34 C 0.9247(9) 0.7513(3) 0.4485(3)
H28 H 0.8664 0.7810 0.4218
C35 C 1.2197(8) 0.6211(3) 0.5693(3)
C36 C 1.1835(8) 0.5856(3) 0.4502(3)
C37 C 0.6500(8) 0.8481(4) 0.5005(3)
C38 C 0.9097(9) 0.8731(3) 0.5364(3)
C39 C 0.1746(8) 0.9727(3) 0.6991(3)
C40 C 0.2154(8) 0.9961(3) 0.7564(3)
C41 C 0.3114(8) 0.9518(3) 0.7938(3)
H29 H 0.3533 0.9110 0.7823
C42 C 0.3456(8) 0.9674(3) 0.8478(3)
C43 C 0.2850(9) 1.0283(3) 0.8656(3)
C44 C 0.1928(9) 1.0735(3) 0.8264(3)
H30 H 0.1526 1.1147 0.8372
C45 C 0.1614(9) 1.0578(3) 0.7726(3)
H31 H 0.1034 1.0887 0.7468
C46 C 0.4344(7) 0.9152(3) 0.8890(3)
C47 C 0.2840(8) 1.0462(3) 0.9271(3)
C48 C 0.1355(8) 0.9033(3) 0.7144(3)
C49 C 0.0185(8) 0.8934(3) 0.7647(3)
H32 H -0.0386 0.9285 0.7838
C50 C -0.0138(8) 0.8328(3) 0.7864(3)
C51 C 0.0725(8) 0.7797(3) 0.7568(3)
C52 C 0.1756(8) 0.7901(3) 0.7053(3)
H33 H 0.2246 0.7554 0.6842
C53 C 0.2095(8) 0.8510(3) 0.6835(3)
H34 H 0.2814 0.8568 0.6484
C54 C -0.1468(8) 0.8284(3) 0.8397(3)
C55 C 0.0713(8) 0.7102(3) 0.7869(3)
C56 C 0.3302(9) 0.9783(3) 0.6521(3)
C57 C 0.0159(9) 1.0143(3) 0.6739(3)
Yb1_2 Yb 1.19759(3) 0.577091(14) 0.715586(13)
Yb2_2 Yb 1.61286(3) 0.529181(13) 0.566948(12)
Yb2A Yb 0.38714(3) 0.470819(13) 0.433052(12)
Yb2A_2 Yb 1.38714(3) 0.470819(13) 0.433052(12)
Yb3_2 Yb -0.46276(4) 0.753074(14) 0.903905(13)
Yb3A Yb 0.46276(4) 0.246926(14) 1.096095(13)
Yb4_2 Yb -0.23953(4) 0.907206(14) 0.962900(13)
Yb4A Yb 0.23953(4) 0.092794(14) 1.037100(13)
Yb4A_2 Yb 0.23953(4) 1.092794(14) 1.037100(13)
O3A O 0.5623(5) 0.5371(2) 0.45780(19)
O4A O 0.6925(5) 0.6070(2) 0.48903(19)
O5A O 0.6489(6) 0.8093(2) 0.97619(19)
O6A O 0.4790(6) 0.7402(3) 1.0102(2)
O7A O 0.9421(6) 0.8328(2) 1.0109(2)
O13_2 O 0.1429(5) 0.6072(2) 0.62142(19)
O14_2 O 0.3727(5) 0.6026(2) 0.55347(19)
O15A O 0.7469(5) 0.4225(2) 0.60236(19)
O16A O 0.8239(5) 0.4616(2) 0.5100(2)
O19A O 0.6102(5) 0.9219(2) 1.0591(2)
O20A O 0.8361(6) 0.9691(2) 1.0341(2)
O21_2 O 0.7619(6) 0.7858(2) 0.8431(2)
O22_2 O 0.8382(6) 0.8706(2) 0.8752(2)
O34 O -0.2380(7) 0.1228(3) 0.9603(3)
O35 O 0.7665(8) 0.5555(4) 0.8637(3)
O36 O 0.2255(9) 0.5943(3) 0.9021(3)
O37 O 1.1371(9) 0.5595(4) 0.2909(3)
O38 O 0.6392(12) 0.4449(5) 0.8080(4)
O39 O -0.0669(15) 0.3857(6) 0.9188(6)
O40 O 0.5506(16) 0.3768(6) 0.9168(6)
O41 O 0.2306(19) 0.4036(8) 0.8498(7)
O42 O 0.098(2) 0.4190(10) 1.0058(9)
loop_
_geom_bond_atom_site_label_1
_geom_bond_atom_site_label_2
_geom_bond_site_symmetry_1
_geom_bond_site_symmetry_2
Yb1 O1 1_555 1_555
Yb2 O2 1_555 1_555
Yb3 O11 1_555 1_555
Yb4 O18 1_555 1_555
O1 C8 1_555 1_555
O2 Yb1 1_555 1_555
O3 Yb2 1_555 1_555
O4 C9 1_555 1_555
O5 C16 1_555 1_555
O6 C16 1_555 1_555
O7 C17 1_555 1_555
O8 C17 1_555 1_555
O9 Yb1 1_555 1_555
O10 Yb2 1_555 1_555
O11 C28 1_555 1_555
O12 C28 1_555 1_555
O13 C35 1_555 1_555
O14 C35 1_555 1_555
O15 C36 1_555 1_555
O16 C36 1_555 1_555
O17 Yb3 1_555 1_555
O18 C46 1_555 1_555
O19 C47 1_555 1_555
O20 C47 1_555 1_555
O21 C54 1_555 1_555
O22 C54 1_555 1_555
O23 Yb1 1_555 1_555
O24 C55 1_555 1_555
O25 Yb1 1_555 1_555
H1 O25 1_555 1_555
H2 O25 1_555 1_555
O26 Yb1 1_555 1_555
H3 O26 1_555 1_555
H4 O26 1_555 1_555
O27 Yb1 1_555 1_555
H5 O27 1_555 1_555
H6 O27 1_555 1_555
O28 Yb2 1_555 1_555
H7 O28 1_555 1_555
H8 O28 1_555 1_555
O29 Yb3 1_555 1_555
H9 O29 1_555 1_555
H10 O29 1_555 1_555
O30 Yb3 1_555 1_555
H11 O30 1_555 1_555
H12 O30 1_555 1_555
O31 Yb3 1_555 1_555
H13 O31 1_555 1_555
H14 O31 1_555 1_555
O32 Yb4 1_555 1_555
O33 Yb4 1_555 1_555
H15 O33 1_555 1_555
H16 O33 1_555 1_555
F1 C18 1_555 1_555
F2 C18 1_555 1_555
F3 C18 1_555 1_555
F4 C19 1_555 1_555
F5 C19 1_555 1_555
F6 C19 1_555 1_555
F7 C37 1_555 1_555
F8 C37 1_555 1_555
F9 C37 1_555 1_555
F10 C38 1_555 1_555
F11 C38 1_555 1_555
F12 C38 1_555 1_555
F13 C56 1_555 1_555
F14 C56 1_555 1_555
F15 C56 1_555 1_555
F16 C57 1_555 1_555
F17 C57 1_555 1_555
F18 C57 1_555 1_555
C1 C2 1_555 1_555
C2 C3 1_555 1_555
C3 H17 1_555 1_555
C4 C3 1_555 1_555
C5 C4 1_555 1_555
C6 C5 1_555 1_555
H18 C6 1_555 1_555
C7 C2 1_555 1_555
H19 C7 1_555 1_555
C8 O2 1_555 1_555
C9 O3 1_555 1_555
C10 C1 1_555 1_555
C11 C10 1_555 1_555
H20 C11 1_555 1_555
C12 C11 1_555 1_555
C13 C12 1_555 1_555
C14 C13 1_555 1_555
H21 C14 1_555 1_555
C15 C10 1_555 1_555
H22 C15 1_555 1_555
C16 C12 1_555 1_555
C17 C13 1_555 1_555
C18 C1 1_555 1_555
C19 C1 1_555 1_555
C20 C21 1_555 1_555
C21 C22 1_555 1_555
C22 H23 1_555 1_555
C23 C22 1_555 1_555
C24 C23 1_555 1_555
C25 C24 1_555 1_555
H24 C25 1_555 1_555
C26 C21 1_555 1_555
H25 C26 1_555 1_555
C27 O9 1_555 1_555
C28 C24 1_555 1_555
C29 C20 1_555 1_555
C30 C29 1_555 1_555
H26 C30 1_555 1_555
C31 C30 1_555 1_555
C32 C31 1_555 1_555
C33 C32 1_555 1_555
H27 C33 1_555 1_555
C34 C29 1_555 1_555
H28 C34 1_555 1_555
C35 C31 1_555 1_555
C36 C32 1_555 1_555
C37 C20 1_555 1_555
C38 C20 1_555 1_555
C39 C40 1_555 1_555
C40 C41 1_555 1_555
C41 H29 1_555 1_555
C42 C41 1_555 1_555
C43 C42 1_555 1_555
C44 C43 1_555 1_555
H30 C44 1_555 1_555
C45 C40 1_555 1_555
H31 C45 1_555 1_555
C46 O17 1_555 1_555
C47 C43 1_555 1_555
C48 C39 1_555 1_555
C49 C48 1_555 1_555
H32 C49 1_555 1_555
C50 C49 1_555 1_555
C51 C50 1_555 1_555
C52 C51 1_555 1_555
H33 C52 1_555 1_555
C53 C48 1_555 1_555
H34 C53 1_555 1_555
C54 C50 1_555 1_555
C55 O23 1_555 1_555
C56 C39 1_555 1_555
C57 C39 1_555 1_555
Yb1_2 O13 1_555 1_555
Yb2_2 O14 1_555 1_555
Yb2A O3 1_555 1_555
Yb2A_2 O15 1_555 1_555
Yb3_2 O21 1_555 1_555
Yb3A O5 1_555 1_555
Yb4_2 O22 1_555 1_555
Yb4A O5 1_555 1_555
Yb4A_2 O19 1_555 1_555
O3A Yb2 1_555 1_555
O4A Yb2 1_555 1_555
O5A Yb3 1_555 1_555
O6A Yb3 1_555 1_555
O7A Yb4 1_555 1_555
O13_2 Yb1 1_555 1_555
O14_2 Yb2 1_555 1_555
O15A Yb2 1_555 1_555
O16A Yb2 1_555 1_555
O19A Yb4 1_555 1_555
O20A Yb4 1_555 1_555
O21_2 Yb3 1_555 1_555
O22_2 Yb4 1_555 1_555
Yb4 O5A 1_555 1_555
O4 Yb2A 1_555 1_555
O6 Yb3A 1_555 1_555
O7 Yb4A 1_555 1_555
O10 C27 1_555 1_555
O16 Yb2A_2 1_555 1_555
O20 Yb4A_2 1_555 1_555
C4 C8 1_555 1_555
C5 C9 1_555 1_555
C6 C7 1_555 1_555
C14 C15 1_555 1_555
C23 C27 1_555 1_555
C25 C26 1_555 1_555
C33 C34 1_555 1_555
C42 C46 1_555 1_555
C44 C45 1_555 1_555
C51 C55 1_555 1_555
C52 C53 1_555 1_555
Yb2A O3A 1_555 1_555

#END
