
#######################################################################
#
#                 Cambridge Crystallographic Data Centre
#                                CCDC 
#
#######################################################################
#
# If this CIF has been generated from an entry in the Cambridge 
# Structural Database, then it will include bibliographic, chemical, 
# crystal, experimental, refinement or atomic coordinate data resulting 
# from the CCDC's data processing and validation procedures.
#
#######################################################################

data_KIQKOK
_symmetry_cell_setting           monoclinic
_symmetry_space_group_name_H-M   'P 21/c'
_symmetry_Int_Tables_number      14
_space_group_name_Hall           '-P 2ybc'
loop_
_symmetry_equiv_pos_site_id
_symmetry_equiv_pos_as_xyz
1 x,y,z
2 x,1/2-y,1/2+z
3 -x,-y,-z
4 -x,1/2+y,1/2-z
_cell_length_a                   7.5233(4)
_cell_length_b                   27.4599(14)
_cell_length_c                   9.2537(5)
_cell_angle_alpha                90
_cell_angle_beta                 108.27
_cell_angle_gamma                90
_cell_volume                     1815.34
loop_
_atom_site_label
_atom_site_type_symbol
_atom_site_fract_x
_atom_site_fract_y
_atom_site_fract_z
O1 O 0.5119(8) -0.4636(2) 0.2695(6)
O2 O 0.2797(9) -0.5075(2) 0.0051(7)
O3 O 0.1063(9) -0.4529(2) 0.1803(7)
O4 O 0.2735(9) -0.5479(2) 0.2875(7)
O5 O 0.3217(8) -0.4751(2) 0.4878(7)
O6 O 0.1616(9) -0.4608(2) 0.7342(7)
O7 O -0.0857(8) -0.4527(2) 0.4225(6)
O8 O 0.1930(9) -0.3822(2) 0.5511(8)
N1 N 0.5948(10) -0.3813(2) 0.4740(8)
N2 N 0.5394(13) -0.2310(3) 0.4052(10)
N3 N 0.7330(10) -0.0984(3) 0.6260(8)
C1 C 0.6939(14) -0.3507(4) 0.5836(11)
H1 H 0.7749(14) -0.3639(4) 0.6724(11)
C2 C 0.6810(15) -0.3008(3) 0.5702(11)
H2 H 0.7497(15) -0.2811(3) 0.6501(11)
C3 C 0.5653(13) -0.2799(3) 0.4375(11)
C4 C 0.4583(13) -0.3116(3) 0.3262(11)
H3 H 0.3756(13) -0.2993(3) 0.2366(11)
C5 C 0.4751(13) -0.3610(3) 0.3488(11)
H4 H 0.4003(13) -0.3814(3) 0.2741(11)
C6 C 0.8288(9) -0.1398(2) 0.6747(8)
H5 H 0.9370(9) -0.1379(2) 0.7579(8)
C7 C 0.7770(9) -0.1851(2) 0.6091(8)
H6 H 0.8504(9) -0.2124(2) 0.6463(8)
C8 C 0.6142(14) -0.1891(3) 0.4872(11)
H7 H 0.457(17) -0.2237(44) 0.332(14)
C9 C 0.5105(13) -0.1463(3) 0.4348(10)
H8 H 0.4014(13) -0.1474(3) 0.3523(10)
C10 C 0.5722(12) -0.1028(3) 0.5067(10)
H9 H 0.5008(12) -0.0750(3) 0.4723(10)
Mo1 Mo 0.29030(10) -0.49294(3) 0.19085(8)
Mo2 Mo 0.14824(10) -0.44330(3) 0.54831(8)
Cu1 Cu 0.63129(14) -0.45256(4) 0.48985(11)
Cu2 Cu 0.18950(15) -0.53141(4) -0.20209(11)
Cu2B Cu -0.18950(15) -0.46859(4) 0.20209(11)
Cu1B Cu 0.36871(14) -0.54744(4) 0.51015(11)
Cu2_2 Cu 0.18950(15) -0.53141(4) 0.79791(11)
Cu2C Cu 0.81050(15) -0.03141(4) 0.70209(11)
O7_2 O 0.9143(8) -0.4527(2) 0.4225(6)
O4B O 0.7265(9) -0.4521(2) 0.7125(7)
O5B O 0.6783(8) -0.5249(2) 0.5122(7)
O3B O -0.1063(9) -0.5471(2) -0.1803(7)
O6_2 O 0.1616(9) -0.4608(2) -0.2658(7)
O7B O 0.0857(8) -0.5473(2) -0.4225(6)
N3C N 0.2670(10) -0.5984(3) -0.1260(8)
Cu1_2 Cu -0.36871(14) -0.45256(4) 0.48985(11)
O9 O 0.0702(13) -0.2838(3) -0.1035(10)
O10 O 0.0680(13) -0.3860(3) 0.9307(10)
O11 O 0.1986(12) -0.2169(3) 0.1327(9)
loop_
_geom_bond_atom_site_label_1
_geom_bond_atom_site_label_2
_geom_bond_site_symmetry_1
_geom_bond_site_symmetry_2
O1 Mo1 1_555 1_555
O2 Mo1 1_555 1_555
O3 Mo1 1_555 1_555
O4 Mo1 1_555 1_555
O5 Mo2 1_555 1_555
O6 Mo2 1_555 1_555
O7 Mo2 1_555 1_555
O8 Mo2 1_555 1_555
N1 C1 1_555 1_555
N2 C3 1_555 1_555
N3 C6 1_555 1_555
C1 H1 1_555 1_555
C2 C1 1_555 1_555
H2 C2 1_555 1_555
C3 C2 1_555 1_555
C4 C3 1_555 1_555
H3 C4 1_555 1_555
C5 N1 1_555 1_555
H4 C5 1_555 1_555
C6 H5 1_555 1_555
C7 C6 1_555 1_555
H6 C7 1_555 1_555
C8 N2 1_555 1_555
H7 N2 1_555 1_555
C9 C8 1_555 1_555
H8 C9 1_555 1_555
C10 N3 1_555 1_555
H9 C10 1_555 1_555
Cu1 O1 1_555 1_555
Cu2 O2 1_555 1_555
Cu2B O3 1_555 1_555
Cu1B O4 1_555 1_555
Cu2_2 O6 1_555 1_555
Cu2C N3 1_555 1_555
O7_2 Cu1 1_555 1_555
O4B Cu1 1_555 1_555
O5B Cu1 1_555 1_555
O3B Cu2 1_555 1_555
O6_2 Cu2 1_555 1_555
O7B Cu2 1_555 1_555
N3C Cu2 1_555 1_555
Cu1_2 O7 1_555 1_555
O5 Cu1 1_555 1_555
O5 Cu1B 1_555 1_555
O7 Cu2B 1_555 1_555
N1 Cu1 1_555 1_555
C4 C5 1_555 1_555
C7 C8 1_555 1_555
C9 C10 1_555 1_555
Cu1B O5B 1_555 1_555

#END
