
#######################################################################
#
#                 Cambridge Crystallographic Data Centre
#                                CCDC 
#
#######################################################################
#
# If this CIF has been generated from an entry in the Cambridge 
# Structural Database, then it will include bibliographic, chemical, 
# crystal, experimental, refinement or atomic coordinate data resulting 
# from the CCDC's data processing and validation procedures.
#
#######################################################################

data_KIVFEC
_symmetry_cell_setting           triclinic
_symmetry_space_group_name_H-M   'P -1'
_symmetry_Int_Tables_number      2
_space_group_name_Hall           '-P 1'
loop_
_symmetry_equiv_pos_site_id
_symmetry_equiv_pos_as_xyz
1 x,y,z
2 -x,-y,-z
_cell_length_a                   10.786(2)
_cell_length_b                   16.726(3)
_cell_length_c                   17.385(3)
_cell_angle_alpha                114.67(3)
_cell_angle_beta                 93.29(3)
_cell_angle_gamma                99.58(3)
_cell_volume                     2782.05
loop_
_atom_site_label
_atom_site_type_symbol
_atom_site_fract_x
_atom_site_fract_y
_atom_site_fract_z
O1 O -0.1804(5) -0.0088(3) 1.0494(4)
O2 O -0.5371(5) 0.2399(4) 1.0379(4)
O3 O -0.6959(4) 0.1799(4) 1.0882(3)
C1 C -0.5847(7) 0.1903(5) 1.0710(5)
C2 C -0.5075(6) 0.1348(5) 1.0902(5)
O4 O -0.0737(5) -0.0795(5) 0.8862(4)
Pr1 Pr 0.08363(3) 0.14059(3) 1.01175(2)
Pr2 Pr 0.37249(4) 0.34309(3) 0.99430(3)
Pr3 Pr 0.43730(4) -0.13323(3) 0.40593(3)
C3 C 0.2606(7) -0.0284(5) 0.6428(5)
O5 O -0.0045(5) 0.2505(3) 0.9652(4)
O6 O -0.3863(4) 0.1385(3) 1.0663(3)
O7 O -0.1572(4) 0.3585(3) 0.9464(3)
O8 O -0.1447(4) 0.1225(4) 1.0395(3)
O9 O 0.2263(5) 0.1646(3) 0.9137(3)
O10 O -0.3997(4) 0.3743(3) 0.9726(4)
O11 O 0.1570(4) 0.3252(4) 0.9285(4)
O12 O -0.0621(5) 0.0484(4) 0.8734(3)
O13 O -0.2375(5) -0.0371(3) 0.7306(3)
O14 O 0.3757(5) 0.2107(4) 0.8519(4)
O15 O 0.2258(5) 0.3314(4) 1.0912(3)
O16 O 0.3853(5) 0.0016(4) 0.5459(3)
O17 O 0.2987(5) 0.4832(3) 1.2378(3)
O18 O -0.3722(5) 0.4977(3) 0.9494(4)
O19 O 0.0800(6) 0.2747(4) 1.1500(4)
C4 C 0.1944(9) 0.4219(5) 1.2321(6)
O20 O 0.5124(5) 0.4373(4) 1.1421(4)
C5 C -0.3363(7) 0.4305(5) 0.9519(5)
O21 O 0.3073(5) 0.0574(3) 0.7042(3)
C6 C 0.2477(7) 0.0645(5) 0.7735(5)
C7 C -0.2096(7) 0.0615(5) 1.0539(5)
O22 O 0.3750(5) 0.3879(4) 0.8678(4)
C8 C -0.0376(6) 0.3633(5) 0.9226(5)
C9 C -0.3359(6) 0.0740(5) 1.0806(5)
C10 C 0.0443(6) 0.3076(5) 0.9411(5)
O23 O -0.3695(6) 0.0214(4) 0.6368(4)
O24 O 0.2726(6) -0.1352(4) 0.5059(4)
C11 C 0.1660(8) 0.3374(5) 1.1536(5)
C12 C -0.2083(7) 0.4211(5) 0.9295(5)
O25 O 0.6307(6) -0.2021(5) 0.3605(5)
O26 O -0.4448(6) -0.1199(4) 0.5361(4)
C13 C 0.1677(8) -0.0135(6) 0.7568(5)
H1 H 0.1174 -0.0253 0.7941
C14 C 0.2857(7) 0.1526(5) 0.8516(5)
O27 O 0.3914(6) 0.7115(4) 1.3840(4)
C15 C -0.0153(7) 0.4245(5) 0.8909(5)
H2 H 0.0583 0.4398 0.8703
C16 C -0.1030(7) -0.0340(6) 0.8488(5)
C17 C -0.1251(7) 0.4609(5) 0.8950(5)
H3 H -0.1377 0.5045 0.8770
C18 C -0.3801(8) -0.0622(6) 0.6049(5)
C19 C -0.5316(7) 0.0712(6) 1.1189(6)
H4 H -0.6054 0.0557 1.1391
C20 C -0.3089(8) -0.0984(6) 0.6552(5)
C21 C -0.1856(7) -0.0861(5) 0.7663(5)
C22 C 0.1745(8) -0.0736(6) 0.6727(6)
H5 H 0.1292 -0.1326 0.6432
C23 C 0.3091(8) -0.0554(6) 0.5603(5)
C24 C -0.2219(10) -0.1742(6) 0.7138(7)
H6 H -0.1988 -0.2210 0.7229
O28 O 0.2100(7) -0.2020(6) 0.3224(5)
C25 C -0.4205(8) 0.0315(6) 1.1123(7)
H7 H -0.4098 -0.0146 1.1271
O29 O 0.4319(6) -0.1984(5) 0.2458(4)
C26 C 0.2016(14) 0.5474(8) 1.3478(8)
H8 H 0.1803 0.5888 1.3979
O30 O 0.4991(7) 0.6220(4) 1.2892(5)
C27 C 0.3015(9) 0.5606(6) 1.3103(6)
C28 C -0.3015(11) -0.1829(6) 0.6422(6)
H9 H -0.3410 -0.2362 0.5954
C29 C 0.1333(12) 0.4578(7) 1.2969(8)
H10 H 0.0588 0.4299 1.3076
C30 C 0.4079(9) 0.6363(6) 1.3281(6)
K1 K -0.2662(2) 0.25844(16) 1.02004(18)
O1A O 0.1804(5) 0.0088(3) 0.9506(4)
O2_2 O 0.4629(5) 0.2399(4) 1.0379(4)
O3_2 O 0.3041(4) 0.1799(4) 1.0882(3)
O4A O 0.0737(5) 0.0795(5) 1.1138(4)
Pr1_2 Pr -0.91637(3) 0.14059(3) 1.01175(2)
Pr1A Pr -0.08363(3) -0.14059(3) 0.98825(2)
Pr2_2 Pr -0.62751(4) 0.34309(3) 0.99430(3)
Pr2A Pr -0.37249(4) 0.65691(3) 1.00570(3)
Pr3_2 Pr -0.56270(4) -0.13323(3) 0.40593(3)
Pr3_3 Pr 0.43730(4) 0.86677(3) 1.40593(3)
Pr3A Pr -0.43730(4) 0.13323(3) 0.59407(3)
Pr3A_2 Pr 0.56270(4) 0.13323(3) 0.59407(3)
O10_2 O 0.6003(4) 0.3743(3) 0.9726(4)
O16A O 0.6147(5) -0.0016(4) 0.4541(3)
O18A O 0.3722(5) 0.5023(3) 1.0506(4)
O23A O 0.3695(6) -0.0214(4) 0.3632(4)
O26_2 O 0.5552(6) -0.1199(4) 0.5361(4)
O27_2 O 0.3914(6) -0.2885(4) 0.3840(4)
loop_
_geom_bond_atom_site_label_1
_geom_bond_atom_site_label_2
_geom_bond_site_symmetry_1
_geom_bond_site_symmetry_2
O1 C7 1_555 1_555
O2 C1 1_555 1_555
O3 C1 1_555 1_555
C1 C2 1_555 1_555
C2 O6 1_555 1_555
O4 C16 1_555 1_555
Pr1 O5 1_555 1_555
Pr2 O9 1_555 1_555
Pr3 O16 1_555 1_555
C3 O21 1_555 1_555
O5 C10 1_555 1_555
O6 C9 1_555 1_555
O7 C8 1_555 1_555
O8 Pr1 1_555 1_555
O9 Pr1 1_555 1_555
O10 C5 1_555 1_555
O11 Pr2 1_555 1_555
O12 Pr1 1_555 1_555
O13 C20 1_555 1_555
O14 Pr2 1_555 1_555
O15 Pr2 1_555 1_555
O16 C23 1_555 1_555
O17 C4 1_555 1_555
O18 C5 1_555 1_555
O19 Pr1 1_555 1_555
C4 C11 1_555 1_555
O20 Pr2 1_555 1_555
C5 C12 1_555 1_555
O21 C6 1_555 1_555
C6 C13 1_555 1_555
C7 O8 1_555 1_555
O22 Pr2 1_555 1_555
C8 C10 1_555 1_555
C9 C7 1_555 1_555
C10 O11 1_555 1_555
O23 C18 1_555 1_555
O24 Pr3 1_555 1_555
C11 O15 1_555 1_555
C12 O7 1_555 1_555
O25 Pr3 1_555 1_555
O26 C18 1_555 1_555
C13 H1 1_555 1_555
C14 O9 1_555 1_555
O27 C30 1_555 1_555
C15 C8 1_555 1_555
H2 C15 1_555 1_555
C16 O12 1_555 1_555
C17 C12 1_555 1_555
H3 C17 1_555 1_555
C18 C20 1_555 1_555
C19 C2 1_555 1_555
H4 C19 1_555 1_555
C20 C28 1_555 1_555
C21 O13 1_555 1_555
C22 C3 1_555 1_555
H5 C22 1_555 1_555
C23 C3 1_555 1_555
C24 C21 1_555 1_555
H6 C24 1_555 1_555
O28 Pr3 1_555 1_555
C25 C9 1_555 1_555
H7 C25 1_555 1_555
O29 Pr3 1_555 1_555
C26 H8 1_555 1_555
O30 C30 1_555 1_555
C27 O17 1_555 1_555
C28 C24 1_555 1_555
H9 C28 1_555 1_555
C29 C4 1_555 1_555
H10 C29 1_555 1_555
C30 C27 1_555 1_555
K1 O2 1_555 1_555
O1A Pr1 1_555 1_555
O2_2 Pr2 1_555 1_555
O3_2 Pr1 1_555 1_555
O4A Pr1 1_555 1_555
Pr1_2 O3 1_555 1_555
Pr1A O1 1_555 1_555
Pr2_2 O2 1_555 1_555
Pr2A O18 1_555 1_555
Pr3_2 O26 1_555 1_555
Pr3_3 O27 1_555 1_555
Pr3A O23 1_555 1_555
Pr3A_2 O16 1_555 1_555
O10_2 Pr2 1_555 1_555
O16A Pr3 1_555 1_555
O18A Pr2 1_555 1_555
O23A Pr3 1_555 1_555
O26_2 Pr3 1_555 1_555
O27_2 Pr3 1_555 1_555
O4 Pr1A 1_555 1_555
O5 K1 1_555 1_555
O6 K1 1_555 1_555
O7 K1 1_555 1_555
O8 K1 1_555 1_555
O10 K1 1_555 1_555
O10 Pr2_2 1_555 1_555
O14 C14 1_555 1_555
O19 C11 1_555 1_555
C6 C14 1_555 1_555
O24 C23 1_555 1_555
C13 C22 1_555 1_555
C15 C17 1_555 1_555
C16 C21 1_555 1_555
C19 C25 1_555 1_555
C26 C27 1_555 1_555
C26 C29 1_555 1_555
Pr3A_2 O16A 1_555 1_555

#END
