
#######################################################################
#
#                 Cambridge Crystallographic Data Centre
#                                CCDC 
#
#######################################################################
#
# If this CIF has been generated from an entry in the Cambridge 
# Structural Database, then it will include bibliographic, chemical, 
# crystal, experimental, refinement or atomic coordinate data resulting 
# from the CCDC's data processing and validation procedures.
#
#######################################################################

data_KIYBIF
_symmetry_cell_setting           monoclinic
_symmetry_space_group_name_H-M   'P 21/c'
_symmetry_Int_Tables_number      14
_space_group_name_Hall           '-P 2ybc'
loop_
_symmetry_equiv_pos_site_id
_symmetry_equiv_pos_as_xyz
1 x,y,z
2 -x,1/2+y,1/2-z
3 -x,-y,-z
4 x,1/2-y,1/2+z
_cell_length_a                   11.842(2)
_cell_length_b                   11.759(2)
_cell_length_c                   27.432(8)
_cell_angle_alpha                90
_cell_angle_beta                 102.48(3)
_cell_angle_gamma                90
_cell_volume                     3729.65
loop_
_atom_site_label
_atom_site_type_symbol
_atom_site_fract_x
_atom_site_fract_y
_atom_site_fract_z
Co1 Co 0.69498(4) 0.36498(4) 0.981659(17)
O1 O 0.8670(2) 0.3819(2) 0.97517(8)
O2 O 0.6590(2) 0.3899(2) 0.90296(9)
O3 O 0.4671(2) 0.3836(3) 0.88092(10)
O4 O 0.2049(2) 0.6798(2) 0.59210(9)
O5 O 0.2925(2) 0.6891(2) 0.52705(9)
O6 O 0.8602(3) 0.5126(2) 0.87711(9)
O7 O 0.9298(2) 0.6226(2) 0.94310(9)
O8 O 0.8917(2) 0.9145(2) 0.54267(9)
O9 O 0.9974(2) 0.8089(3) 0.60398(10)
O10 O 0.6789(2) 0.5432(2) 0.98908(10)
O11 O 0.5114(2) 0.3470(2) 0.97600(10)
O12 O 0.2881(3) 0.4606(2) 0.61085(10)
O13 O 0.8105(3) 0.7401(3) 0.63710(10)
N1 N 0.7928(3) 0.3097(3) 0.81751(11)
N2 N 0.7210(3) 0.1663(3) 0.56029(11)
C1 C 0.5627(3) 0.4060(3) 0.87164(13)
C2 C 0.5701(4) 0.4542(4) 0.82262(14)
H1 H 0.6350 0.4964 0.8201
C3 C 0.4871(4) 0.4392(4) 0.78225(14)
H2 H 0.4221 0.3991 0.7864
C4 C 0.4872(3) 0.4796(4) 0.73145(14)
C5 C 0.3951(3) 0.4498(4) 0.69273(14)
H3 H 0.3384 0.4007 0.6991
C6 C 0.3865(3) 0.4916(3) 0.64508(14)
C7 C 0.4721(4) 0.5620(4) 0.63424(15)
H4 H 0.4679 0.5885 0.6020
C8 C 0.5641(4) 0.5916(5) 0.67282(17)
H5 H 0.6217 0.6391 0.6661
C9 C 0.5719(4) 0.5523(5) 0.72073(16)
H6 H 0.6338 0.5742 0.7460
C10 C 0.2737(4) 0.5094(4) 0.56209(14)
H7 H 0.2077 0.4739 0.5403
H8 H 0.3416 0.4922 0.5490
C11 C 0.2557(3) 0.6367(3) 0.56076(13)
C12 C 0.8916(3) 0.6059(3) 0.89682(14)
C13 C 0.8859(4) 0.7039(4) 0.86167(15)
H9 H 0.8968 0.7775 0.8742
C14 C 0.8658(4) 0.6870(4) 0.81318(14)
H10 H 0.8518 0.6117 0.8034
C15 C 0.8617(3) 0.7681(4) 0.77181(15)
C16 C 0.8418(3) 0.7249(4) 0.72362(14)
H11 H 0.8338 0.6467 0.7189
C17 C 0.8334(3) 0.7950(4) 0.68236(15)
C18 C 0.8476(4) 0.9109(4) 0.68903(16)
H12 H 0.8422 0.9589 0.6617
C19 C 0.8700(4) 0.9545(4) 0.73689(17)
H13 H 0.8808 1.0325 0.7414
C20 C 0.8768(4) 0.8854(4) 0.77861(16)
H14 H 0.8911 0.9167 0.8105
C21 C 0.7928(4) 0.8066(4) 0.59267(15)
H15 H 0.7457 0.8720 0.5966
H16 H 0.7500 0.7616 0.5652
C22 C 0.9053(3) 0.8484(3) 0.57921(13)
C23 C 0.7114(3) 0.2369(3) 0.79541(14)
H17 H 0.6665 0.2014 0.8149
C24 C 0.6900(4) 0.2112(4) 0.74503(14)
H18 H 0.6313 0.1606 0.7315
C25 C 0.7559(3) 0.2606(3) 0.71472(13)
C26 C 0.8387(4) 0.3382(4) 0.73760(14)
H19 H 0.8840 0.3758 0.7189
C27 C 0.8540(3) 0.3600(4) 0.78789(14)
H20 H 0.9102 0.4126 0.8021
C28 C 0.7415(3) 0.2297(3) 0.66115(13)
C29 C 0.6607(4) 0.1531(4) 0.63750(15)
H21 H 0.6103 0.1197 0.6550
C30 C 0.6530(4) 0.1251(4) 0.58826(15)
H22 H 0.5960 0.0736 0.5737
C31 C 0.8005(4) 0.2388(5) 0.58307(16)
H23 H 0.8504 0.2699 0.5648
C32 C 0.8137(4) 0.2708(5) 0.63212(16)
H24 H 0.8724 0.3212 0.6460
Co2 Co 0.83099(4) 0.35131(4) 0.896976(17)
Co3 Co 1.0000 0.5000 1.0000
Co1B Co 1.30502(4) 0.63502(4) 1.018341(17)
O1B O 1.1330(2) 0.6181(2) 1.02483(8)
O2B O 1.3410(2) 0.6101(2) 1.09704(9)
O3B O 1.5329(2) 0.6164(3) 1.11908(10)
O4B O 1.7951(2) 0.3202(2) 1.40790(9)
O5B O 1.7075(2) 0.3109(2) 1.47295(9)
O6B O 1.1398(3) 0.4874(2) 1.12289(9)
O7B O 1.0702(2) 0.3774(2) 1.05690(9)
O8B O 1.1083(2) 0.0855(2) 1.45733(9)
O9B O 1.0026(2) 0.1911(3) 1.39602(10)
O10B O 1.3211(2) 0.4568(2) 1.01092(10)
O11B O 1.4886(2) 0.6530(2) 1.02400(10)
O12B O 1.7119(3) 0.5394(2) 1.38915(10)
O13B O 1.1895(3) 0.2599(3) 1.36290(10)
N1B N 1.2072(3) 0.6903(3) 1.18249(11)
N2B N 1.2790(3) 0.8337(3) 1.43971(11)
C1B C 1.4373(3) 0.5940(3) 1.12836(13)
C2B C 1.4299(4) 0.5458(4) 1.17738(14)
H1B H 1.3650 0.5036 1.1799
C3B C 1.5129(4) 0.5608(4) 1.21775(14)
H2B H 1.5779 0.6009 1.2136
C4B C 1.5128(3) 0.5204(4) 1.26855(14)
C5B C 1.6049(3) 0.5502(4) 1.30727(14)
H3B H 1.6616 0.5993 1.3009
C6B C 1.6135(3) 0.5084(3) 1.35492(14)
C7B C 1.5279(4) 0.4380(4) 1.36576(15)
H4B H 1.5321 0.4115 1.3980
C8B C 1.4359(4) 0.4084(5) 1.32718(17)
H5B H 1.3783 0.3609 1.3339
C9B C 1.4281(4) 0.4477(5) 1.27927(16)
H6B H 1.3662 0.4258 1.2540
C10B C 1.7263(4) 0.4906(4) 1.43791(14)
H7B H 1.7923 0.5261 1.4597
H8B H 1.6584 0.5078 1.4510
C11B C 1.7443(3) 0.3633(3) 1.43924(13)
C12B C 1.1084(3) 0.3941(3) 1.10318(14)
C13B C 1.1141(4) 0.2961(4) 1.13833(15)
H9B H 1.1032 0.2225 1.1258
C14B C 1.1342(4) 0.3130(4) 1.18682(14)
H10B H 1.1482 0.3883 1.1966
C15B C 1.1383(3) 0.2319(4) 1.22819(15)
C16B C 1.1582(3) 0.2751(4) 1.27638(14)
H11B H 1.1662 0.3533 1.2811
C17B C 1.1666(3) 0.2050(4) 1.31764(15)
C18B C 1.1524(4) 0.0891(4) 1.31097(16)
H12B H 1.1578 0.0411 1.3383
C19B C 1.1300(4) 0.0455(4) 1.26311(17)
H13B H 1.1192 -0.0325 1.2586
C20B C 1.1232(4) 0.1146(4) 1.22139(16)
H14B H 1.1089 0.0833 1.1895
C21B C 1.2072(4) 0.1934(4) 1.40733(15)
H15B H 1.2543 0.1280 1.4034
H16B H 1.2500 0.2384 1.4348
C22B C 1.0947(3) 0.1516(3) 1.42079(13)
C23B C 1.2886(3) 0.7631(3) 1.20459(14)
H17B H 1.3335 0.7986 1.1851
C24B C 1.3100(4) 0.7888(4) 1.25497(14)
H18B H 1.3687 0.8394 1.2685
C25B C 1.2441(3) 0.7394(3) 1.28528(13)
C26B C 1.1613(4) 0.6618(4) 1.26240(14)
H19B H 1.1160 0.6242 1.2811
C27B C 1.1460(3) 0.6400(4) 1.21211(14)
H20B H 1.0898 0.5874 1.1979
C28B C 1.2585(3) 0.7703(3) 1.33885(13)
C29B C 1.3393(4) 0.8469(4) 1.36250(15)
H21B H 1.3897 0.8803 1.3450
C30B C 1.3470(4) 0.8749(4) 1.41174(15)
H22B H 1.4040 0.9264 1.4263
C31B C 1.1995(4) 0.7612(5) 1.41693(16)
H23B H 1.1496 0.7301 1.4352
C32B C 1.1863(4) 0.7292(5) 1.36788(16)
H24B H 1.1276 0.6788 1.3540
Co2B Co 1.16901(4) 0.64869(4) 1.103024(17)
Co1A Co 0.30502(4) 0.86498(4) 0.518341(17)
Co1A_2 Co 1.30502(4) 0.86498(4) 1.518341(17)
Co1C Co 0.69498(4) 0.13502(4) 0.481659(17)
Co1C_2 Co 1.69498(4) 0.13502(4) 1.481659(17)
O4A O 0.7951(2) 0.1798(2) 0.90790(9)
O4C O 1.2049(2) 0.8202(2) 1.09210(9)
O5A O 0.7075(2) 0.1891(2) 0.97295(9)
O5C O 1.2925(2) 0.8109(2) 1.02705(9)
O8A O 1.1083(2) 0.4145(2) 0.95733(9)
O8C O 0.8917(2) 0.5855(2) 1.04267(9)
O9A O 1.0026(2) 0.3089(3) 0.89602(10)
O9C O 0.9974(2) 0.6911(3) 1.10398(10)
N2A N 1.2790(3) 0.6663(3) 0.93971(11)
N2C N 0.7210(3) 0.3337(3) 1.06029(11)
Co2A Co 0.16901(4) 0.85131(4) 0.603024(17)
Co2A_2 Co 1.16901(4) 0.85131(4) 0.603024(17)
Co2C Co 0.83099(4) 0.14869(4) 1.396976(17)
Co2C_2 Co 1.83099(4) 0.14869(4) 1.396976(17)
Co3A Co 1.0000 0.0000 1.5000
Co3A_2 Co 1.0000 1.0000 0.5000
O14 O 0.9883(3) 0.8329(3) 0.98544(12)
O15 O 0.0372(4) 0.5852(3) 0.64238(15)
O16 O -0.0935(4) 0.5176(4) 0.55315(16)
O17 O 0.4859(6) 0.1431(5) 0.0219(3)
O18 O 0.6287(6) 0.7128(6) 0.9137(3)
O19 O 0.6648(6) 0.5131(7) 0.5578(3)
loop_
_geom_bond_atom_site_label_1
_geom_bond_atom_site_label_2
_geom_bond_site_symmetry_1
_geom_bond_site_symmetry_2
Co1 O1 1_555 1_555
O1 Co2 1_555 1_555
O2 Co1 1_555 1_555
O3 C1 1_555 1_555
O4 C11 1_555 1_555
O5 C11 1_555 1_555
O6 C12 1_555 1_555
O7 C12 1_555 1_555
O8 C22 1_555 1_555
O9 C22 1_555 1_555
O10 Co1 1_555 1_555
O11 Co1 1_555 1_555
O12 C6 1_555 1_555
O13 C17 1_555 1_555
N1 C23 1_555 1_555
N2 C30 1_555 1_555
C1 O2 1_555 1_555
C2 C1 1_555 1_555
H1 C2 1_555 1_555
C3 C2 1_555 1_555
H2 C3 1_555 1_555
C4 C3 1_555 1_555
C5 C4 1_555 1_555
H3 C5 1_555 1_555
C6 C5 1_555 1_555
C7 C6 1_555 1_555
H4 C7 1_555 1_555
C8 C7 1_555 1_555
H5 C8 1_555 1_555
C9 C4 1_555 1_555
H6 C9 1_555 1_555
C10 O12 1_555 1_555
H7 C10 1_555 1_555
H8 C10 1_555 1_555
C11 C10 1_555 1_555
C12 C13 1_555 1_555
C13 H9 1_555 1_555
C14 C13 1_555 1_555
H10 C14 1_555 1_555
C15 C14 1_555 1_555
C16 C15 1_555 1_555
H11 C16 1_555 1_555
C17 C16 1_555 1_555
C18 C17 1_555 1_555
H12 C18 1_555 1_555
C19 C18 1_555 1_555
H13 C19 1_555 1_555
C20 C15 1_555 1_555
H14 C20 1_555 1_555
C21 O13 1_555 1_555
H15 C21 1_555 1_555
H16 C21 1_555 1_555
C22 C21 1_555 1_555
C23 H17 1_555 1_555
C24 C23 1_555 1_555
H18 C24 1_555 1_555
C25 C24 1_555 1_555
C26 C25 1_555 1_555
H19 C26 1_555 1_555
C27 N1 1_555 1_555
H20 C27 1_555 1_555
C28 C25 1_555 1_555
C29 C28 1_555 1_555
H21 C29 1_555 1_555
C30 C29 1_555 1_555
H22 C30 1_555 1_555
C31 N2 1_555 1_555
H23 C31 1_555 1_555
C32 C28 1_555 1_555
H24 C32 1_555 1_555
Co2 O2 1_555 1_555
Co3 O1 1_555 1_555
Co1B O1B 1_555 1_555
O1B Co3 1_555 1_555
O2B Co1B 1_555 1_555
O3B C1B 1_555 1_555
O4B C11B 1_555 1_555
O5B C11B 1_555 1_555
O6B C12B 1_555 1_555
O7B Co3 1_555 1_555
O8B C22B 1_555 1_555
O9B C22B 1_555 1_555
O10B Co1B 1_555 1_555
O11B Co1B 1_555 1_555
O12B C6B 1_555 1_555
O13B C17B 1_555 1_555
N1B C23B 1_555 1_555
N2B C30B 1_555 1_555
C1B O2B 1_555 1_555
C2B C1B 1_555 1_555
H1B C2B 1_555 1_555
C3B C2B 1_555 1_555
H2B C3B 1_555 1_555
C4B C3B 1_555 1_555
C5B C4B 1_555 1_555
H3B C5B 1_555 1_555
C6B C5B 1_555 1_555
C7B C6B 1_555 1_555
H4B C7B 1_555 1_555
C8B C7B 1_555 1_555
H5B C8B 1_555 1_555
C9B C4B 1_555 1_555
H6B C9B 1_555 1_555
C10B O12B 1_555 1_555
H7B C10B 1_555 1_555
H8B C10B 1_555 1_555
C11B C10B 1_555 1_555
C12B O7B 1_555 1_555
C13B C12B 1_555 1_555
H9B C13B 1_555 1_555
C14B C13B 1_555 1_555
H10B C14B 1_555 1_555
C15B C14B 1_555 1_555
C16B C15B 1_555 1_555
H11B C16B 1_555 1_555
C17B C16B 1_555 1_555
C18B C17B 1_555 1_555
H12B C18B 1_555 1_555
C19B C18B 1_555 1_555
H13B C19B 1_555 1_555
C20B C15B 1_555 1_555
H14B C20B 1_555 1_555
C21B O13B 1_555 1_555
H15B C21B 1_555 1_555
H16B C21B 1_555 1_555
C22B C21B 1_555 1_555
C23B H17B 1_555 1_555
C24B C23B 1_555 1_555
H18B C24B 1_555 1_555
C25B C24B 1_555 1_555
C26B C25B 1_555 1_555
H19B C26B 1_555 1_555
C27B N1B 1_555 1_555
H20B C27B 1_555 1_555
C28B C25B 1_555 1_555
C29B C28B 1_555 1_555
H21B C29B 1_555 1_555
C30B C29B 1_555 1_555
H22B C30B 1_555 1_555
C31B N2B 1_555 1_555
H23B C31B 1_555 1_555
C32B C28B 1_555 1_555
H24B C32B 1_555 1_555
Co2B O1B 1_555 1_555
Co1A O5 1_555 1_555
Co1A_2 N2B 1_555 1_555
Co1C N2 1_555 1_555
Co1C_2 O5B 1_555 1_555
O4A Co2 1_555 1_555
O4C Co2B 1_555 1_555
O5A Co1 1_555 1_555
O5C Co1B 1_555 1_555
O8A Co3 1_555 1_555
O8C Co3 1_555 1_555
O9A Co2 1_555 1_555
O9C Co2B 1_555 1_555
N2A Co1B 1_555 1_555
N2C Co1 1_555 1_555
Co2A O4 1_555 1_555
Co2A_2 O9 1_555 1_555
Co2C O9B 1_555 1_555
Co2C_2 O4B 1_555 1_555
Co3A O8B 1_555 1_555
Co3A_2 O8 1_555 1_555
O6 Co2 1_555 1_555
O7 Co3 1_555 1_555
N1 Co2 1_555 1_555
C8 C9 1_555 1_555
C19 C20 1_555 1_555
C26 C27 1_555 1_555
C31 C32 1_555 1_555
O2B Co2B 1_555 1_555
O6B Co2B 1_555 1_555
N1B Co2B 1_555 1_555
C8B C9B 1_555 1_555
C19B C20B 1_555 1_555
C26B C27B 1_555 1_555
C31B C32B 1_555 1_555

#END
