
#######################################################################
#
#                 Cambridge Crystallographic Data Centre
#                                CCDC 
#
#######################################################################
#
# If this CIF has been generated from an entry in the Cambridge 
# Structural Database, then it will include bibliographic, chemical, 
# crystal, experimental, refinement or atomic coordinate data resulting 
# from the CCDC's data processing and validation procedures.
#
#######################################################################

data_KOBPUN
_symmetry_cell_setting           monoclinic
_symmetry_space_group_name_H-M   'P 21/a'
_symmetry_Int_Tables_number      14
_space_group_name_Hall           '-P 2yab'
loop_
_symmetry_equiv_pos_site_id
_symmetry_equiv_pos_as_xyz
1 x,y,z
2 1/2-x,1/2+y,-z
3 -x,-y,-z
4 1/2+x,1/2-y,z
_cell_length_a                   7.644(5)
_cell_length_b                   22.262(3)
_cell_length_c                   11.148(7)
_cell_angle_alpha                90
_cell_angle_beta                 98.828(9)
_cell_angle_gamma                90
_cell_volume                     1874.59
loop_
_atom_site_label
_atom_site_type_symbol
_atom_site_fract_x
_atom_site_fract_y
_atom_site_fract_z
Gd1 Gd 0.39489(5) 0.221183(18) 0.73367(4)
O1 O 0.540(3) 0.7123(4) 0.7242(19)
O2 O 0.3732(11) 0.5413(3) 0.8904(7)
O3 O 0.771(3) 0.5336(5) 0.633(2)
O4 O 0.4163(8) 0.3310(3) 0.7392(6)
O5 O 0.6879(9) 0.3566(3) 0.7089(7)
O6 O 1.0863(9) 0.6842(3) 0.4772(6)
O7 O 0.8648(8) 0.7369(3) 0.3896(6)
O8 O 0.3303(8) 0.7516(3) 1.1389(6)
O9 O 0.1371(9) 0.6856(3) 1.0577(6)
O10 O 0.5787(8) 0.1317(3) 0.7612(7)
N1 N 0.5838(14) 0.5365(4) 0.7699(10)
N2 N 0.663(4) 0.6237(5) 0.681(3)
N3 N 0.4464(17) 0.6277(4) 0.8034(10)
C1 C 0.4609(15) 0.5668(4) 0.8262(10)
C2 C 0.677(4) 0.5623(6) 0.689(2)
C3 C 0.544(4) 0.6581(6) 0.735(2)
C4 C 0.6095(14) 0.4726(5) 0.7940(12)
H1 H 0.5954 0.4644 0.8774
H2 H 0.7293 0.4616 0.7841
C5 C 0.4805(13) 0.4346(4) 0.7105(10)
H3 H 0.4781 0.4478 0.6273
H4 H 0.3625 0.4395 0.7311
C6 C 0.5330(12) 0.3691(4) 0.7214(8)
C7 C 0.687(3) 0.6557(9) 0.5446(15)
H5 H 0.6961 0.6254 0.4835
H6 H 0.5887 0.6822 0.5160
C8 C 0.825(2) 0.6837(8) 0.569(2)
H7 H 0.9018 0.6602 0.6286
H8 H 0.7969 0.7202 0.6098
C9 C 0.9324(13) 0.7020(4) 0.4742(8)
C10 C 0.3150(16) 0.6613(5) 0.8587(9)
H9 H 0.2316 0.6333 0.8854
H10 H 0.2496 0.6875 0.7982
C11 C 0.3976(15) 0.6985(5) 0.9651(10)
H11 H 0.4373 0.7361 0.9348
H12 H 0.5014 0.6775 1.0056
C12 C 0.2797(11) 0.7121(4) 1.0563(8)
Gd1C Gd 0.89489(5) 0.278817(18) 0.73367(4)
Gd1A Gd 1.10511(5) 0.721183(18) 0.26633(4)
Gd1B Gd 0.60511(5) 0.778817(18) 0.26633(4)
Gd1B_2 Gd 0.60511(5) 0.778817(18) 1.26633(4)
Gd1A_2 Gd 0.10511(5) 0.721183(18) 1.26633(4)
O5C O 0.1879(9) 0.1434(3) 0.7089(7)
O6A O 0.4137(9) 0.1842(3) 0.5228(6)
O7B O 0.1352(8) 0.2631(3) 0.6104(6)
O7A O 0.6352(8) 0.2369(3) 0.6104(6)
O8B O 0.6697(8) 0.2484(3) 0.8611(6)
O8A O 0.1697(8) 0.2516(3) 0.8611(6)
O9A O 0.3629(9) 0.1856(3) 0.9423(6)
O11 O 0.1095(19) 0.4609(7) 0.9471(16)
O12 O 0.730(3) 0.4313(9) 0.4536(17)
O13 O 1.038(4) 0.4730(14) 0.642(3)
O14 O 0.827(4) 0.6302(14) 0.912(3)
loop_
_geom_bond_atom_site_label_1
_geom_bond_atom_site_label_2
_geom_bond_site_symmetry_1
_geom_bond_site_symmetry_2
Gd1 O4 1_555 1_555
O1 C3 1_555 1_555
O2 C1 1_555 1_555
O3 C2 1_555 1_555
O4 C6 1_555 1_555
O5 C6 1_555 1_555
O6 C9 1_555 1_555
O7 C9 1_555 1_555
O8 C12 1_555 1_555
O9 C12 1_555 1_555
O10 Gd1 1_555 1_555
N1 C1 1_555 1_555
N2 C2 1_555 1_555
N3 C1 1_555 1_555
C2 N1 1_555 1_555
C3 N2 1_555 1_555
C4 N1 1_555 1_555
H1 C4 1_555 1_555
H2 C4 1_555 1_555
C5 C4 1_555 1_555
H3 C5 1_555 1_555
H4 C5 1_555 1_555
C6 C5 1_555 1_555
C7 N2 1_555 1_555
H5 C7 1_555 1_555
H6 C7 1_555 1_555
C8 C7 1_555 1_555
H7 C8 1_555 1_555
H8 C8 1_555 1_555
C9 C8 1_555 1_555
C10 N3 1_555 1_555
H9 C10 1_555 1_555
H10 C10 1_555 1_555
C11 C10 1_555 1_555
H11 C11 1_555 1_555
H12 C11 1_555 1_555
C12 C11 1_555 1_555
Gd1C O5 1_555 1_555
Gd1A O6 1_555 1_555
Gd1B O7 1_555 1_555
Gd1B_2 O8 1_555 1_555
Gd1A_2 O8 1_555 1_555
O5C Gd1 1_555 1_555
O6A Gd1 1_555 1_555
O7B Gd1 1_555 1_555
O7A Gd1 1_555 1_555
O8B Gd1 1_555 1_555
O8A Gd1 1_555 1_555
O9A Gd1 1_555 1_555
O7 Gd1A 1_555 1_555
O9 Gd1A_2 1_555 1_555
N3 C3 1_555 1_555
Gd1C O7A 1_555 1_555
Gd1C O8B 1_555 1_555

#END
