
#######################################################################
#
#                 Cambridge Crystallographic Data Centre
#                                CCDC 
#
#######################################################################
#
# If this CIF has been generated from an entry in the Cambridge 
# Structural Database, then it will include bibliographic, chemical, 
# crystal, experimental, refinement or atomic coordinate data resulting 
# from the CCDC's data processing and validation procedures.
#
#######################################################################

data_KOCCUC
_symmetry_cell_setting           triclinic
_symmetry_space_group_name_H-M   'P -1'
_symmetry_Int_Tables_number      2
_space_group_name_Hall           '-P 1'
loop_
_symmetry_equiv_pos_site_id
_symmetry_equiv_pos_as_xyz
1 x,y,z
2 -x,-y,-z
_cell_length_a                   9.3028(5)
_cell_length_b                   14.9043(7)
_cell_length_c                   15.2092(7)
_cell_angle_alpha                70.594(4)
_cell_angle_beta                 83.472(4)
_cell_angle_gamma                84.978(4)
_cell_volume                     1973.29
loop_
_atom_site_label
_atom_site_type_symbol
_atom_site_fract_x
_atom_site_fract_y
_atom_site_fract_z
Cd1 Cd 0.5000 0.5000 0.0000
Cd2 Cd 0.65692(3) -0.278677(16) 1.034721(14)
O1 O 0.4692(3) -0.18015(19) 0.9624(2)
O2 O 0.6742(3) -0.11386(18) 0.95700(19)
O3 O -0.3258(3) 0.61568(19) 0.94734(17)
O4 O -0.1322(3) 0.6886(2) 0.9464(2)
O5 O 0.5235(3) 0.49959(17) 0.14368(15)
O6 O 0.5094(3) 0.64498(19) 0.15702(17)
O7 O 0.6730(4) 0.3812(2) 0.0316(2)
N1 N 0.1625(4) 0.2756(2) 0.8704(2)
H1 H 0.1972 0.2205 0.9024
H2 H 0.1049 0.3085 0.8978
C1 C 0.3559(4) 0.1643(3) 0.7811(2)
C2 C 0.4787(4) -0.0123(2) 0.8833(2)
C3 C 0.4451(4) 0.5144(2) 0.2911(2)
C4 C -0.1909(4) 0.6278(2) 0.9242(2)
C5 C 0.5467(4) -0.1068(2) 0.9367(2)
C6 C 0.0595(4) 0.4644(2) 0.7708(2)
C7 C 0.1927(4) 0.4420(2) 0.6263(2)
H3 H 0.1559 0.5020 0.5922
C8 C 0.3426(4) 0.5328(2) 0.4374(2)
H4 H 0.3089 0.5724 0.4722
C9 C 0.2888(4) 0.3915(2) 0.5801(2)
C10 C 0.5612(4) 0.0664(3) 0.8519(3)
H5 H 0.6577 0.0606 0.8647
C11 C 0.3938(4) 0.5723(2) 0.3444(2)
H6 H 0.3940 0.6382 0.3173
C12 C -0.1052(4) 0.5724(3) 0.8696(2)
C13 C 0.2940(4) 0.2593(3) 0.7273(2)
C14 C 0.3410(4) 0.4338(2) 0.4797(2)
C15 C 0.5004(5) 0.1548(3) 0.8011(3)
H7 H 0.5564 0.2078 0.7804
C16 C 0.4963(4) 0.5561(2) 0.1894(2)
C17 C 0.3384(4) 0.3002(3) 0.6321(2)
H8 H 0.4029 0.2656 0.6027
C18 C 0.2007(4) 0.3126(2) 0.7716(2)
C19 C 0.4470(4) 0.4166(3) 0.3327(2)
H9 H 0.4828 0.3772 0.2980
C20 C 0.3336(4) -0.0030(3) 0.8644(3)
H10 H 0.2771 -0.0558 0.8858
C21 C 0.3957(4) 0.3768(3) 0.4257(2)
H11 H 0.3979 0.3109 0.4527
C22 C 0.1504(4) 0.4056(2) 0.7213(2)
C23 C 0.0423(4) 0.5581(3) 0.8760(3)
H12 H 0.0875 0.5851 0.9119
C24 C 0.2742(4) 0.0845(3) 0.8141(3)
H13 H 0.1774 0.0901 0.8021
C25 C -0.1701(5) 0.5384(4) 0.8116(3)
H14 H -0.2691 0.5501 0.8060
C26 C -0.0880(4) 0.4861(4) 0.7611(3)
H15 H -0.1324 0.4653 0.7201
C27 C 0.1227(4) 0.5028(3) 0.8281(3)
H16 H 0.2215 0.4913 0.8344
Cd2A Cd -0.65692(3) 1.278677(16) -0.034721(14)
O1A O -0.4692(3) 1.18015(19) 0.0376(2)
O2A O -0.6742(3) 1.11386(18) 0.04300(19)
O3A O 0.3258(3) 0.38432(19) 0.05266(17)
O4A O 0.1322(3) 0.3114(2) 0.0536(2)
O5A O -0.5235(3) 0.50041(17) 0.85632(15)
O6A O -0.5094(3) 0.35502(19) 0.84298(17)
N1A N -0.1625(4) 0.7244(2) 0.1296(2)
H1A H -0.1972 0.7795 0.0976
H2A H -0.1049 0.6915 0.1022
C1A C -0.3559(4) 0.8357(3) 0.2189(2)
C2A C -0.4787(4) 1.0123(2) 0.1167(2)
C3A C -0.4451(4) 0.4856(2) 0.7089(2)
C4A C 0.1909(4) 0.3722(2) 0.0758(2)
C5A C -0.5467(4) 1.1068(2) 0.0633(2)
C6A C -0.0595(4) 0.5356(2) 0.2292(2)
C7A C -0.1927(4) 0.5580(2) 0.3737(2)
H3A H -0.1559 0.4980 0.4078
C8A C -0.3426(4) 0.4672(2) 0.5626(2)
H4A H -0.3089 0.4276 0.5278
C9A C -0.2888(4) 0.6085(2) 0.4199(2)
C10A C -0.5612(4) 0.9336(3) 0.1481(3)
H5A H -0.6577 0.9394 0.1353
C11A C -0.3938(4) 0.4277(2) 0.6556(2)
H6A H -0.3940 0.3618 0.6827
C12A C 0.1052(4) 0.4276(3) 0.1304(2)
C13A C -0.2940(4) 0.7407(3) 0.2727(2)
C14A C -0.3410(4) 0.5662(2) 0.5203(2)
C15A C -0.5004(5) 0.8452(3) 0.1989(3)
H7A H -0.5564 0.7922 0.2196
C16A C -0.4963(4) 0.4439(2) 0.8106(2)
C17A C -0.3384(4) 0.6998(3) 0.3679(2)
H8A H -0.4029 0.7344 0.3973
C18A C -0.2007(4) 0.6874(2) 0.2284(2)
C19A C -0.4470(4) 0.5834(3) 0.6673(2)
H9A H -0.4828 0.6228 0.7020
C20A C -0.3336(4) 1.0030(3) 0.1356(3)
H10A H -0.2771 1.0558 0.1142
C21A C -0.3957(4) 0.6232(3) 0.5743(2)
H11A H -0.3979 0.6891 0.5473
C22A C -0.1504(4) 0.5944(2) 0.2787(2)
C23A C -0.0423(4) 0.4419(3) 0.1240(3)
H12A H -0.0875 0.4149 0.0881
C24A C -0.2742(4) 0.9155(3) 0.1859(3)
H13A H -0.1774 0.9099 0.1979
C25A C 0.1701(5) 0.4616(4) 0.1884(3)
H14A H 0.2691 0.4499 0.1940
C26A C 0.0880(4) 0.5139(4) 0.2389(3)
H15A H 0.1324 0.5347 0.2799
C27A C -0.1227(4) 0.4972(3) 0.1719(3)
H16A H -0.2215 0.5087 0.1656
O7A O 0.3270(4) 0.6188(2) -0.0316(2)
Cd1_2 Cd -0.5000 0.5000 1.0000
Cd2_2 Cd -0.34308(3) 0.721323(16) 0.034721(14)
Cd2_3 Cd -0.34308(3) 0.721323(16) 1.034721(14)
Cd2_4 Cd 0.65692(3) 0.721323(16) 0.034721(14)
Cd2A_2 Cd -0.65692(3) 0.278677(16) 0.965279(14)
Cd2A_3 Cd 0.34308(3) 0.278677(16) -0.034721(14)
Cd2A_4 Cd 0.34308(3) 0.278677(16) 0.965279(14)
O3_2 O 0.6742(3) -0.38432(19) 0.94734(17)
O3_3 O 0.6742(3) 0.61568(19) -0.05266(17)
O3A_2 O -0.6742(3) 1.38432(19) 0.05266(17)
O4_2 O 0.8678(3) -0.3114(2) 0.9464(2)
O4A_2 O -0.8678(3) 1.3114(2) 0.0536(2)
O5A_2 O 0.4765(3) 0.50041(17) -0.14368(15)
O6_2 O 0.5094(3) -0.35502(19) 1.15702(17)
O6A_2 O -0.5094(3) 1.35502(19) -0.15702(17)
N1_2 N -0.8375(4) 1.2756(2) -0.1296(2)
N1A_2 N 0.8375(4) -0.2756(2) 1.1296(2)
loop_
_geom_bond_atom_site_label_1
_geom_bond_atom_site_label_2
_geom_bond_site_symmetry_1
_geom_bond_site_symmetry_2
Cd1 O5 1_555 1_555
Cd2 O1 1_555 1_555
O1 C5 1_555 1_555
O2 Cd2 1_555 1_555
O3 C4 1_555 1_555
O4 C4 1_555 1_555
O5 C16 1_555 1_555
O6 C16 1_555 1_555
O7 Cd1 1_555 1_555
N1 H1 1_555 1_555
H2 N1 1_555 1_555
C1 C13 1_555 1_555
C2 C5 1_555 1_555
C3 C11 1_555 1_555
C4 C12 1_555 1_555
C5 O2 1_555 1_555
C6 C22 1_555 1_555
C7 H3 1_555 1_555
C8 H4 1_555 1_555
C9 C7 1_555 1_555
C10 C2 1_555 1_555
H5 C10 1_555 1_555
C11 C8 1_555 1_555
H6 C11 1_555 1_555
C12 C23 1_555 1_555
C13 C17 1_555 1_555
C14 C8 1_555 1_555
C15 C1 1_555 1_555
H7 C15 1_555 1_555
C16 C3 1_555 1_555
C17 C9 1_555 1_555
H8 C17 1_555 1_555
C18 N1 1_555 1_555
C19 C3 1_555 1_555
H9 C19 1_555 1_555
C20 C2 1_555 1_555
H10 C20 1_555 1_555
C21 C14 1_555 1_555
H11 C21 1_555 1_555
C22 C7 1_555 1_555
C23 H12 1_555 1_555
C24 C1 1_555 1_555
H13 C24 1_555 1_555
C25 C12 1_555 1_555
H14 C25 1_555 1_555
C26 C6 1_555 1_555
H15 C26 1_555 1_555
C27 C6 1_555 1_555
H16 C27 1_555 1_555
Cd2A O1A 1_555 1_555
O1A C5A 1_555 1_555
O2A Cd2A 1_555 1_555
O3A Cd1 1_555 1_555
O4A C4A 1_555 1_555
O5A C16A 1_555 1_555
O6A C16A 1_555 1_555
N1A H1A 1_555 1_555
H2A N1A 1_555 1_555
C1A C13A 1_555 1_555
C2A C5A 1_555 1_555
C3A C11A 1_555 1_555
C4A O3A 1_555 1_555
C5A O2A 1_555 1_555
C6A C22A 1_555 1_555
C7A H3A 1_555 1_555
C8A H4A 1_555 1_555
C9A C7A 1_555 1_555
C10A C2A 1_555 1_555
H5A C10A 1_555 1_555
C11A C8A 1_555 1_555
H6A C11A 1_555 1_555
C12A C4A 1_555 1_555
C13A C17A 1_555 1_555
C14A C8A 1_555 1_555
C15A C1A 1_555 1_555
H7A C15A 1_555 1_555
C16A C3A 1_555 1_555
C17A C9A 1_555 1_555
H8A C17A 1_555 1_555
C18A N1A 1_555 1_555
C19A C3A 1_555 1_555
H9A C19A 1_555 1_555
C20A C2A 1_555 1_555
H10A C20A 1_555 1_555
C21A C14A 1_555 1_555
H11A C21A 1_555 1_555
C22A C7A 1_555 1_555
C23A C12A 1_555 1_555
H12A C23A 1_555 1_555
C24A C1A 1_555 1_555
H13A C24A 1_555 1_555
C25A C12A 1_555 1_555
H14A C25A 1_555 1_555
C26A C6A 1_555 1_555
H15A C26A 1_555 1_555
C27A C6A 1_555 1_555
H16A C27A 1_555 1_555
O7A Cd1 1_555 1_555
Cd1_2 O3 1_555 1_555
Cd2_2 N1A 1_555 1_555
Cd2_3 O3 1_555 1_555
Cd2_4 O6 1_555 1_555
Cd2A_2 O6A 1_555 1_555
Cd2A_3 O3A 1_555 1_555
Cd2A_4 N1 1_555 1_555
O3_2 Cd2 1_555 1_555
O3_3 Cd1 1_555 1_555
O3A_2 Cd2A 1_555 1_555
O4_2 Cd2 1_555 1_555
O4A_2 Cd2A 1_555 1_555
O5A_2 Cd1 1_555 1_555
O6_2 Cd2 1_555 1_555
O6A_2 Cd2A 1_555 1_555
N1_2 Cd2A 1_555 1_555
N1A_2 Cd2 1_555 1_555
O4 Cd2_3 1_555 1_555
C9 C14 1_555 1_555
C10 C15 1_555 1_555
C13 C18 1_555 1_555
C18 C22 1_555 1_555
C19 C21 1_555 1_555
C20 C24 1_555 1_555
C23 C27 1_555 1_555
C25 C26 1_555 1_555
O4A Cd2A_3 1_555 1_555
O5A Cd1_2 1_555 1_555
C9A C14A 1_555 1_555
C10A C15A 1_555 1_555
C13A C18A 1_555 1_555
C18A C22A 1_555 1_555
C19A C21A 1_555 1_555
C20A C24A 1_555 1_555
C23A C27A 1_555 1_555
C25A C26A 1_555 1_555
Cd2_4 O3_3 1_555 1_555

#END
