
#######################################################################
#
#                 Cambridge Crystallographic Data Centre
#                                CCDC 
#
#######################################################################
#
# If this CIF has been generated from an entry in the Cambridge 
# Structural Database, then it will include bibliographic, chemical, 
# crystal, experimental, refinement or atomic coordinate data resulting 
# from the CCDC's data processing and validation procedures.
#
#######################################################################

data_KOFVOS
_symmetry_cell_setting           monoclinic
_symmetry_space_group_name_H-M   'P 21/c'
_symmetry_Int_Tables_number      14
_space_group_name_Hall           '-P 2ybc'
loop_
_symmetry_equiv_pos_site_id
_symmetry_equiv_pos_as_xyz
1 x,y,z
2 -x,1/2+y,1/2-z
3 -x,-y,-z
4 x,1/2-y,1/2+z
_cell_length_a                   13.854(4)
_cell_length_b                   11.411(5)
_cell_length_c                   17.710(4)
_cell_angle_alpha                90
_cell_angle_beta                 128.109(13)
_cell_angle_gamma                90
_cell_volume                     2202.94
loop_
_atom_site_label
_atom_site_type_symbol
_atom_site_fract_x
_atom_site_fract_y
_atom_site_fract_z
Ni1 Ni 0.87858(12) 0.27598(13) 0.69859(10)
Ni2 Ni 0.0000 0.0000 0.0000
O1 O 0.1601(7) -0.0959(7) 0.0639(6)
O2 O -0.0747(7) 0.1385(7) 0.1180(6)
O3 O 0.0881(6) 0.0848(7) 0.1286(5)
O4 O -0.0831(7) 0.3060(7) 0.3251(5)
O5 O 0.0756(6) 0.3848(7) 0.4637(5)
O6 O 0.8529(7) 0.1187(8) 0.6275(6)
O7 O 0.7081(7) 0.0019(8) 0.5110(6)
O8 O 0.8210(6) 0.4316(7) 0.7256(5)
O9 O 0.6527(7) 0.5307(8) 0.6783(6)
N1 N 0.0608(7) 0.2250(8) 0.2890(6)
N2 N 0.6985(9) 0.2660(8) 0.6060(7)
C1 C 0.0397(9) 0.1288(9) 0.1617(7)
C2 C 0.0287(9) 0.3273(9) 0.3886(8)
C3 C 0.7425(10) 0.0889(10) 0.5627(8)
C4 C 0.7054(10) 0.4449(10) 0.6735(8)
C5 C 0.1217(10) 0.1797(10) 0.2605(8)
C6 C 0.2502(10) 0.1850(9) 0.3209(8)
H1 H 0.2948 0.1537 0.3011
C7 C 0.3117(10) 0.2379(9) 0.4117(8)
C8 C 0.2421(9) 0.2922(9) 0.4351(8)
H2 H 0.2812 0.3348 0.4933
C9 C 0.1151(10) 0.2825(9) 0.3715(8)
C10 C 0.6473(9) 0.1723(10) 0.5472(8)
C11 C 0.5221(9) 0.1624(10) 0.4826(8)
H3 H 0.4864 0.0963 0.4412
C12 C 0.4470(11) 0.2487(9) 0.4773(8)
C13 C 0.5033(10) 0.3466(11) 0.5385(8)
H4 H 0.4549 0.4083 0.5355
C14 C 0.6307(9) 0.3515(10) 0.6034(8)
Ni1B Ni -0.87858(12) -0.27598(13) -0.69859(10)
O1B O -0.1601(7) 0.0959(7) -0.0639(6)
O2B O 0.0747(7) -0.1385(7) -0.1180(6)
O3B O -0.0881(6) -0.0848(7) -0.1286(5)
O4B O 0.0831(7) -0.3060(7) -0.3251(5)
O5B O -0.0756(6) -0.3848(7) -0.4637(5)
O6B O -0.8529(7) -0.1187(8) -0.6275(6)
O7B O -0.7081(7) -0.0019(8) -0.5110(6)
O8B O -0.8210(6) -0.4316(7) -0.7256(5)
O9B O -0.6527(7) -0.5307(8) -0.6783(6)
N1B N -0.0608(7) -0.2250(8) -0.2890(6)
N2B N -0.6985(9) -0.2660(8) -0.6060(7)
C1B C -0.0397(9) -0.1288(9) -0.1617(7)
C2B C -0.0287(9) -0.3273(9) -0.3886(8)
C3B C -0.7425(10) -0.0889(10) -0.5627(8)
C4B C -0.7054(10) -0.4449(10) -0.6735(8)
C5B C -0.1217(10) -0.1797(10) -0.2605(8)
C6B C -0.2502(10) -0.1850(9) -0.3209(8)
H1B H -0.2948 -0.1537 -0.3011
C7B C -0.3117(10) -0.2379(9) -0.4117(8)
C8B C -0.2421(9) -0.2922(9) -0.4351(8)
H2B H -0.2812 -0.3348 -0.4933
C9B C -0.1151(10) -0.2825(9) -0.3715(8)
C10B C -0.6473(9) -0.1723(10) -0.5472(8)
C11B C -0.5221(9) -0.1624(10) -0.4826(8)
H3B H -0.4864 -0.0963 -0.4412
C12B C -0.4470(11) -0.2487(9) -0.4773(8)
C13B C -0.5033(10) -0.3466(11) -0.5385(8)
H4B H -0.4549 -0.4083 -0.5355
C14B C -0.6307(9) -0.3515(10) -0.6034(8)
Ni1A Ni 0.12142(12) -0.22402(13) -0.19859(10)
Ni1C Ni -0.12142(12) 0.22402(13) 0.19859(10)
Ni2A Ni 0.0000 -0.5000 -0.5000
Ni2A_2 Ni 0.0000 0.5000 0.5000
O2A O -0.9253(7) -0.3615(7) -0.6180(6)
O2C O 0.9253(7) 0.3615(7) 0.6180(6)
O4A O -0.9169(7) -0.1940(7) -0.8251(5)
O4C O 0.9169(7) 0.1940(7) 0.8251(5)
O5A O -0.0756(6) -0.1152(7) 0.0363(5)
O5C O 0.0756(6) 0.1152(7) -0.0363(5)
N1A N -1.0608(7) -0.2750(8) -0.7890(6)
N1C N 1.0608(7) 0.2750(8) 0.7890(6)
Ni3 Ni 0.0000 0.0000 0.5000
O10 O 0.1242(8) 0.1017(7) 0.5055(6)
O11 O 0.1318(7) -0.1313(7) 0.5817(6)
O12 O 0.0431(7) 0.0800(7) 0.6211(6)
O10B O -0.1242(8) -0.1017(7) 0.4945(6)
O11B O -0.1318(7) 0.1313(7) 0.4183(6)
O12B O -0.0431(7) -0.0800(7) 0.3789(6)
O13 O 0.3481(9) 0.0805(10) 0.1788(8)
O14 O 0.4898(11) 0.0867(12) 0.6661(9)
O15 O 0.3226(9) 0.1827(8) 0.6868(7)
O16 O 0.5907(9) 0.1003(10) 0.8991(8)
O17 O 0.6299(10) 0.3118(13) 0.8302(12)
loop_
_geom_bond_atom_site_label_1
_geom_bond_atom_site_label_2
_geom_bond_site_symmetry_1
_geom_bond_site_symmetry_2
Ni1 O6 1_555 1_555
Ni2 O1 1_555 1_555
O2 C1 1_555 1_555
O3 Ni2 1_555 1_555
O4 C2 1_555 1_555
O5 C2 1_555 1_555
O6 C3 1_555 1_555
O7 C3 1_555 1_555
O8 Ni1 1_555 1_555
O9 C4 1_555 1_555
N1 C5 1_555 1_555
N2 Ni1 1_555 1_555
C1 O3 1_555 1_555
C2 C9 1_555 1_555
C3 C10 1_555 1_555
C4 O8 1_555 1_555
C5 C1 1_555 1_555
C6 C5 1_555 1_555
H1 C6 1_555 1_555
C7 C6 1_555 1_555
C8 C7 1_555 1_555
H2 C8 1_555 1_555
C9 N1 1_555 1_555
C10 N2 1_555 1_555
C11 C10 1_555 1_555
H3 C11 1_555 1_555
C12 C7 1_555 1_555
C13 C12 1_555 1_555
H4 C13 1_555 1_555
C14 N2 1_555 1_555
Ni3 O10 1_555 1_555
O11 Ni3 1_555 1_555
O12 Ni3 1_555 1_555
Ni1B O6B 1_555 1_555
O1B Ni2 1_555 1_555
O2B C1B 1_555 1_555
O3B Ni2 1_555 1_555
O4B C2B 1_555 1_555
O5B C2B 1_555 1_555
O6B C3B 1_555 1_555
O7B C3B 1_555 1_555
O8B Ni1B 1_555 1_555
O9B C4B 1_555 1_555
N1B C5B 1_555 1_555
N2B Ni1B 1_555 1_555
C1B O3B 1_555 1_555
C2B C9B 1_555 1_555
C3B C10B 1_555 1_555
C4B O8B 1_555 1_555
C5B C1B 1_555 1_555
C6B C5B 1_555 1_555
H1B C6B 1_555 1_555
C7B C6B 1_555 1_555
C8B C7B 1_555 1_555
H2B C8B 1_555 1_555
C9B N1B 1_555 1_555
C10B N2B 1_555 1_555
C11B C10B 1_555 1_555
H3B C11B 1_555 1_555
C12B C7B 1_555 1_555
C13B C12B 1_555 1_555
H4B C13B 1_555 1_555
C14B N2B 1_555 1_555
Ni1A O2B 1_555 1_555
Ni1C O2 1_555 1_555
Ni2A O5B 1_555 1_555
Ni2A_2 O5 1_555 1_555
O2A Ni1B 1_555 1_555
O2C Ni1 1_555 1_555
O4A Ni1B 1_555 1_555
O4C Ni1 1_555 1_555
O5A Ni2 1_555 1_555
O5C Ni2 1_555 1_555
N1A Ni1B 1_555 1_555
N1C Ni1 1_555 1_555
O10B Ni3 1_555 1_555
O11B Ni3 1_555 1_555
O12B Ni3 1_555 1_555
O4 Ni1C 1_555 1_555
N1 Ni1C 1_555 1_555
C4 C14 1_555 1_555
C8 C9 1_555 1_555
C11 C12 1_555 1_555
C13 C14 1_555 1_555
O4B Ni1A 1_555 1_555
N1B Ni1A 1_555 1_555
C4B C14B 1_555 1_555
C8B C9B 1_555 1_555
C11B C12B 1_555 1_555
C13B C14B 1_555 1_555

#END
