
#######################################################################
#
#                 Cambridge Crystallographic Data Centre
#                                CCDC 
#
#######################################################################
#
# If this CIF has been generated from an entry in the Cambridge 
# Structural Database, then it will include bibliographic, chemical, 
# crystal, experimental, refinement or atomic coordinate data resulting 
# from the CCDC's data processing and validation procedures.
#
#######################################################################

data_KOGJOG
_symmetry_cell_setting           monoclinic
_symmetry_space_group_name_H-M   'P 21/n'
_symmetry_Int_Tables_number      14
_space_group_name_Hall           '-P 2yn'
loop_
_symmetry_equiv_pos_site_id
_symmetry_equiv_pos_as_xyz
1 x,y,z
2 1/2-x,1/2+y,1/2-z
3 -x,-y,-z
4 1/2+x,1/2-y,1/2+z
_cell_length_a                   8.6839(12)
_cell_length_b                   31.729(4)
_cell_length_c                   9.2922(13)
_cell_angle_alpha                90
_cell_angle_beta                 98.514(2)
_cell_angle_gamma                90
_cell_volume                     2532.08
loop_
_atom_site_label
_atom_site_type_symbol
_atom_site_fract_x
_atom_site_fract_y
_atom_site_fract_z
Gd1 Gd 0.43802(6) 1.216900(15) 0.79956(5)
Gd2 Gd 0.75468(6) 0.970197(17) 0.31338(7)
P1 P 0.7540(3) 1.22547(8) 0.5646(3)
P2 P 0.9237(4) 1.07511(9) 0.4372(3)
O1 O 0.6161(8) 1.2278(2) 0.6411(8)
O2 O 0.9091(9) 1.2248(2) 0.6785(8)
O3 O 0.7725(9) 1.2595(2) 0.4579(8)
O4 O 0.8558(10) 1.0356(2) 0.3707(11)
O5 O 0.9481(11) 1.1081(3) 0.3187(10)
H1 H 0.8678 1.1103 0.2605
O6 O 1.0742(10) 1.0720(3) 0.5373(10)
O7 O 0.3154(9) 1.2778(2) 0.6771(8)
O8 O 0.1304(8) 1.3009(2) 0.4997(8)
O9 O 0.2533(8) 1.1984(2) 0.5900(8)
O10 O 0.0822(8) 1.2221(2) 0.4030(7)
O11 O 0.4571(10) 1.0808(2) 0.6841(10)
O12 O 0.5332(8) 1.1468(2) 0.7321(8)
O13 O 0.2268(9) 1.0910(2) 0.8414(9)
O14 O 0.2992(9) 1.1578(2) 0.8842(8)
O15 O 0.6778(9) 0.9744(3) 0.5562(9)
O16 O 0.4851(10) 0.9908(3) 0.6841(9)
O17 O 0.6613(12) 0.9922(3) 0.0626(11)
H2 H 0.5629 0.9948 0.0515
H3 H 0.7025 1.0157 0.0467
O18 O 0.9868(11) 0.9760(3) 0.1958(12)
H4 H 0.9786 0.9594 0.1233
H5 H 0.9952 1.0012 0.1669
N1 N 0.7855(11) 1.1404(3) 0.5902(10)
H6 H 0.7090 1.1431 0.6468
C1 C 0.7546(12) 1.1747(3) 0.4775(11)
H7 H 0.6546 1.1698 0.4178
H8 H 0.8343 1.1741 0.4146
C2 C 0.7707(13) 1.0963(3) 0.5308(14)
H9 H 0.6738 1.0947 0.4640
H10 H 0.7602 1.0776 0.6113
C3 C 0.9355(13) 1.1472(3) 0.6910(13)
H11 H 1.0215 1.1485 0.6354
H12 H 0.9538 1.1239 0.7588
C4 C 0.9266(15) 1.1880(3) 0.7740(13)
H13 H 0.8389 1.1867 0.8275
H14 H 1.0205 1.1912 0.8440
C5 C 0.2116(12) 1.2729(3) 0.5701(12)
C6 C 0.1794(12) 1.2272(3) 0.5161(12)
C7 C 0.4435(13) 1.1157(4) 0.7388(12)
C8 C 0.3122(12) 1.1222(3) 0.8302(11)
C9 C 0.5475(13) 0.9902(3) 0.5694(13)
Gd1C Gd -0.06198(6) 1.283100(15) 1.29956(5)
Gd1C_2 Gd 0.93802(6) 1.283100(15) 0.29956(5)
Gd1C_3 Gd -0.06198(6) 1.283100(15) 0.29956(5)
Gd1C_4 Gd 0.93802(6) 1.283100(15) 1.29956(5)
Gd1B Gd 0.56198(6) 0.783100(15) 0.20044(5)
Gd2C Gd 0.25468(6) 1.529803(17) 0.81338(7)
Gd2B Gd 1.24532(6) 1.029803(17) 0.68662(7)
Gd2B_2 Gd 0.24532(6) 1.029803(17) 0.68662(7)
Gd2A Gd 0.74532(6) 1.470197(17) 1.18662(7)
P1C P 0.2540(3) 1.27453(8) 1.0646(3)
P2C P 0.4237(4) 1.42489(9) 0.9372(3)
O1C O 0.1161(8) 1.2722(2) 1.1411(8)
O2C O 0.4091(9) 1.2752(2) 1.1785(8)
O3C O 0.2725(9) 1.2405(2) 0.9579(8)
O3_2 O -0.2275(9) 1.2595(2) 1.4579(8)
O4C O 0.3558(10) 1.4644(2) 0.8707(11)
O5C O 0.4481(11) 1.3919(3) 0.8187(10)
H1C H 0.3678 1.3897 0.7605
O6C O 0.5742(10) 1.4280(3) 1.0373(10)
O6B O 0.9258(10) 0.9280(3) 0.4627(10)
O6A O 0.4258(10) 1.5720(3) 0.9627(10)
O7C O 0.8154(9) 1.2222(2) 1.1771(8)
O7C_2 O -0.1846(9) 1.2222(2) 1.1771(8)
O8C O 0.6304(8) 1.1991(2) 0.9997(8)
O8_2 O 0.1304(8) 1.3009(2) 1.4997(8)
O9C O 0.7533(8) 1.3016(2) 1.0900(8)
O9C_2 O -0.2467(8) 1.3016(2) 1.0900(8)
O10C O 0.5822(8) 1.2779(2) 0.9030(7)
O10_2 O 0.0822(8) 1.2221(2) 1.4030(7)
O11B O 0.5429(10) 0.9192(2) 0.3159(10)
O11A O 0.0429(10) 1.5808(2) 0.8159(10)
O12B O 0.4668(8) 0.8532(2) 0.2679(8)
O12C O 0.0332(8) 1.3532(2) 1.2321(8)
O13B O 0.7732(9) 0.9090(2) 0.1586(9)
O13A O 0.2732(9) 1.5910(2) 0.6586(9)
O14B O 0.7008(9) 0.8422(2) 0.1158(8)
O14C O -0.2008(9) 1.3422(2) 1.3842(8)
O15B O 0.3222(9) 1.0256(3) 0.4438(9)
O15C O 0.1778(9) 1.5256(3) 1.0562(9)
O16B O 0.5149(10) 1.0092(3) 0.3159(9)
O16A O 0.0149(10) 1.4908(3) 0.8159(9)
O17C O 0.1613(12) 1.5078(3) 0.5626(11)
H2C H 0.0629 1.5052 0.5515
H3C H 0.2025 1.4843 0.5467
O18C O 0.4868(11) 1.5240(3) 0.6958(12)
H4C H 0.4786 1.5406 0.6233
H5C H 0.4952 1.4988 0.6669
N1C N 0.2855(11) 1.3596(3) 1.0902(10)
H6C H 0.2090 1.3569 1.1468
C1C C 0.2546(12) 1.3253(3) 0.9775(11)
H7C H 0.1546 1.3302 0.9178
H8C H 0.3343 1.3259 0.9146
C2C C 0.2707(13) 1.4037(3) 1.0308(14)
H9C H 0.1738 1.4053 0.9640
H10C H 0.2602 1.4224 1.1113
C3C C 0.4355(13) 1.3528(3) 1.1910(13)
H11C H 0.5215 1.3515 1.1354
H12C H 0.4538 1.3761 1.2588
C4C C 0.4266(15) 1.3120(3) 1.2740(13)
H13C H 0.3389 1.3133 1.3275
H14C H 0.5205 1.3088 1.3440
C5C C 0.7116(12) 1.2271(3) 1.0701(12)
C6C C 0.6794(12) 1.2728(3) 1.0161(12)
C7B C 0.5565(13) 0.8843(4) 0.2612(12)
C8B C 0.6878(12) 0.8778(3) 0.1698(11)
C9B C 0.4525(13) 1.0098(3) 0.4306(13)
O19 O 0.1768(14) 0.0435(4) 0.1516(12)
H15 H 0.2379 0.0309 0.2177
H16 H 0.0840 0.0353 0.1536
O20 O 0.688(2) 1.1190(5) 0.1187(18)
H17 H 0.7359 1.0960 0.1411
H18 H 0.6081 1.1142 0.0564
O21 O 1.138(2) 1.1628(5) 1.1381(19)
H19 H 1.1350 1.1376 1.1680
H20 H 1.2038 1.1648 1.0793
O22 O 0.863(4) 1.0813(9) 0.966(3)
H21 H 0.8353 1.0685 1.0376
H22 H 0.8606 1.0644 0.8942
O23 O 1.392(4) 1.1211(10) 1.318(4)
H23 H 1.3831 1.0955 1.3430
H24 H 1.4637 1.1231 1.2652
loop_
_geom_bond_atom_site_label_1
_geom_bond_atom_site_label_2
_geom_bond_site_symmetry_1
_geom_bond_site_symmetry_2
Gd1 O1 1_555 1_555
Gd2 O4 1_555 1_555
P1 O1 1_555 1_555
P2 O4 1_555 1_555
O2 P1 1_555 1_555
O3 P1 1_555 1_555
O5 P2 1_555 1_555
H1 O5 1_555 1_555
O6 P2 1_555 1_555
O7 Gd1 1_555 1_555
O8 C5 1_555 1_555
O9 Gd1 1_555 1_555
O10 C6 1_555 1_555
O11 C7 1_555 1_555
O12 Gd1 1_555 1_555
O13 C8 1_555 1_555
O14 Gd1 1_555 1_555
O15 Gd2 1_555 1_555
O16 C9 1_555 1_555
O17 Gd2 1_555 1_555
H2 O17 1_555 1_555
H3 O17 1_555 1_555
O18 Gd2 1_555 1_555
H4 O18 1_555 1_555
H5 O18 1_555 1_555
N1 H6 1_555 1_555
C1 P1 1_555 1_555
H7 C1 1_555 1_555
H8 C1 1_555 1_555
C2 P2 1_555 1_555
H9 C2 1_555 1_555
H10 C2 1_555 1_555
C3 N1 1_555 1_555
H11 C3 1_555 1_555
H12 C3 1_555 1_555
C4 O2 1_555 1_555
H13 C4 1_555 1_555
H14 C4 1_555 1_555
C5 O7 1_555 1_555
C6 O9 1_555 1_555
C7 O12 1_555 1_555
C8 O14 1_555 1_555
C9 O15 1_555 1_555
O19 H15 1_555 1_555
H16 O19 1_555 1_555
O20 H17 1_555 1_555
H18 O20 1_555 1_555
O21 H19 1_555 1_555
H20 O21 1_555 1_555
O22 H21 1_555 1_555
H22 O22 1_555 1_555
O23 H23 1_555 1_555
H24 O23 1_555 1_555
Gd1C O1C 1_555 1_555
Gd1C_2 O3 1_555 1_555
Gd1C_3 O8 1_555 1_555
Gd1C_4 O7C 1_555 1_555
Gd1B O12B 1_555 1_555
Gd2C O4C 1_555 1_555
Gd2B O6 1_555 1_555
Gd2B_2 O11 1_555 1_555
Gd2A O6C 1_555 1_555
P1C O1C 1_555 1_555
P2C O4C 1_555 1_555
O2C P1C 1_555 1_555
O3C Gd1 1_555 1_555
O3_2 Gd1C 1_555 1_555
O5C P2C 1_555 1_555
H1C O5C 1_555 1_555
O6C P2C 1_555 1_555
O6B Gd2 1_555 1_555
O6A Gd2C 1_555 1_555
O7C C5C 1_555 1_555
O7C_2 Gd1C 1_555 1_555
O8C Gd1 1_555 1_555
O8_2 Gd1C 1_555 1_555
O9C Gd1C_4 1_555 1_555
O9C_2 Gd1C 1_555 1_555
O10C Gd1 1_555 1_555
O10_2 Gd1C 1_555 1_555
O11B Gd2 1_555 1_555
O11A Gd2C 1_555 1_555
O12B C7B 1_555 1_555
O12C Gd1C 1_555 1_555
O13B Gd2 1_555 1_555
O13A Gd2C 1_555 1_555
O14B Gd1B 1_555 1_555
O14C Gd1C 1_555 1_555
O15B Gd2B_2 1_555 1_555
O15C Gd2C 1_555 1_555
O16B Gd2 1_555 1_555
O16A Gd2C 1_555 1_555
O17C Gd2C 1_555 1_555
H2C O17C 1_555 1_555
H3C O17C 1_555 1_555
O18C Gd2C 1_555 1_555
H4C O18C 1_555 1_555
H5C O18C 1_555 1_555
N1C H6C 1_555 1_555
C1C P1C 1_555 1_555
H7C C1C 1_555 1_555
H8C C1C 1_555 1_555
C2C P2C 1_555 1_555
H9C C2C 1_555 1_555
H10C C2C 1_555 1_555
C3C N1C 1_555 1_555
H11C C3C 1_555 1_555
H12C C3C 1_555 1_555
C4C O2C 1_555 1_555
H13C C4C 1_555 1_555
H14C C4C 1_555 1_555
C5C O8C 1_555 1_555
C6C O9C 1_555 1_555
C7B O11B 1_555 1_555
C8B O13B 1_555 1_555
C9B C9 1_555 1_555
O10 Gd1C_3 1_555 1_555
O13 Gd2B_2 1_555 1_555
O16 Gd2B_2 1_555 1_555
N1 C1 1_555 1_555
N1 C2 1_555 1_555
C3 C4 1_555 1_555
C5 C6 1_555 1_555
C7 C8 1_555 1_555
P1C O3C 1_555 1_555
O10C C6C 1_555 1_555
O14B C8B 1_555 1_555
O15B C9B 1_555 1_555
O16B C9B 1_555 1_555
N1C C1C 1_555 1_555
N1C C2C 1_555 1_555
C3C C4C 1_555 1_555
C5C C6C 1_555 1_555
C7B C8B 1_555 1_555

#END
