
#######################################################################
#
#                 Cambridge Crystallographic Data Centre
#                                CCDC 
#
#######################################################################
#
# If this CIF has been generated from an entry in the Cambridge 
# Structural Database, then it will include bibliographic, chemical, 
# crystal, experimental, refinement or atomic coordinate data resulting 
# from the CCDC's data processing and validation procedures.
#
#######################################################################

data_KOSJIN
_symmetry_cell_setting           rhombohedral
_symmetry_space_group_name_H-M   'R 3 m'
_symmetry_Int_Tables_number      160
_space_group_name_Hall           'R 3 -2"'
loop_
_symmetry_equiv_pos_site_id
_symmetry_equiv_pos_as_xyz
1 x,y,z
2 -y,x-y,z
3 -x+y,-x,z
4 -x+y,y,z
5 -y,-x,z
6 x,x-y,z
7 1/3+x,2/3+y,2/3+z
8 1/3-y,2/3+x-y,2/3+z
9 1/3-x+y,2/3-x,2/3+z
10 1/3-x+y,2/3+y,2/3+z
11 1/3-y,2/3-x,2/3+z
12 1/3+x,2/3+x-y,2/3+z
13 2/3+x,1/3+y,1/3+z
14 2/3-y,1/3+x-y,1/3+z
15 2/3-x+y,1/3-x,1/3+z
16 2/3-x+y,1/3+y,1/3+z
17 2/3-y,1/3-x,1/3+z
18 2/3+x,1/3+x-y,1/3+z
_cell_length_a                   25.8521(18)
_cell_length_b                   25.8521
_cell_length_c                   6.7898(7)
_cell_angle_alpha                90
_cell_angle_beta                 90
_cell_angle_gamma                120
_cell_volume                     3929.88
loop_
_atom_site_label
_atom_site_type_symbol
_atom_site_fract_x
_atom_site_fract_y
_atom_site_fract_z
D1 D 0.2062(6) 0.2169(7) 0.0179(22)
D2 D 0.7784(22) 0.9460(20) 0.440(7)
C1 C 0.6571(9) 0.8745(9) -0.1618(33)
C2 C 0.6643(13) 0.8322(6) -0.246(5)
C3 C 0.6413(9) 0.8676(8) 0.0440(34)
C4 C 0.6324(7) 0.9091(8) 0.1650(27)
H1 H 0.6774(28) 0.8387(14) -0.406(11)
O1 O 0.6706(8) 0.9261(8) -0.2503(35)
O2 O 0.6524(10) 0.9635(10) 0.0909(32)
O3 O 0.6086(10) 0.8924(9) 0.3356(32)
C5 C 0.6275(12) 0.8138(6) 0.133(4)
H2 H 0.6154(25) 0.8077(13) 0.273(9)
Co1 Co 0.6280(19) 0.9553(31) -0.445(7)
C3E C 0.6413(9) 0.7737(12) 0.0440(34)
C4E C 0.6324(7) 0.7233(11) 0.1650(27)
O2E O 0.6524(10) 0.6889(14) 0.0909(32)
O3E O 0.6086(10) 0.7162(13) 0.3356(32)
C1E C 0.6571(9) 0.7826(13) -0.1618(33)
O1E O 0.6706(8) 0.7445(11) -0.2503(35)
Co1E Co 0.6280(19) 0.6727(36) -0.445(7)
O1H O 0.5888(11) 0.9961(8) -0.5836(35)
O1I O 0.5888(11) 0.5928(8) -0.5836(35)
O2H O 0.6444(14) 1.0143(10) -0.2424(32)
O2I O 0.6444(14) 0.6302(10) -0.2424(32)
O2M O 0.7032(10) 1.0222(14) -0.5758(32)
O2P O 0.7032(10) 0.6809(10) -0.5758(32)
O3_2 O 0.6086(10) 0.8924(9) -0.6644(32)
O3E_2 O 0.6086(10) 0.7162(13) -0.6644(32)
Co1_2 Co 0.6280(19) 0.9553(31) 0.555(7)
Co1E_2 Co 0.6280(19) 0.6727(36) 0.555(7)
Co1H Co 0.6606(36) 1.0387(19) -0.778(7)
Co1H_2 Co 0.6606(36) 1.0387(19) 0.222(7)
Co1I Co 0.6606(36) 0.6220(31) -0.778(7)
Co1I_2 Co 0.6606(36) 0.6220(31) 0.222(7)
Co1M Co 0.7114(31) 1.0060(36) -0.112(7)
Co1P Co 0.7114(31) 0.7053(19) -0.112(7)
loop_
_geom_bond_atom_site_label_1
_geom_bond_atom_site_label_2
_geom_bond_site_symmetry_1
_geom_bond_site_symmetry_2
C1 C2 1_555 1_555
C2 H1 1_555 1_555
C3 C1 1_555 1_555
C4 C3 1_555 1_555
O1 C1 1_555 1_555
O2 C4 1_555 1_555
O3 C4 1_555 1_555
C5 C3 1_555 1_555
H2 C5 1_555 1_555
Co1 O1 1_555 1_555
C3E C5 1_555 1_555
C4E C3E 1_555 1_555
O2E C4E 1_555 1_555
O3E C4E 1_555 1_555
C1E C2 1_555 1_555
O1E C1E 1_555 1_555
Co1E O1E 1_555 1_555
O1H Co1 1_555 1_555
O1I Co1E 1_555 1_555
O2H Co1 1_555 1_555
O2I Co1E 1_555 1_555
O2M Co1 1_555 1_555
O2P Co1E 1_555 1_555
O3_2 Co1 1_555 1_555
O3E_2 Co1E 1_555 1_555
Co1_2 O3 1_555 1_555
Co1E_2 O3E 1_555 1_555
Co1H Co1 1_555 1_555
Co1H_2 O2 1_555 1_555
Co1I Co1E 1_555 1_555
Co1I_2 O2E 1_555 1_555
Co1M O1 1_555 1_555
Co1P O2E 1_555 1_555
O2 Co1M 1_555 1_555
Co1 Co1M 1_555 1_555
C3E C1E 1_555 1_555
O1E Co1P 1_555 1_555
Co1E Co1P 1_555 1_555
O1H Co1H 1_555 1_555
O1I Co1I 1_555 1_555
O2H Co1M 1_555 1_555
O2I Co1P 1_555 1_555
O2M Co1H 1_555 1_555
O2P Co1I 1_555 1_555
Co1_2 Co1H_2 1_555 1_555
Co1E_2 Co1I_2 1_555 1_555
Co1H_2 Co1M 1_555 1_555
Co1I_2 Co1P 1_555 1_555

#END
