
#######################################################################
#
#                 Cambridge Crystallographic Data Centre
#                                CCDC 
#
#######################################################################
#
# If this CIF has been generated from an entry in the Cambridge 
# Structural Database, then it will include bibliographic, chemical, 
# crystal, experimental, refinement or atomic coordinate data resulting 
# from the CCDC's data processing and validation procedures.
#
#######################################################################

data_KOSKEK
_symmetry_cell_setting           rhombohedral
_symmetry_space_group_name_H-M   'R 3 m'
_symmetry_Int_Tables_number      160
_space_group_name_Hall           'R 3 -2"'
loop_
_symmetry_equiv_pos_site_id
_symmetry_equiv_pos_as_xyz
1 x,y,z
2 -y,x-y,z
3 -x+y,-x,z
4 -x+y,y,z
5 -y,-x,z
6 x,x-y,z
7 1/3+x,2/3+y,2/3+z
8 1/3-y,2/3+x-y,2/3+z
9 1/3-x+y,2/3-x,2/3+z
10 1/3-x+y,2/3+y,2/3+z
11 1/3-y,2/3-x,2/3+z
12 1/3+x,2/3+x-y,2/3+z
13 2/3+x,1/3+y,1/3+z
14 2/3-y,1/3+x-y,1/3+z
15 2/3-x+y,1/3-x,1/3+z
16 2/3-x+y,1/3+y,1/3+z
17 2/3-y,1/3-x,1/3+z
18 2/3+x,1/3+x-y,1/3+z
_cell_length_a                   25.8923(17)
_cell_length_b                   25.8923
_cell_length_c                   6.8115(6)
_cell_angle_alpha                90
_cell_angle_beta                 90
_cell_angle_gamma                120
_cell_volume                     3954.71
loop_
_atom_site_label
_atom_site_type_symbol
_atom_site_fract_x
_atom_site_fract_y
_atom_site_fract_z
D1 D 0.2088(7) 0.2169(7) 0.0037(23)
D2 D 0.7752(8) 0.9466(9) 0.4289(32)
D3 D 0.5789(7) 0.1578(14) 0.525(4)
D4 D 0.5855(6) 0.1711(13) 0.045(4)
C1 C 0.6593(10) 0.8766(10) -0.1634(33)
C2 C 0.6671(12) 0.8335(6) -0.248(5)
C3 C 0.6440(10) 0.8692(9) 0.0469(34)
C4 C 0.6365(8) 0.9117(9) 0.1632(29)
H1 H 0.6781(22) 0.8391(11) -0.417(9)
O1 O 0.6745(9) 0.9275(9) -0.2486(31)
O2 O 0.6533(9) 0.9635(10) 0.0923(29)
O3 O 0.6143(10) 0.8967(10) 0.3329(30)
C5 C 0.6290(12) 0.8145(6) 0.131(4)
H2 H 0.6151(22) 0.8076(11) 0.271(8)
Co1 Co 0.6292(20) 0.9564(31) -0.436(7)
C3E C 0.6440(10) 0.7748(13) 0.0469(34)
C4E C 0.6365(8) 0.7248(12) 0.1632(29)
O2E O 0.6533(9) 0.6898(13) 0.0923(29)
O3E O 0.6143(10) 0.7176(14) 0.3329(30)
C1E C 0.6593(10) 0.7827(14) -0.1634(33)
O1E O 0.6745(9) 0.7470(13) -0.2486(31)
Co1E Co 0.6292(20) 0.6728(37) -0.436(7)
O1H O 0.5863(13) 0.9922(9) -0.5819(31)
O1I O 0.5863(13) 0.5942(9) -0.5819(31)
O2H O 0.6435(13) 1.0134(9) -0.2410(29)
O2I O 0.6435(13) 0.6302(10) -0.2410(29)
O2M O 0.7032(10) 1.0231(13) -0.5744(29)
O2P O 0.7032(10) 0.6800(9) -0.5744(29)
O3_2 O 0.6143(10) 0.8967(10) -0.6671(30)
O3E_2 O 0.6143(10) 0.7176(14) -0.6671(30)
Co1_2 Co 0.6292(20) 0.9564(31) 0.564(7)
Co1E_2 Co 0.6292(20) 0.6728(37) 0.564(7)
Co1H Co 0.6605(37) 1.0375(20) -0.769(7)
Co1H_2 Co 0.6605(37) 1.0375(20) 0.231(7)
Co1I Co 0.6605(37) 0.6231(31) -0.769(7)
Co1I_2 Co 0.6605(37) 0.6231(31) 0.231(7)
Co1M Co 0.7103(31) 1.0061(37) -0.103(7)
Co1P Co 0.7103(31) 0.7041(20) -0.103(7)
loop_
_geom_bond_atom_site_label_1
_geom_bond_atom_site_label_2
_geom_bond_site_symmetry_1
_geom_bond_site_symmetry_2
C1 C2 1_555 1_555
C2 H1 1_555 1_555
C3 C1 1_555 1_555
C4 C3 1_555 1_555
O1 C1 1_555 1_555
O2 C4 1_555 1_555
O3 C4 1_555 1_555
C5 C3 1_555 1_555
H2 C5 1_555 1_555
Co1 O1 1_555 1_555
C3E C5 1_555 1_555
C4E C3E 1_555 1_555
O2E C4E 1_555 1_555
O3E C4E 1_555 1_555
C1E C2 1_555 1_555
O1E C1E 1_555 1_555
Co1E O1E 1_555 1_555
O1H Co1 1_555 1_555
O1I Co1E 1_555 1_555
O2H Co1 1_555 1_555
O2I Co1E 1_555 1_555
O2M Co1 1_555 1_555
O2P Co1E 1_555 1_555
O3_2 Co1 1_555 1_555
O3E_2 Co1E 1_555 1_555
Co1_2 O3 1_555 1_555
Co1E_2 O3E 1_555 1_555
Co1H Co1 1_555 1_555
Co1H_2 O2 1_555 1_555
Co1I Co1E 1_555 1_555
Co1I_2 O2E 1_555 1_555
Co1M O1 1_555 1_555
Co1P O2E 1_555 1_555
O2 Co1M 1_555 1_555
Co1 Co1M 1_555 1_555
C3E C1E 1_555 1_555
O1E Co1P 1_555 1_555
Co1E Co1P 1_555 1_555
O1H Co1H 1_555 1_555
O1I Co1I 1_555 1_555
O2H Co1M 1_555 1_555
O2I Co1P 1_555 1_555
O2M Co1H 1_555 1_555
O2P Co1I 1_555 1_555
Co1_2 Co1H_2 1_555 1_555
Co1E_2 Co1I_2 1_555 1_555
Co1H_2 Co1M 1_555 1_555
Co1I_2 Co1P 1_555 1_555

#END
