
#######################################################################
#
#                 Cambridge Crystallographic Data Centre
#                                CCDC 
#
#######################################################################
#
# If this CIF has been generated from an entry in the Cambridge 
# Structural Database, then it will include bibliographic, chemical, 
# crystal, experimental, refinement or atomic coordinate data resulting 
# from the CCDC's data processing and validation procedures.
#
#######################################################################

data_KUFTAI
_symmetry_cell_setting           monoclinic
_symmetry_space_group_name_H-M   'P 2/c'
_symmetry_Int_Tables_number      13
_space_group_name_Hall           '-P 2yc'
loop_
_symmetry_equiv_pos_site_id
_symmetry_equiv_pos_as_xyz
1 x,y,z
2 -x,y,1/2-z
3 -x,-y,-z
4 x,-y,1/2+z
_cell_length_a                   14.908(6)
_cell_length_b                   15.345(6)
_cell_length_c                   27.753(11)
_cell_angle_alpha                90
_cell_angle_beta                 90.424(6)
_cell_angle_gamma                90
_cell_volume                     6348.69
loop_
_atom_site_label
_atom_site_type_symbol
_atom_site_fract_x
_atom_site_fract_y
_atom_site_fract_z
C1 C 0.1636(3) 1.0477(3) 0.39804(16)
C2 C 0.1378(3) 1.0021(3) 0.35530(18)
H1 H 0.0955 1.0226 0.3322
C3 C 0.1810(4) 0.9275(3) 0.35255(18)
H2 H 0.1763 0.8855 0.3275
C4 C 0.2362(3) 0.9224(3) 0.39435(17)
C5 C 0.2885(3) 0.8520(3) 0.40716(17)
C6 C 0.3375(3) 0.8463(3) 0.44906(17)
C7 C 0.3854(4) 0.7707(3) 0.4649(2)
H3 H 0.3921 0.7179 0.4474
C8 C 0.4195(4) 0.7878(3) 0.50911(19)
H4 H 0.4533 0.7484 0.5284
C9 C 0.3965(3) 0.8742(3) 0.52193(17)
C10 C 0.4224(3) 0.9143(3) 0.56214(17)
C11 C 0.4059(3) 1.0053(3) 0.57172(16)
C12 C 0.4393(4) 1.0517(4) 0.61251(17)
H5 H 0.4739 1.0281 0.6382
C13 C 0.4129(4) 1.1349(4) 0.60798(19)
H6 H 0.4267 1.1814 0.6294
C14 C 0.3590(3) 1.1405(3) 0.56404(17)
C15 C 0.3153(3) 1.2137(3) 0.54897(17)
C16 C 0.2568(3) 1.2157(3) 0.51030(17)
C17 C 0.2051(4) 1.2900(3) 0.49592(19)
H7 H 0.2071 1.3464 0.5101
C18 C 0.1537(4) 1.2653(3) 0.45900(19)
H8 H 0.1115 1.3012 0.4425
C19 C 0.1722(3) 1.1755(3) 0.44803(18)
C20 C 0.1365(3) 1.1305(3) 0.40997(16)
C21 C 0.3119(3) 0.6256(3) 0.31697(16)
C22 C 0.2375(3) 0.6385(3) 0.3456(2)
H9 H 0.1909 0.5963 0.3459
C23 C 0.2310(4) 0.7121(4) 0.3733(2)
H10 H 0.1800 0.7194 0.3933
C24 C 0.2954(3) 0.7749(3) 0.37316(17)
C25 C 0.3661(3) 0.7632(3) 0.34386(18)
H11 H 0.4106 0.8074 0.3422
C26 C 0.3758(4) 0.6900(4) 0.31645(18)
H12 H 0.4273 0.6836 0.2968
C27 C 0.3247(4) 0.5425(3) 0.28895(17)
C28 C 0.5747(3) 0.7666(3) 0.66403(15)
C29 C 0.4829(3) 0.7641(3) 0.66471(16)
H13 H 0.4531 0.7287 0.6876
C30 C 0.4335(3) 0.8127(3) 0.63239(17)
H14 H 0.3698 0.8103 0.6334
C31 C 0.4741(3) 0.8644(3) 0.59893(16)
C32 C 0.5670(4) 0.8683(4) 0.6003(2)
H15 H 0.5968 0.9063 0.5787
C33 C 0.6173(3) 0.8195(4) 0.63169(18)
H16 H 0.6809 0.8223 0.6311
C34 C 0.6301(3) 0.7116(3) 0.69744(15)
C35 C 0.3558(3) 1.4446(3) 0.63617(15)
C36 C 0.4239(4) 1.4120(3) 0.60880(17)
H17 H 0.4811 1.4394 0.6092
C37 C 0.4091(4) 1.3370(4) 0.57972(18)
H18 H 0.4569 1.3155 0.5606
C38 C 0.3291(3) 1.2952(3) 0.57846(16)
C39 C 0.2609(4) 1.3304(4) 0.6061(2)
H19 H 0.2037 1.3031 0.6061
C40 C 0.2746(4) 1.4041(4) 0.63355(19)
H20 H 0.2258 1.4274 0.6512
C41 C 0.3693(4) 1.5207(3) 0.66825(16)
C42 C -0.0750(3) 1.2466(3) 0.32631(15)
C43 C 0.0141(3) 1.2691(3) 0.31938(16)
H21 H 0.0285 1.3112 0.2955
C44 C 0.0825(3) 1.2321(3) 0.34613(16)
H22 H 0.1429 1.2488 0.3403
C45 C 0.0644(3) 1.1713(3) 0.38104(14)
C46 C -0.0239(3) 1.1475(3) 0.38793(17)
H23 H -0.0374 1.1046 0.4115
C47 C -0.0939(3) 1.1846(3) 0.36128(18)
H24 H -0.1541 1.1676 0.3670
C48 C -0.1492(4) 1.2892(3) 0.29936(16)
Fe1 Fe 0.5000 0.55912(6) 0.7500
Fe2 Fe 0.73142(4) 0.62197(4) 0.75524(2)
Mn1 Mn 0.27614(4) 1.02189(4) 0.48830(2)
N1 N 0.2266(2) 0.9969(2) 0.42180(12)
N2 N 0.3451(2) 0.9100(2) 0.48522(13)
N3 N 0.3556(2) 1.0601(2) 0.54241(12)
N4 N 0.2365(2) 1.1452(2) 0.48083(12)
O1 O 0.3995(2) 0.53305(19) 0.26897(11)
O2 O 0.2585(2) 0.4896(2) 0.28633(12)
O3 O 0.59384(18) 0.66434(18) 0.73004(9)
O4 O 0.7136(2) 0.7124(2) 0.69435(11)
O5 O 0.4475(2) 1.54480(19) 0.67727(10)
O6 O 0.2988(2) 1.5560(2) 0.68396(11)
O7 O -0.13045(19) 1.3555(2) 0.27235(10)
O8 O -0.2271(2) 1.2619(2) 0.30287(11)
O9 O 0.1893(4) 0.9759(3) 0.52579(18)
C1A C 0.8364(3) 1.0477(3) 1.10196(16)
C2A C 0.8622(3) 1.0021(3) 1.14470(18)
H1A H 0.9045 1.0226 1.1678
C3A C 0.8190(4) 0.9275(3) 1.14745(18)
H2A H 0.8237 0.8855 1.1725
C4A C 0.7638(3) 0.9224(3) 1.10565(17)
C5A C 0.7115(3) 0.8520(3) 1.09284(17)
C6A C 0.6625(3) 0.8463(3) 1.05094(17)
C7A C 0.6146(4) 0.7707(3) 1.0351(2)
H3A H 0.6079 0.7179 1.0526
C8A C 0.5805(4) 0.7878(3) 0.99089(19)
H4A H 0.5467 0.7484 0.9716
C9A C 0.6035(3) 0.8742(3) 0.97807(17)
C10A C 0.5776(3) 0.9143(3) 0.93786(17)
C11A C 0.5941(3) 1.0053(3) 0.92828(16)
C12A C 0.5607(4) 1.0517(4) 0.88749(17)
H5A H 0.5261 1.0281 0.8618
C13A C 0.5871(4) 1.1349(4) 0.89202(19)
H6A H 0.5733 1.1814 0.8706
C14A C 0.6410(3) 1.1405(3) 0.93596(17)
C15A C 0.6847(3) 1.2137(3) 0.95103(17)
C16A C 0.7432(3) 1.2157(3) 0.98970(17)
C17A C 0.7949(4) 1.2900(3) 1.00408(19)
H7A H 0.7929 1.3464 0.9899
C18A C 0.8463(4) 1.2653(3) 1.04100(19)
H8A H 0.8885 1.3012 1.0575
C19A C 0.8278(3) 1.1755(3) 1.05197(18)
C20A C 0.8635(3) 1.1305(3) 1.09003(16)
C21A C 0.6881(3) 0.6256(3) 1.18303(16)
C22A C 0.7625(3) 0.6385(3) 1.1544(2)
H9A H 0.8091 0.5963 1.1541
C23A C 0.7690(4) 0.7121(4) 1.1267(2)
H10A H 0.8200 0.7194 1.1067
C24A C 0.7046(3) 0.7749(3) 1.12684(17)
C25A C 0.6339(3) 0.7632(3) 1.15614(18)
H11A H 0.5894 0.8074 1.1578
C26A C 0.6242(4) 0.6900(4) 1.18355(18)
H12A H 0.5727 0.6836 1.2032
C27A C 0.6753(4) 0.5425(3) 1.21105(17)
C28A C 0.4253(3) 0.7666(3) 0.83597(15)
C29A C 0.5171(3) 0.7641(3) 0.83529(16)
H13A H 0.5469 0.7287 0.8124
C30A C 0.5665(3) 0.8127(3) 0.86761(17)
H14A H 0.6302 0.8103 0.8666
C31A C 0.5259(3) 0.8644(3) 0.90107(16)
C32A C 0.4330(4) 0.8683(4) 0.8997(2)
H15A H 0.4032 0.9063 0.9213
C33A C 0.3827(3) 0.8195(4) 0.86831(18)
H16A H 0.3191 0.8223 0.8689
C34A C 0.3699(3) 0.7116(3) 0.80256(15)
C35A C 0.6442(3) 1.4446(3) 0.86383(15)
C36A C 0.5761(4) 1.4120(3) 0.89120(17)
H17A H 0.5189 1.4394 0.8908
C37A C 0.5909(4) 1.3370(4) 0.92028(18)
H18A H 0.5431 1.3155 0.9394
C38A C 0.6709(3) 1.2952(3) 0.92154(16)
C39A C 0.7391(4) 1.3304(4) 0.8939(2)
H19A H 0.7963 1.3031 0.8939
C40A C 0.7254(4) 1.4041(4) 0.86645(19)
H20A H 0.7742 1.4274 0.8488
C41A C 0.6307(4) 1.5207(3) 0.83175(16)
C42A C 1.0750(3) 1.2466(3) 1.17369(15)
C43A C 0.9859(3) 1.2691(3) 1.18062(16)
H21A H 0.9715 1.3112 1.2045
C44A C 0.9175(3) 1.2321(3) 1.15387(16)
H22A H 0.8571 1.2488 1.1597
C45A C 0.9356(3) 1.1713(3) 1.11896(14)
C46A C 1.0239(3) 1.1475(3) 1.11207(17)
H23A H 1.0374 1.1046 1.0885
C47A C 1.0939(3) 1.1846(3) 1.13872(18)
H24A H 1.1541 1.1676 1.1330
C48A C 1.1492(4) 1.2892(3) 1.20064(16)
Fe2A Fe 0.26858(4) 0.62197(4) 0.74476(2)
Mn1A Mn 0.72386(4) 1.02189(4) 1.01170(2)
N1A N 0.7734(2) 0.9969(2) 1.07820(12)
N2A N 0.6549(2) 0.9100(2) 1.01478(13)
N3A N 0.6444(2) 1.0601(2) 0.95759(12)
N4A N 0.7635(2) 1.1452(2) 1.01917(12)
O1A O 0.6005(2) 0.53305(19) 1.23103(11)
O2A O 0.7415(2) 0.4896(2) 1.21367(12)
O3A O 0.40616(18) 0.66434(18) 0.76996(9)
O4A O 0.2864(2) 0.7124(2) 0.80565(11)
O5A O 0.5525(2) 1.54480(19) 0.82273(10)
O6A O 0.7012(2) 1.5560(2) 0.81604(11)
O7A O 1.13045(19) 1.3555(2) 1.22765(10)
O8A O 1.2271(2) 1.2619(2) 1.19713(11)
O9A O 0.8107(4) 0.9759(3) 0.97421(18)
Fe1_2 Fe 0.5000 1.55912(6) 0.7500
Fe1B Fe 0.5000 0.44088(6) 0.2500
Fe1B_2 Fe 0.5000 0.44088(6) 1.2500
Fe2_2 Fe 0.73142(4) 1.62197(4) 0.75524(2)
Fe2A_2 Fe 0.26858(4) 1.62197(4) 0.74476(2)
Fe2B Fe 0.26858(4) 0.37803(4) 0.24476(2)
Fe2B_2 Fe 1.26858(4) 1.37803(4) 1.24476(2)
Fe2C Fe -0.26858(4) 1.37803(4) 0.25524(2)
Fe2C_2 Fe 0.73142(4) 0.37803(4) 1.25524(2)
O1B O 0.6005(2) 0.46695(19) 0.73103(11)
O1C O 0.3995(2) 0.46695(19) 0.76897(11)
O2B O 0.7415(2) 0.5104(2) 0.71367(12)
O2C O 0.2585(2) 0.5104(2) 0.78633(12)
O5_2 O 0.4475(2) 0.54480(19) 0.67727(10)
O5A_2 O 0.5525(2) 0.54480(19) 0.82273(10)
O6_2 O 0.2988(2) 0.5560(2) 0.68396(11)
O6A_2 O 0.7012(2) 0.5560(2) 0.81604(11)
O7B O 0.13045(19) 0.6445(2) 0.72765(10)
O7C O 0.86955(19) 0.6445(2) 0.77235(10)
O8B O 0.2271(2) 0.7381(2) 0.69713(11)
O8C O 0.7729(2) 0.7381(2) 0.80287(11)
loop_
_geom_bond_atom_site_label_1
_geom_bond_atom_site_label_2
_geom_bond_site_symmetry_1
_geom_bond_site_symmetry_2
C1 C2 1_555 1_555
C2 H1 1_555 1_555
C3 C2 1_555 1_555
H2 C3 1_555 1_555
C4 C3 1_555 1_555
C5 C4 1_555 1_555
C6 C5 1_555 1_555
C7 C6 1_555 1_555
H3 C7 1_555 1_555
C8 C7 1_555 1_555
H4 C8 1_555 1_555
C9 C8 1_555 1_555
C10 C9 1_555 1_555
C11 C10 1_555 1_555
C12 C11 1_555 1_555
H5 C12 1_555 1_555
C13 C12 1_555 1_555
H6 C13 1_555 1_555
C14 C13 1_555 1_555
C15 C14 1_555 1_555
C16 C15 1_555 1_555
C17 C16 1_555 1_555
H7 C17 1_555 1_555
C18 C17 1_555 1_555
H8 C18 1_555 1_555
C19 C18 1_555 1_555
C20 C1 1_555 1_555
C21 C22 1_555 1_555
C22 H9 1_555 1_555
C23 C22 1_555 1_555
H10 C23 1_555 1_555
C24 C5 1_555 1_555
C25 C24 1_555 1_555
H11 C25 1_555 1_555
C26 C21 1_555 1_555
H12 C26 1_555 1_555
C27 C21 1_555 1_555
C28 C29 1_555 1_555
C29 H13 1_555 1_555
C30 C29 1_555 1_555
H14 C30 1_555 1_555
C31 C10 1_555 1_555
C32 C31 1_555 1_555
H15 C32 1_555 1_555
C33 C28 1_555 1_555
H16 C33 1_555 1_555
C34 C28 1_555 1_555
C35 C36 1_555 1_555
C36 H17 1_555 1_555
C37 C36 1_555 1_555
H18 C37 1_555 1_555
C38 C15 1_555 1_555
C39 C38 1_555 1_555
H19 C39 1_555 1_555
C40 C35 1_555 1_555
H20 C40 1_555 1_555
C41 C35 1_555 1_555
C42 C43 1_555 1_555
C43 H21 1_555 1_555
C44 C43 1_555 1_555
H22 C44 1_555 1_555
C45 C20 1_555 1_555
C46 C45 1_555 1_555
H23 C46 1_555 1_555
C47 C42 1_555 1_555
H24 C47 1_555 1_555
C48 C42 1_555 1_555
Fe1 O3 1_555 1_555
Fe2 O3 1_555 1_555
Mn1 N1 1_555 1_555
N1 C1 1_555 1_555
N2 C6 1_555 1_555
N3 C11 1_555 1_555
N4 C16 1_555 1_555
O1 C27 1_555 1_555
O2 C27 1_555 1_555
O3 C34 1_555 1_555
O4 C34 1_555 1_555
O5 C41 1_555 1_555
O6 C41 1_555 1_555
O7 C48 1_555 1_555
O8 C48 1_555 1_555
O9 Mn1 1_555 1_555
C1A C2A 1_555 1_555
C2A H1A 1_555 1_555
C3A C2A 1_555 1_555
H2A C3A 1_555 1_555
C4A C3A 1_555 1_555
C5A C4A 1_555 1_555
C6A C5A 1_555 1_555
C7A C6A 1_555 1_555
H3A C7A 1_555 1_555
C8A C7A 1_555 1_555
H4A C8A 1_555 1_555
C9A C8A 1_555 1_555
C10A C9A 1_555 1_555
C11A C10A 1_555 1_555
C12A C11A 1_555 1_555
H5A C12A 1_555 1_555
C13A C12A 1_555 1_555
H6A C13A 1_555 1_555
C14A C13A 1_555 1_555
C15A C14A 1_555 1_555
C16A C15A 1_555 1_555
C17A C16A 1_555 1_555
H7A C17A 1_555 1_555
C18A C17A 1_555 1_555
H8A C18A 1_555 1_555
C19A C18A 1_555 1_555
C20A C1A 1_555 1_555
C21A C22A 1_555 1_555
C22A H9A 1_555 1_555
C23A C22A 1_555 1_555
H10A C23A 1_555 1_555
C24A C5A 1_555 1_555
C25A C24A 1_555 1_555
H11A C25A 1_555 1_555
C26A C21A 1_555 1_555
H12A C26A 1_555 1_555
C27A C21A 1_555 1_555
C28A C29A 1_555 1_555
C29A H13A 1_555 1_555
C30A C29A 1_555 1_555
H14A C30A 1_555 1_555
C31A C10A 1_555 1_555
C32A C31A 1_555 1_555
H15A C32A 1_555 1_555
C33A C28A 1_555 1_555
H16A C33A 1_555 1_555
C34A C28A 1_555 1_555
C35A C36A 1_555 1_555
C36A H17A 1_555 1_555
C37A C36A 1_555 1_555
H18A C37A 1_555 1_555
C38A C15A 1_555 1_555
C39A C38A 1_555 1_555
H19A C39A 1_555 1_555
C40A C35A 1_555 1_555
H20A C40A 1_555 1_555
C41A C35A 1_555 1_555
C42A C43A 1_555 1_555
C43A H21A 1_555 1_555
C44A C43A 1_555 1_555
H22A C44A 1_555 1_555
C45A C20A 1_555 1_555
C46A C45A 1_555 1_555
H23A C46A 1_555 1_555
C47A C42A 1_555 1_555
H24A C47A 1_555 1_555
C48A C42A 1_555 1_555
Fe2A O3A 1_555 1_555
Mn1A N1A 1_555 1_555
N1A C1A 1_555 1_555
N2A C6A 1_555 1_555
N3A C11A 1_555 1_555
N4A C16A 1_555 1_555
O1A C27A 1_555 1_555
O2A C27A 1_555 1_555
O3A Fe1 1_555 1_555
O4A C34A 1_555 1_555
O5A C41A 1_555 1_555
O6A C41A 1_555 1_555
O7A C48A 1_555 1_555
O8A C48A 1_555 1_555
O9A Mn1A 1_555 1_555
Fe1_2 O5 1_555 1_555
Fe1B O1 1_555 1_555
Fe1B_2 O1A 1_555 1_555
Fe2_2 O6A 1_555 1_555
Fe2A_2 O6 1_555 1_555
Fe2B O2 1_555 1_555
Fe2B_2 O7A 1_555 1_555
Fe2C O7 1_555 1_555
Fe2C_2 O2A 1_555 1_555
O1B Fe1 1_555 1_555
O1C Fe1 1_555 1_555
O2B Fe2 1_555 1_555
O2C Fe2A 1_555 1_555
O5_2 Fe1 1_555 1_555
O5A_2 Fe1 1_555 1_555
O6_2 Fe2A 1_555 1_555
O6A_2 Fe2 1_555 1_555
O7B Fe2A 1_555 1_555
O7C Fe2 1_555 1_555
O8B Fe2A 1_555 1_555
O8C Fe2 1_555 1_555
C4 N1 1_555 1_555
C9 N2 1_555 1_555
C14 N3 1_555 1_555
C19 C20 1_555 1_555
C19 N4 1_555 1_555
C23 C24 1_555 1_555
C25 C26 1_555 1_555
C30 C31 1_555 1_555
C32 C33 1_555 1_555
C37 C38 1_555 1_555
C39 C40 1_555 1_555
C44 C45 1_555 1_555
C46 C47 1_555 1_555
Fe2 O4 1_555 1_555
Mn1 N2 1_555 1_555
Mn1 N3 1_555 1_555
Mn1 N4 1_555 1_555
O8 Fe2C 1_555 1_555
C4A N1A 1_555 1_555
C9A N2A 1_555 1_555
C14A N3A 1_555 1_555
C19A C20A 1_555 1_555
C19A N4A 1_555 1_555
C23A C24A 1_555 1_555
C25A C26A 1_555 1_555
C30A C31A 1_555 1_555
C32A C33A 1_555 1_555
C34A O3A 1_555 1_555
C37A C38A 1_555 1_555
C39A C40A 1_555 1_555
C44A C45A 1_555 1_555
C46A C47A 1_555 1_555
Fe2A O4A 1_555 1_555
Mn1A N2A 1_555 1_555
Mn1A N3A 1_555 1_555
Mn1A N4A 1_555 1_555
O5A Fe1_2 1_555 1_555
O8A Fe2B_2 1_555 1_555

#END
