
#######################################################################
#
#                 Cambridge Crystallographic Data Centre
#                                CCDC 
#
#######################################################################
#
# If this CIF has been generated from an entry in the Cambridge 
# Structural Database, then it will include bibliographic, chemical, 
# crystal, experimental, refinement or atomic coordinate data resulting 
# from the CCDC's data processing and validation procedures.
#
#######################################################################

data_KUJTUG
_symmetry_cell_setting           trigonal
_symmetry_space_group_name_H-M   'P 31 2 1'
_symmetry_Int_Tables_number      152
_space_group_name_Hall           'P 31 2"'
loop_
_symmetry_equiv_pos_site_id
_symmetry_equiv_pos_as_xyz
1 x,y,z
2 -y,x-y,1/3+z
3 -x+y,-x,2/3+z
4 y,x,-z
5 -x,-x+y,1/3-z
6 x-y,-y,2/3-z
_cell_length_a                   13.9538(2)
_cell_length_b                   13.9538(2)
_cell_length_c                   24.9246(7)
_cell_angle_alpha                90
_cell_angle_beta                 90
_cell_angle_gamma                120
_cell_volume                     4202.85
loop_
_atom_site_label
_atom_site_type_symbol
_atom_site_fract_x
_atom_site_fract_y
_atom_site_fract_z
Zn1 Zn 1.14997(3) 0.69248(3) 0.046762(15)
Zn2 Zn 1.0000 0.70335(5) 0.1667
O1 O 1.0029(2) 0.6128(3) 0.10615(16)
O2 O 0.9773(2) 0.6060(3) 0.02073(16)
O3 O 0.2967(3) 0.6918(3) 0.07393(13)
O4 O 0.1610(2) 0.5467(3) 0.03872(14)
O5 O 0.1289(2) -0.1504(2) 0.16232(11)
O6 O 0.2058(3) -0.1668(2) 0.08817(12)
N1 N 0.4748(2) 0.3525(2) 0.10448(12)
N2 N 1.2038(2) 0.7683(2) -0.02652(11)
N3 N 1.3047(3) 0.9491(3) -0.16937(12)
C1 C 0.5896(3) 0.4061(3) 0.09372(14)
C2 C 0.6620(3) 0.4039(3) 0.13218(14)
H1 H 0.6345 0.3649 0.1640
C3 C 0.7737(3) 0.4600(3) 0.12235(14)
H2 H 0.8218 0.4589 0.1479
C4 C 0.8157(3) 0.5178(3) 0.07540(15)
C5 C 0.7446(3) 0.5179(4) 0.03729(17)
H3 H 0.7729 0.5553 0.0051
C6 C 0.6318(3) 0.4633(3) 0.04600(15)
H4 H 0.5845 0.4648 0.0201
C7 C 0.4179(3) 0.4113(3) 0.09403(13)
C8 C 0.4666(3) 0.5217(3) 0.10840(14)
H5 H 0.5349 0.5560 0.1256
C9 C 0.4145(3) 0.5803(3) 0.09734(13)
H6 H 0.4483 0.6547 0.1067
C10 C 0.3120(3) 0.5304(3) 0.07238(13)
C11 C 0.2637(3) 0.4194(3) 0.05866(14)
H7 H 0.1946 0.3846 0.0422
C12 C 0.3153(3) 0.3605(3) 0.06875(15)
H8 H 0.2821 0.2864 0.0588
C13 C 0.4153(3) 0.2373(3) 0.11480(13)
C14 C 0.3245(3) 0.1942(3) 0.14968(17)
H9 H 0.3087 0.2415 0.1691
C15 C 0.2586(3) 0.0811(3) 0.15507(16)
H10 H 0.1982 0.0526 0.1782
C16 C 0.2809(3) 0.0096(3) 0.12676(14)
C17 C 0.3748(3) 0.0530(3) 0.09571(16)
H11 H 0.3936 0.0055 0.0785
C18 C 0.4419(3) 0.1664(3) 0.08970(16)
H12 H 0.5051 0.1944 0.0685
C19 C 0.9378(3) 0.5814(4) 0.0660(2)
C20 C 0.2524(4) 0.5928(4) 0.06079(13)
C21 C 0.2001(3) -0.1121(3) 0.12560(14)
C22 C 1.2923(3) 0.8694(3) -0.02767(15)
H13 H 1.3313 0.8977 0.0041
C23 C 1.3298(3) 0.9348(3) -0.07292(14)
H14 H 1.3899 1.0064 -0.0716
C24 C 1.2751(3) 0.8903(3) -0.11960(14)
C25 C 1.1890(3) 0.7825(3) -0.12052(14)
H15 H 1.1545 0.7494 -0.1527
C26 C 1.1552(3) 0.7251(3) -0.07345(15)
H16 H 1.0958 0.6530 -0.0741
N2E N 1.4355(3) 1.2317(2) -0.30681(11)
N3E N 1.3556(4) 1.0509(3) -0.16396(12)
C22E C 1.4229(4) 1.1306(3) -0.30566(15)
H13E H 1.4336 1.1023 -0.3374
C23E C 1.3950(4) 1.0652(3) -0.26041(14)
H14E H 1.3835 0.9936 -0.2617
C24E C 1.3848(4) 1.1097(3) -0.21373(14)
C25E C 1.4065(4) 1.2175(3) -0.21281(14)
H15E H 1.4051 1.2506 -0.1806
C26E C 1.4301(4) 1.2749(3) -0.25988(15)
H16E H 1.4428 1.3470 -0.2592
Zn1D Zn 0.85003(3) 0.54251(4) 0.286571(15)
O1D O 0.9971(2) 0.6099(4) 0.22718(16)
O2D O 1.0227(2) 0.6287(4) 0.31260(16)
O3D O 1.7033(3) 1.3951(4) 0.25940(13)
O4D O 1.8390(2) 1.3857(4) 0.29461(14)
O5D O 1.8711(2) 0.7207(3) 0.17101(11)
O6D O 1.7942(3) 0.6274(4) 0.24516(12)
N1D N 1.5252(2) 0.8777(3) 0.22885(12)
C1D C 1.4104(3) 0.8165(4) 0.23961(14)
C2D C 1.3380(3) 0.7419(4) 0.20115(14)
H1D H 1.3655 0.7304 0.1693
C3D C 1.2263(3) 0.6863(4) 0.21098(14)
H2D H 1.1782 0.6371 0.1854
C4D C 1.1843(3) 0.7021(4) 0.25793(15)
C5D C 1.2554(3) 0.7733(5) 0.29604(17)
H3D H 1.2271 0.7824 0.3282
C6D C 1.3682(3) 0.8315(4) 0.28733(15)
H4D H 1.4155 0.8803 0.3132
C7D C 1.5821(3) 0.9934(4) 0.23930(13)
C8D C 1.5334(3) 1.0551(4) 0.22493(14)
H5D H 1.4651 1.0211 0.2077
C9D C 1.5855(3) 1.1658(4) 0.23599(13)
H6D H 1.5517 1.2064 0.2266
C10D C 1.6880(3) 1.2184(4) 0.26095(13)
C11D C 1.7363(3) 1.1557(4) 0.27467(14)
H7D H 1.8054 1.1900 0.2911
C12D C 1.6847(3) 1.0452(4) 0.26458(15)
H8D H 1.7179 1.0043 0.2745
C13D C 1.5847(3) 0.8220(4) 0.21853(13)
C14D C 1.6755(3) 0.8697(4) 0.18365(17)
H9D H 1.6913 0.9328 0.1642
C15D C 1.7414(3) 0.8225(4) 0.17826(16)
H10D H 1.8018 0.8544 0.1551
C16D C 1.7191(3) 0.7287(4) 0.20657(14)
C17D C 1.6252(3) 0.6782(4) 0.23762(16)
H11D H 1.6064 0.6119 0.2548
C18D C 1.5581(3) 0.7245(4) 0.24363(16)
H12D H 1.4949 0.6893 0.2648
C19D C 1.0622(3) 0.6436(5) 0.2673(2)
C20D C 1.7476(4) 1.3404(6) 0.27254(13)
C21D C 1.7999(3) 0.6878(4) 0.20773(14)
Zn1_2 Zn 0.14997(3) -0.30752(3) 0.046762(15)
Zn1_3 Zn 0.14997(3) 0.69248(3) 0.046762(15)
Zn1D_2 Zn 1.85003(3) 0.54251(4) 0.286571(15)
Zn1D_3 Zn 1.85003(3) 1.54251(4) 0.286571(15)
Zn1E Zn 1.45749(4) 1.30752(3) -0.380095(15)
Zn2_2 Zn 0.0000 -0.29665(5) 0.1667
Zn2_3 Zn 2.0000 0.70335(5) 0.1667
O3_2 O 1.2967(3) 0.6918(3) 0.07393(13)
O3D_2 O 0.7033(3) 0.3951(4) 0.25940(13)
O4_2 O 1.1610(2) 0.5467(3) 0.03872(14)
O4D_2 O 0.8390(2) 0.3857(4) 0.29461(14)
O5_2 O 1.1289(2) 0.8496(2) 0.16232(11)
O5D_2 O 0.8711(2) 0.7207(3) 0.17101(11)
O6_2 O 1.2058(3) 0.8332(2) 0.08817(12)
O6D_2 O 0.7942(3) 0.6274(4) 0.24516(12)
N2D N 0.7962(2) 0.5645(3) 0.35985(11)
O7 O 0.5057(5) 0.8932(5) 0.0813(2)
loop_
_geom_bond_atom_site_label_1
_geom_bond_atom_site_label_2
_geom_bond_site_symmetry_1
_geom_bond_site_symmetry_2
Zn1 O1 1_555 1_555
Zn2 O1 1_555 1_555
O1 C19 1_555 1_555
O2 Zn1 1_555 1_555
O3 C20 1_555 1_555
O4 C20 1_555 1_555
O5 C21 1_555 1_555
O6 C21 1_555 1_555
N1 C1 1_555 1_555
N2 Zn1 1_555 1_555
N3 C24 1_555 1_555
C1 C2 1_555 1_555
C2 H1 1_555 1_555
C3 C2 1_555 1_555
H2 C3 1_555 1_555
C4 C3 1_555 1_555
C5 C4 1_555 1_555
H3 C5 1_555 1_555
C6 C1 1_555 1_555
H4 C6 1_555 1_555
C7 N1 1_555 1_555
C8 C7 1_555 1_555
H5 C8 1_555 1_555
C9 C8 1_555 1_555
H6 C9 1_555 1_555
C10 C9 1_555 1_555
C11 C10 1_555 1_555
H7 C11 1_555 1_555
C12 C7 1_555 1_555
H8 C12 1_555 1_555
C13 N1 1_555 1_555
C14 C13 1_555 1_555
H9 C14 1_555 1_555
C15 C14 1_555 1_555
H10 C15 1_555 1_555
C16 C15 1_555 1_555
C17 C16 1_555 1_555
H11 C17 1_555 1_555
C18 C13 1_555 1_555
H12 C18 1_555 1_555
C19 O2 1_555 1_555
C20 C10 1_555 1_555
C21 C16 1_555 1_555
C22 N2 1_555 1_555
H13 C22 1_555 1_555
C23 C22 1_555 1_555
H14 C23 1_555 1_555
C24 C23 1_555 1_555
C25 C24 1_555 1_555
H15 C25 1_555 1_555
C26 N2 1_555 1_555
H16 C26 1_555 1_555
N2E C22E 1_555 1_555
N3E N3 1_555 1_555
C22E H13E 1_555 1_555
C23E C22E 1_555 1_555
H14E C23E 1_555 1_555
C24E N3E 1_555 1_555
C25E C24E 1_555 1_555
H15E C25E 1_555 1_555
C26E N2E 1_555 1_555
H16E C26E 1_555 1_555
Zn1D O1D 1_555 1_555
O1D Zn2 1_555 1_555
O2D Zn1D 1_555 1_555
O3D C20D 1_555 1_555
O4D C20D 1_555 1_555
O5D C21D 1_555 1_555
O6D C21D 1_555 1_555
N1D C1D 1_555 1_555
C1D C2D 1_555 1_555
C2D H1D 1_555 1_555
C3D C2D 1_555 1_555
H2D C3D 1_555 1_555
C4D C3D 1_555 1_555
C5D C4D 1_555 1_555
H3D C5D 1_555 1_555
C6D C1D 1_555 1_555
H4D C6D 1_555 1_555
C7D N1D 1_555 1_555
C8D C7D 1_555 1_555
H5D C8D 1_555 1_555
C9D C8D 1_555 1_555
H6D C9D 1_555 1_555
C10D C9D 1_555 1_555
C11D C10D 1_555 1_555
H7D C11D 1_555 1_555
C12D C7D 1_555 1_555
H8D C12D 1_555 1_555
C13D N1D 1_555 1_555
C14D C13D 1_555 1_555
H9D C14D 1_555 1_555
C15D C14D 1_555 1_555
H10D C15D 1_555 1_555
C16D C15D 1_555 1_555
C17D C16D 1_555 1_555
H11D C17D 1_555 1_555
C18D C13D 1_555 1_555
H12D C18D 1_555 1_555
C19D O1D 1_555 1_555
C20D C10D 1_555 1_555
C21D C16D 1_555 1_555
Zn1_2 O6 1_555 1_555
Zn1_3 O3 1_555 1_555
Zn1D_2 O6D 1_555 1_555
Zn1D_3 O3D 1_555 1_555
Zn1E N2E 1_555 1_555
Zn2_2 O5 1_555 1_555
Zn2_3 O5D 1_555 1_555
O3_2 Zn1 1_555 1_555
O3D_2 Zn1D 1_555 1_555
O4_2 Zn1 1_555 1_555
O4D_2 Zn1D 1_555 1_555
O5_2 Zn2 1_555 1_555
O5D_2 Zn2 1_555 1_555
O6_2 Zn1 1_555 1_555
O6D_2 Zn1D 1_555 1_555
N2D Zn1D 1_555 1_555
O4 Zn1_3 1_555 1_555
C4 C19 1_555 1_555
C5 C6 1_555 1_555
C11 C12 1_555 1_555
C17 C18 1_555 1_555
C25 C26 1_555 1_555
C23E C24E 1_555 1_555
C25E C26E 1_555 1_555
O2D C19D 1_555 1_555
O4D Zn1D_3 1_555 1_555
C4D C19D 1_555 1_555
C5D C6D 1_555 1_555
C11D C12D 1_555 1_555
C17D C18D 1_555 1_555

#END
