
#######################################################################
#
#                 Cambridge Crystallographic Data Centre
#                                CCDC 
#
#######################################################################
#
# If this CIF has been generated from an entry in the Cambridge 
# Structural Database, then it will include bibliographic, chemical, 
# crystal, experimental, refinement or atomic coordinate data resulting 
# from the CCDC's data processing and validation procedures.
#
#######################################################################

data_KUMBUR
_symmetry_cell_setting           triclinic
_symmetry_space_group_name_H-M   'P -1'
_symmetry_Int_Tables_number      2
_space_group_name_Hall           '-P 1'
loop_
_symmetry_equiv_pos_site_id
_symmetry_equiv_pos_as_xyz
1 x,y,z
2 -x,-y,-z
_cell_length_a                   12.6080(2)
_cell_length_b                   14.21450(10)
_cell_length_c                   14.8980(5)
_cell_angle_alpha                69.321(11)
_cell_angle_beta                 67.503(12)
_cell_angle_gamma                78.329(15)
_cell_volume                     2300.88
loop_
_atom_site_label
_atom_site_type_symbol
_atom_site_fract_x
_atom_site_fract_y
_atom_site_fract_z
Tb1 Tb 0.43554(2) 0.481388(18) 0.404049(19)
Tb2 Tb 0.94881(2) 0.946109(19) -0.093367(19)
O1 O 0.4447(4) 0.5087(3) 0.2230(4)
O2 O 1.0709(4) 0.8204(4) -0.1762(3)
O3 O 0.5306(4) 0.6044(3) 0.4406(3)
O4 O 0.8040(4) 0.9528(3) 0.0649(3)
O5 O 0.8700(4) 0.9880(4) 0.1683(4)
O6 O 1.3639(4) 0.5818(4) -0.3627(3)
O7 O 1.3082(4) 0.5623(4) -0.4808(4)
O8 O 0.9915(4) 0.9510(4) -0.2682(4)
O9 O 0.0368(4) 0.8554(4) 0.0252(4)
C1 C 0.5342(5) 0.6716(4) 0.3553(4)
O10 O 0.5070(5) 0.6545(4) 0.2910(4)
N1 N 0.2648(5) 0.3613(4) 0.5181(4)
O11 O 0.2875(4) 0.5597(5) 0.3296(4)
C2 C 0.6998(5) 0.9062(4) 0.2419(4)
C3 C 0.7996(5) 0.9530(4) 0.1510(5)
O12 O 0.1008(4) 0.8759(3) 0.1357(4)
N2 N 0.7529(5) 0.9756(5) -0.1255(4)
N3 N 0.8311(5) 0.7915(4) -0.0206(4)
C4 C 0.1726(5) 0.7303(4) 0.0827(4)
C5 C 0.5708(5) 0.7731(4) 0.3384(4)
C6 C 0.6590(5) 0.8182(4) 0.2504(4)
H1 H 0.6905 0.7896 0.1975
C7 C 0.2939(5) 0.5983(4) 0.1594(5)
C8 C 0.2174(5) 0.6828(4) 0.1619(4)
H2 H 0.1956 0.7083 0.2165
N4 N 0.4459(5) 0.3152(4) 0.3641(4)
C9 C 1.3041(5) 0.6071(5) -0.4200(5)
C10 C 1.1065(5) 0.8283(5) -0.3476(5)
C11 C 0.0980(5) 0.8268(4) 0.0819(4)
C12 C 0.5166(6) 0.8202(5) 0.4131(5)
H3 H 0.4568 0.7908 0.4712
C13 C 1.0526(5) 0.8689(5) -0.2588(5)
C14 C 0.6473(5) 0.9515(4) 0.3185(5)
H4 H 0.6761 1.0087 0.3145
C15 C 0.3457(5) 0.5524(4) 0.2422(5)
C16 C 1.1812(6) 0.7422(5) -0.3432(5)
H5 H 1.2020 0.7107 -0.2853
C17 C 0.2654(6) 0.2755(5) 0.4971(5)
C18 C 0.2009(6) 0.6902(5) 0.0035(5)
H6 H 0.1686 0.7203 -0.0477
C19 C 0.3251(6) 0.5595(5) 0.0782(5)
H7 H 0.3775 0.5033 0.0756
C20 C 0.2775(7) 0.6049(6) 0.0005(6)
H8 H 0.2971 0.5782 -0.0530
C21 C 0.3585(6) 0.2532(5) 0.4131(5)
C22 C 1.2257(5) 0.7021(5) -0.4241(5)
C23 C 0.6815(5) 0.8976(5) -0.0771(5)
C24 C 0.6475(7) 0.7233(6) 0.0303(6)
C25 C 0.7217(6) 0.8024(5) -0.0215(5)
C26 C 1.0776(7) 0.8772(5) -0.4357(5)
H9 H 1.0278 0.9353 -0.4391
C27 C 0.5521(6) 0.9118(5) 0.4008(5)
H10 H 0.5119 0.9466 0.4480
C28 C 0.1774(7) 0.2081(5) 0.5549(6)
C29 C 0.5317(7) 0.2948(5) 0.2858(6)
H11 H 0.5927 0.3359 0.2525
C30 C 0.5688(6) 0.9132(7) -0.0814(6)
C31 C 0.7146(7) 1.0643(6) -0.1780(7)
H12 H 0.7633 1.1165 -0.2122
C32 C 1.1229(8) 0.8391(6) -0.5182(6)
H13 H 1.1048 0.8721 -0.5772
C33 C 0.7976(8) 0.6199(6) 0.0877(7)
H14 H 0.8261 0.5589 0.1239
C34 C 0.3587(7) 0.1674(5) 0.3859(6)
C35 C 0.0908(7) 0.3154(7) 0.6595(6)
H15 H 0.0332 0.3318 0.7145
C36 C 0.1820(8) 0.1214(6) 0.5254(7)
H16 H 0.1246 0.0768 0.5636
C37 C 0.5351(8) 0.2150(6) 0.2509(7)
H17 H 0.5953 0.2054 0.1937
C38 C 0.1810(7) 0.3786(6) 0.5968(6)
H18 H 0.1810 0.4364 0.6125
C39 C 0.8670(7) 0.7018(5) 0.0332(6)
H19 H 0.9415 0.6932 0.0346
C40 C 0.0889(7) 0.2311(6) 0.6388(6)
H20 H 0.0299 0.1885 0.6793
C41 C 1.1949(7) 0.7517(6) -0.5111(5)
H21 H 1.2236 0.7252 -0.5654
C42 C 0.6906(8) 0.6309(6) 0.0866(7)
H22 H 0.6438 0.5774 0.1232
C43 C 0.6043(8) 1.0813(7) -0.1832(7)
H23 H 0.5817 1.1441 -0.2215
C44 C 0.2650(9) 0.1029(6) 0.4456(7)
H24 H 0.2633 0.0472 0.4274
C45 C 0.5344(8) 0.7399(9) 0.0248(8)
H25 H 0.4858 0.6877 0.0582
C46 C 0.4974(7) 0.8288(9) -0.0274(7)
H26 H 0.4231 0.8372 -0.0293
C47 C 0.4486(9) 0.1509(6) 0.3020(7)
H27 H 0.4503 0.0965 0.2805
C48 C 0.5297(8) 1.0096(8) -0.1345(8)
H28 H 0.4548 1.0227 -0.1355
Tb1_2 Tb 1.43554(2) 0.481388(18) -0.595951(19)
Tb1A Tb 0.56446(2) 0.518612(18) 0.595951(19)
Tb1A_2 Tb 1.56446(2) 0.518612(18) -0.404049(19)
Tb2_2 Tb -0.05119(2) 0.946109(19) -0.093367(19)
Tb2A Tb 0.05119(2) 1.053891(19) 0.093367(19)
Tb2A_2 Tb 1.05119(2) 1.053891(19) 0.093367(19)
O3A O 0.4694(4) 0.3956(3) 0.5594(3)
O5A O 1.1300(4) 1.0120(4) -0.1683(4)
O6A O 0.6361(4) 0.4182(4) 0.3627(3)
O7_2 O 0.3082(4) 0.5623(4) 0.5192(4)
O9_2 O 1.0368(4) 0.8554(4) 0.0252(4)
O12A O 0.8992(4) 1.1241(3) -0.1357(4)
N5 N 0.0898(8) 0.3877(7) 0.2591(7)
C49 C 0.0350(12) 0.4460(12) 0.2000(10)
H29 H 0.0522 0.4355 0.1376
O13 O -0.0382(10) 0.5146(9) 0.2192(9)
C50 C 0.0677(12) 0.4045(11) 0.3547(10)
H30 H 0.0086 0.4583 0.3629
H31 H 0.1369 0.4224 0.3553
H32 H 0.0430 0.3441 0.4097
C51 C 0.1755(14) 0.3112(13) 0.2308(15)
H33 H 0.1797 0.3084 0.1661
H34 H 0.1558 0.2473 0.2816
H35 H 0.2487 0.3265 0.2258
loop_
_geom_bond_atom_site_label_1
_geom_bond_atom_site_label_2
_geom_bond_site_symmetry_1
_geom_bond_site_symmetry_2
Tb1 O1 1_555 1_555
Tb2 O2 1_555 1_555
O1 C15 1_555 1_555
O2 C13 1_555 1_555
O3 Tb1 1_555 1_555
O4 Tb2 1_555 1_555
O5 C3 1_555 1_555
O6 C9 1_555 1_555
O7 C9 1_555 1_555
O8 Tb2 1_555 1_555
O9 C11 1_555 1_555
C1 O3 1_555 1_555
O10 Tb1 1_555 1_555
N1 Tb1 1_555 1_555
O11 Tb1 1_555 1_555
C2 C3 1_555 1_555
C3 O4 1_555 1_555
O12 C11 1_555 1_555
N2 Tb2 1_555 1_555
N3 Tb2 1_555 1_555
C4 C8 1_555 1_555
C5 C1 1_555 1_555
C6 C2 1_555 1_555
H1 C6 1_555 1_555
C7 C8 1_555 1_555
C8 H2 1_555 1_555
N4 Tb1 1_555 1_555
C9 C22 1_555 1_555
C10 C13 1_555 1_555
C11 C4 1_555 1_555
C12 C5 1_555 1_555
H3 C12 1_555 1_555
C13 O8 1_555 1_555
C14 C2 1_555 1_555
H4 C14 1_555 1_555
C15 O11 1_555 1_555
C16 C10 1_555 1_555
H5 C16 1_555 1_555
C17 N1 1_555 1_555
C18 C4 1_555 1_555
H6 C18 1_555 1_555
C19 C7 1_555 1_555
H7 C19 1_555 1_555
C20 C18 1_555 1_555
H8 C20 1_555 1_555
C21 N4 1_555 1_555
C22 C16 1_555 1_555
C23 N2 1_555 1_555
C24 C25 1_555 1_555
C25 N3 1_555 1_555
C26 C10 1_555 1_555
H9 C26 1_555 1_555
C27 C12 1_555 1_555
H10 C27 1_555 1_555
C28 C17 1_555 1_555
C29 N4 1_555 1_555
H11 C29 1_555 1_555
C30 C23 1_555 1_555
C31 N2 1_555 1_555
H12 C31 1_555 1_555
C32 C26 1_555 1_555
H13 C32 1_555 1_555
C33 H14 1_555 1_555
C34 C21 1_555 1_555
C35 H15 1_555 1_555
C36 C28 1_555 1_555
H16 C36 1_555 1_555
C37 C29 1_555 1_555
H17 C37 1_555 1_555
C38 N1 1_555 1_555
H18 C38 1_555 1_555
C39 N3 1_555 1_555
H19 C39 1_555 1_555
C40 C28 1_555 1_555
H20 C40 1_555 1_555
C41 C22 1_555 1_555
H21 C41 1_555 1_555
C42 C24 1_555 1_555
H22 C42 1_555 1_555
C43 C31 1_555 1_555
H23 C43 1_555 1_555
C44 C34 1_555 1_555
H24 C44 1_555 1_555
C45 C24 1_555 1_555
H25 C45 1_555 1_555
C46 C30 1_555 1_555
H26 C46 1_555 1_555
C47 C34 1_555 1_555
H27 C47 1_555 1_555
C48 C30 1_555 1_555
H28 C48 1_555 1_555
N5 C49 1_555 1_555
C49 H29 1_555 1_555
O13 C49 1_555 1_555
C50 N5 1_555 1_555
H30 C50 1_555 1_555
H31 C50 1_555 1_555
H32 C50 1_555 1_555
C51 N5 1_555 1_555
H33 C51 1_555 1_555
H34 C51 1_555 1_555
H35 C51 1_555 1_555
Tb1_2 O7 1_555 1_555
Tb1A O3 1_555 1_555
Tb1A_2 O6 1_555 1_555
Tb2_2 O9 1_555 1_555
Tb2A O12 1_555 1_555
Tb2A_2 O5 1_555 1_555
O3A Tb1 1_555 1_555
O5A Tb2 1_555 1_555
O6A Tb1 1_555 1_555
O7_2 Tb1 1_555 1_555
O9_2 Tb2 1_555 1_555
O12A Tb2 1_555 1_555
C1 O10 1_555 1_555
C5 C6 1_555 1_555
C7 C15 1_555 1_555
C14 C27 1_555 1_555
C17 C21 1_555 1_555
C19 C20 1_555 1_555
C23 C25 1_555 1_555
C32 C41 1_555 1_555
C33 C39 1_555 1_555
C33 C42 1_555 1_555
C35 C38 1_555 1_555
C35 C40 1_555 1_555
C36 C44 1_555 1_555
C37 C47 1_555 1_555
C43 C48 1_555 1_555
C45 C46 1_555 1_555
Tb1A O3A 1_555 1_555

#END
