
#######################################################################
#
#                 Cambridge Crystallographic Data Centre
#                                CCDC 
#
#######################################################################
#
# If this CIF has been generated from an entry in the Cambridge 
# Structural Database, then it will include bibliographic, chemical, 
# crystal, experimental, refinement or atomic coordinate data resulting 
# from the CCDC's data processing and validation procedures.
#
#######################################################################

data_KUNMUD
_symmetry_cell_setting           tetragonal
_symmetry_space_group_name_H-M   'P 43 21 2'
_symmetry_Int_Tables_number      96
_space_group_name_Hall           'P 4nw 2abw'
loop_
_symmetry_equiv_pos_site_id
_symmetry_equiv_pos_as_xyz
1 x,y,z
2 -x,-y,1/2+z
3 1/2-y,1/2+x,3/4+z
4 1/2+y,1/2-x,1/4+z
5 1/2-x,1/2+y,3/4-z
6 1/2+x,1/2-y,1/4-z
7 y,x,-z
8 -y,-x,1/2-z
_cell_length_a                   15.9333(6)
_cell_length_b                   15.9333(6)
_cell_length_c                   21.1312(14)
_cell_angle_alpha                90
_cell_angle_beta                 90
_cell_angle_gamma                90
_cell_volume                     5364.58
loop_
_atom_site_label
_atom_site_type_symbol
_atom_site_fract_x
_atom_site_fract_y
_atom_site_fract_z
B2 B 0.2143(11) 0.2435(9) 0.0040(9)
F4 F 0.2608(7) 0.2628(7) 0.0522(4)
F5 F 0.1737(5) 0.1737(5) 0.0000
F6 F 0.1554(15) 0.2983(15) -0.0028(16)
B2F B 0.2435(9) 0.2143(11) -0.0040(9)
F4F F 0.2628(7) 0.2608(7) -0.0522(4)
F6F F 0.2983(15) 0.1554(15) 0.0028(16)
C1 C 0.3019(7) 0.4306(7) 0.1900(5)
H1 H 0.3403 0.4379 0.1574
C2 C 0.2534(7) 0.4653(8) 0.2888(5)
H2 H 0.2575 0.4966 0.3259
C3 C 0.1881(7) 0.4104(8) 0.2826(5)
H3 H 0.1492 0.4058 0.3152
C4 C 0.1782(8) 0.3607(8) 0.2283(5)
C5 C 0.2389(7) 0.3749(7) 0.1816(5)
H4 H 0.2358 0.3453 0.1438
C6 C 0.1122(7) 0.2964(7) 0.2223(5)
C7 C 0.0373(8) 0.3004(8) 0.2580(6)
H5 H 0.0287 0.3449 0.2857
C8 C -0.0216(8) 0.2403(9) 0.2521(7)
H6 H -0.0708 0.2449 0.2756
C9 C -0.0112(9) 0.1710(9) 0.2117(5)
H7 H -0.0524 0.1299 0.2082
C10 C 0.0633(7) 0.1663(7) 0.1772(5)
C11 C 0.1228(7) 0.2276(7) 0.1828(5)
H8 H 0.1720 0.2230 0.1594
C12 C 0.0712(7) 0.0941(6) 0.1337(4)
C13 C 0.1231(7) -0.0033(7) 0.0702(4)
C14 C 0.1847(7) -0.0575(8) 0.0395(5)
C15 C 0.2171(9) -0.0369(9) -0.0207(5)
H9 H 0.1981 0.0102 -0.0425
C16 C 0.2782(8) -0.0888(9) -0.0466(5)
H10 H 0.3010 -0.0757 -0.0859
C17 C 0.3057(8) -0.1597(8) -0.0148(5)
H11 H 0.3455 -0.1943 -0.0336
C18 C 0.2746(7) -0.1800(7) 0.0449(5)
C19 C 0.2138(7) -0.1281(7) 0.0709(5)
H12 H 0.1921 -0.1410 0.1106
C20 C 0.3059(7) -0.2536(7) 0.0810(5)
C21 C 0.2623(8) -0.2825(8) 0.1348(5)
H13 H 0.2100 -0.2603 0.1451
C22 C 0.2986(8) -0.3452(8) 0.1727(6)
H14 H 0.2692 -0.3629 0.2083
C23 C 0.4101(7) -0.3578(7) 0.1067(5)
H15 H 0.4599 -0.3842 0.0955
C24 C 0.3772(7) -0.2955(7) 0.0668(5)
H16 H 0.4052 -0.2827 0.0295
Cd1 Cd -0.06023(4) -0.06023(4) 0.0000
N1 N 0.0396(6) -0.0076(6) 0.0684(4)
N2 N 0.0079(6) 0.0547(6) 0.1089(4)
N3 N 0.1448(5) 0.0594(6) 0.1110(4)
N4 N 0.2259(6) 0.0831(7) 0.1295(5)
H17 H 0.2557 0.0372 0.1379
H18 H 0.2503 0.1115 0.0982
N5 N 0.3120(6) 0.4763(6) 0.2437(4)
N6 N 0.3716(6) -0.3804(6) 0.1609(4)
C1F C 0.4306(7) 0.3019(7) -0.1900(5)
H1F H 0.4379 0.3403 -0.1574
C2F C 0.4653(8) 0.2534(7) -0.2888(5)
H2F H 0.4966 0.2575 -0.3259
C3F C 0.4104(8) 0.1881(7) -0.2826(5)
H3F H 0.4058 0.1492 -0.3152
C4F C 0.3607(8) 0.1782(8) -0.2283(5)
C5F C 0.3749(7) 0.2389(7) -0.1816(5)
H4F H 0.3453 0.2358 -0.1438
C6F C 0.2964(7) 0.1122(7) -0.2223(5)
C7F C 0.3004(8) 0.0373(8) -0.2580(6)
H5F H 0.3449 0.0287 -0.2857
C8F C 0.2403(9) -0.0216(8) -0.2521(7)
H6F H 0.2449 -0.0708 -0.2756
C9F C 0.1710(9) -0.0112(9) -0.2117(5)
H7F H 0.1299 -0.0524 -0.2082
C10F C 0.1663(7) 0.0633(7) -0.1772(5)
C11F C 0.2276(7) 0.1228(7) -0.1828(5)
H8F H 0.2230 0.1720 -0.1594
C12F C 0.0941(6) 0.0712(7) -0.1337(4)
C13F C -0.0033(7) 0.1231(7) -0.0702(4)
C14F C -0.0575(8) 0.1847(7) -0.0395(5)
C15F C -0.0369(9) 0.2171(9) 0.0207(5)
H9F H 0.0102 0.1981 0.0425
C16F C -0.0888(9) 0.2782(8) 0.0466(5)
H10F H -0.0757 0.3010 0.0859
C17F C -0.1597(8) 0.3057(8) 0.0148(5)
H11F H -0.1943 0.3455 0.0336
C18F C -0.1800(7) 0.2746(7) -0.0449(5)
C19F C -0.1281(7) 0.2138(7) -0.0709(5)
H12F H -0.1410 0.1921 -0.1106
C20F C -0.2536(7) 0.3059(7) -0.0810(5)
C21F C -0.2825(8) 0.2623(8) -0.1348(5)
H13F H -0.2603 0.2100 -0.1451
C22F C -0.3452(8) 0.2986(8) -0.1727(6)
H14F H -0.3629 0.2692 -0.2083
C23F C -0.3578(7) 0.4101(7) -0.1067(5)
H15F H -0.3842 0.4599 -0.0955
C24F C -0.2955(7) 0.3772(7) -0.0668(5)
H16F H -0.2827 0.4052 -0.0295
N1F N -0.0076(6) 0.0396(6) -0.0684(4)
N2F N 0.0547(6) 0.0079(6) -0.1089(4)
N3F N 0.0594(6) 0.1448(5) -0.1110(4)
N4F N 0.0831(7) 0.2259(6) -0.1295(5)
H17F H 0.0372 0.2557 -0.1379
H18F H 0.1115 0.2503 -0.0982
N5F N 0.4763(6) 0.3120(6) -0.2437(4)
N6F N -0.3804(6) 0.3716(6) -0.1609(4)
Cd1B Cd -0.43977(4) 0.43977(4) -0.2500
Cd1B_2 Cd 0.56023(4) 0.43977(4) -0.2500
Cd1C Cd 0.43977(4) -0.43977(4) 0.2500
Cd1C_2 Cd 0.43977(4) 0.56023(4) 0.2500
N5B N 0.0237(6) -0.1880(6) -0.0063(4)
N5E N -0.1880(6) 0.0237(6) 0.0063(4)
N6B N -0.1196(6) -0.1284(6) -0.0891(4)
N6E N -0.1284(6) -0.1196(6) 0.0891(4)
C25 C -0.011(2) 0.538(4) 0.419(3)
H19 H -0.0119 0.5311 0.4645
H20 H -0.0446 0.4951 0.4000
H21 H -0.0335 0.5922 0.4086
O1 O 0.074(2) 0.532(3) 0.397(2)
H22 H 0.0802 0.5623 0.3658
C26 C 0.852(4) 0.571(4) -0.004(2)
H23 H 0.8505 0.6314 -0.0089
H24 H 0.8036 0.5475 -0.0246
H25 H 0.9019 0.5499 -0.0237
O2 O 0.851(3) 0.550(3) 0.0622(19)
H26 H 0.8854 0.5790 0.0811
B1 B 0.6249(13) 0.6249(13) 0.0000
F1 F 0.6348(14) 0.5535(12) 0.0351(6)
F2 F 0.5936(10) 0.6649(15) 0.0537(7)
F3 F 0.7100(13) 0.6536(14) 0.0009(18)
F1F F 0.5535(12) 0.6348(14) -0.0351(6)
F2F F 0.6649(15) 0.5936(10) -0.0537(7)
F3F F 0.6536(14) 0.7100(13) -0.0009(18)
loop_
_geom_bond_atom_site_label_1
_geom_bond_atom_site_label_2
_geom_bond_site_symmetry_1
_geom_bond_site_symmetry_2
B1 F1 1_555 1_555
F2 B1 1_555 1_555
F3 B1 1_555 1_555
B2 F4 1_555 1_555
F4 B2F 1_555 1_555
F5 B2 1_555 1_555
F6 B2 1_555 1_555
C1 H1 1_555 1_555
C2 H2 1_555 1_555
C3 C2 1_555 1_555
H3 C3 1_555 1_555
C4 C3 1_555 1_555
C5 C1 1_555 1_555
H4 C5 1_555 1_555
C6 C4 1_555 1_555
C7 C6 1_555 1_555
H5 C7 1_555 1_555
C8 C7 1_555 1_555
H6 C8 1_555 1_555
C9 C8 1_555 1_555
H7 C9 1_555 1_555
C10 C9 1_555 1_555
C11 C6 1_555 1_555
H8 C11 1_555 1_555
C12 C10 1_555 1_555
C13 C14 1_555 1_555
C14 C15 1_555 1_555
C15 H9 1_555 1_555
C16 C15 1_555 1_555
H10 C16 1_555 1_555
C17 C16 1_555 1_555
H11 C17 1_555 1_555
C18 C17 1_555 1_555
C19 C14 1_555 1_555
H12 C19 1_555 1_555
C20 C18 1_555 1_555
C21 C20 1_555 1_555
H13 C21 1_555 1_555
C22 C21 1_555 1_555
H14 C22 1_555 1_555
C23 H15 1_555 1_555
C24 C20 1_555 1_555
H16 C24 1_555 1_555
Cd1 N1 1_555 1_555
N1 C13 1_555 1_555
N2 C12 1_555 1_555
N3 C12 1_555 1_555
N4 N3 1_555 1_555
H17 N4 1_555 1_555
H18 N4 1_555 1_555
N5 C1 1_555 1_555
N6 C22 1_555 1_555
C25 H19 1_555 1_555
H20 C25 1_555 1_555
H21 C25 1_555 1_555
O1 C25 1_555 1_555
H22 O1 1_555 1_555
C26 H23 1_555 1_555
H24 C26 1_555 1_555
H25 C26 1_555 1_555
O2 C26 1_555 1_555
H26 O2 1_555 1_555
F1F B1 1_555 1_555
F2F B1 1_555 1_555
F3F B1 1_555 1_555
B2F B2 1_555 1_555
F4F B2 1_555 1_555
F6F B2F 1_555 1_555
C1F H1F 1_555 1_555
C2F H2F 1_555 1_555
C3F C2F 1_555 1_555
H3F C3F 1_555 1_555
C4F C3F 1_555 1_555
C5F C1F 1_555 1_555
H4F C5F 1_555 1_555
C6F C4F 1_555 1_555
C7F C6F 1_555 1_555
H5F C7F 1_555 1_555
C8F C7F 1_555 1_555
H6F C8F 1_555 1_555
C9F C8F 1_555 1_555
H7F C9F 1_555 1_555
C10F C9F 1_555 1_555
C11F C6F 1_555 1_555
H8F C11F 1_555 1_555
C12F C10F 1_555 1_555
C13F C14F 1_555 1_555
C14F C15F 1_555 1_555
C15F H9F 1_555 1_555
C16F C15F 1_555 1_555
H10F C16F 1_555 1_555
C17F C16F 1_555 1_555
H11F C17F 1_555 1_555
C18F C17F 1_555 1_555
C19F C14F 1_555 1_555
H12F C19F 1_555 1_555
C20F C18F 1_555 1_555
C21F C20F 1_555 1_555
H13F C21F 1_555 1_555
C22F C21F 1_555 1_555
H14F C22F 1_555 1_555
C23F H15F 1_555 1_555
C24F C20F 1_555 1_555
H16F C24F 1_555 1_555
N1F Cd1 1_555 1_555
N2F C12F 1_555 1_555
N3F C12F 1_555 1_555
N4F N3F 1_555 1_555
H17F N4F 1_555 1_555
H18F N4F 1_555 1_555
N5F C1F 1_555 1_555
N6F C22F 1_555 1_555
Cd1B N6F 1_555 1_555
Cd1B_2 N5F 1_555 1_555
Cd1C N6 1_555 1_555
Cd1C_2 N5 1_555 1_555
N5B Cd1 1_555 1_555
N5E Cd1 1_555 1_555
N6B Cd1 1_555 1_555
N6E Cd1 1_555 1_555
F3 F3F 1_555 1_555
F5 B2F 1_555 1_555
C2 N5 1_555 1_555
C4 C5 1_555 1_555
C10 C11 1_555 1_555
C13 N3 1_555 1_555
C18 C19 1_555 1_555
C23 C24 1_555 1_555
C23 N6 1_555 1_555
N1 N2 1_555 1_555
B2F F4F 1_555 1_555
C2F N5F 1_555 1_555
C4F C5F 1_555 1_555
C10F C11F 1_555 1_555
C13F N1F 1_555 1_555
C13F N3F 1_555 1_555
C18F C19F 1_555 1_555
C23F C24F 1_555 1_555
C23F N6F 1_555 1_555
N1F N2F 1_555 1_555

#END
