
#######################################################################
#
#                 Cambridge Crystallographic Data Centre
#                                CCDC 
#
#######################################################################
#
# If this CIF has been generated from an entry in the Cambridge 
# Structural Database, then it will include bibliographic, chemical, 
# crystal, experimental, refinement or atomic coordinate data resulting 
# from the CCDC's data processing and validation procedures.
#
#######################################################################

data_KUNQUH
_symmetry_cell_setting           monoclinic
_symmetry_space_group_name_H-M   'P 21/n'
_symmetry_Int_Tables_number      14
_space_group_name_Hall           '-P 2yn'
loop_
_symmetry_equiv_pos_site_id
_symmetry_equiv_pos_as_xyz
1 x,y,z
2 1/2-x,1/2+y,1/2-z
3 -x,-y,-z
4 1/2+x,1/2-y,1/2+z
_cell_length_a                   13.609(2)
_cell_length_b                   27.181(5)
_cell_length_c                   13.617(3)
_cell_angle_alpha                90
_cell_angle_beta                 92.463(12)
_cell_angle_gamma                90
_cell_volume                     5032.36
loop_
_atom_site_label
_atom_site_type_symbol
_atom_site_fract_x
_atom_site_fract_y
_atom_site_fract_z
Zn1 Zn 1.16984(17) 0.19426(9) 0.17784(18)
Zn2 Zn 0.75027(17) 0.20187(9) 0.29386(18)
Zn3 Zn 0.78036(18) 0.30386(9) 0.10975(19)
Zn4 Zn 0.85476(18) 0.20370(9) -0.27493(18)
O1 O 0.695(2) -0.1181(9) -0.191(2)
O2 O 0.8551(17) -0.1251(7) -0.1842(19)
O3 O 0.6934(12) 0.1348(5) 0.2826(10)
O4 O 0.8382(11) 0.1270(5) 0.3559(10)
O5 O 0.8894(14) 0.1148(6) -0.3617(16)
O6 O 0.8145(12) 0.1401(6) -0.2279(11)
O7 O 0.6777(10) -0.1297(5) 0.3409(10)
O8 O 0.8074(12) -0.1180(6) 0.4401(11)
C1 C 0.9605(13) 0.1983(8) 0.2448(14)
H1 H 0.9735 0.1722 0.2898
C2 C 0.9762(14) 0.2569(8) 0.1408(15)
H2 H 1.0055 0.2797 0.0979
N1 N 1.0269(11) 0.2190(6) 0.1860(12)
N2 N 0.8843(11) 0.2586(6) 0.1627(11)
N3 N 0.8745(11) 0.2204(6) 0.2293(11)
C3 C 0.5548(17) 0.2461(9) 0.2622(17)
H3 H 0.5292 0.2241 0.3091
C4 C 0.5647(13) 0.3039(8) 0.1541(13)
H4 H 0.5506 0.3309 0.1115
N4 N 0.4968(11) 0.2820(6) 0.2082(12)
N5 N 0.6533(11) 0.2839(6) 0.1664(11)
N6 N 0.6457(11) 0.2472(6) 0.2395(11)
C5 C 0.7094(15) 0.2618(8) 0.4797(16)
H5 H 0.6671 0.2844 0.4455
C6 C 0.8120(13) 0.2040(7) 0.5104(13)
H6 H 0.8555 0.1771 0.5028
N7 N 0.7577(12) 0.2266(6) 0.4371(12)
N8 N 0.7932(11) 0.2267(6) 0.5958(12)
N9 N 0.7271(11) 0.2623(6) 0.5790(12)
C7 C 0.7202(14) 0.3072(7) -0.1075(14)
H7 H 0.6727 0.3321 -0.0978
C8 C 0.8299(18) 0.2553(10) -0.0795(19)
H8 H 0.8797 0.2356 -0.0482
N10 N 0.7823(10) 0.2880(5) -0.0342(11)
N11 N 0.8045(12) 0.2513(7) -0.1720(13)
N12 N 0.7359(11) 0.2857(6) -0.1946(12)
C9 C 0.7612(16) 0.1095(8) 0.3228(15)
C10 C 0.7507(9) 0.0541(4) 0.3291(9)
C11 C 0.7679(8) 0.0341(5) 0.4222(7)
H9 H 0.7835 0.0550 0.4766
C12 C 0.7623(8) -0.0165(5) 0.4358(7)
H10 H 0.7740 -0.0301 0.4994
C13 C 0.7395(9) -0.0471(4) 0.3563(9)
C14 C 0.7223(6) -0.0271(4) 0.2631(7)
C15 C 0.7279(6) 0.0235(4) 0.2496(7)
C16 C 0.7107(9) 0.0435(5) 0.1565(8)
H11 H 0.7146 0.0781 0.1472
C17 C 0.6879(10) 0.0129(7) 0.0769(7)
H12 H 0.6762 0.0266 0.0133
C18 C 0.6823(10) -0.0377(7) 0.0905(8)
H13 H 0.6667 -0.0586 0.0361
C19 C 0.6995(10) -0.0577(5) 0.1836(9)
H14 H 0.6956 -0.0922 0.1929
C20 C 0.7398(18) -0.1022(9) 0.3797(18)
C21 C 0.836(2) 0.1077(12) -0.281(2)
C22 C 0.8172(9) 0.0518(5) -0.2606(9)
C23 C 0.8906(8) 0.0174(6) -0.2754(10)
H15 H 0.9517 0.0276 -0.3000
C24 C 0.8747(9) -0.0319(6) -0.2544(10)
H16 H 0.9249 -0.0555 -0.2645
C25 C 0.7853(10) -0.0468(4) -0.2185(10)
C26 C 0.7119(8) -0.0124(4) -0.2037(7)
C27 C 0.7278(8) 0.0369(4) -0.2248(7)
C28 C 0.6544(10) 0.0714(4) -0.2099(10)
H17 H 0.6653 0.1051 -0.2243
C29 C 0.5651(9) 0.0565(6) -0.1741(11)
H18 H 0.5149 0.0800 -0.1639
C30 C 0.5491(8) 0.0071(7) -0.1530(11)
H19 H 0.4881 -0.0031 -0.1285
C31 C 0.6226(9) -0.0273(5) -0.1679(10)
H20 H 0.6117 -0.0610 -0.1535
C32 C 0.792(3) -0.1028(13) -0.191(2)
Zn1B Zn 0.83016(17) -0.19426(9) -0.17784(18)
Zn1C Zn 0.66984(17) 0.30574(9) -0.32216(18)
Zn1C_2 Zn 0.66984(17) 0.30574(9) 0.67784(18)
Zn3A Zn 0.71964(18) -0.19614(9) 0.39025(19)
Zn4_2 Zn 0.85476(18) 0.20370(9) 0.72507(18)
Zn4C Zn 0.35476(18) 0.29630(9) 0.22507(18)
O2B O 1.1449(17) 0.1251(7) 0.1842(19)
O7A O 0.8223(10) 0.3703(5) 0.1591(10)
O8A O 0.6926(12) 0.3820(6) 0.0599(11)
N4C N 0.9968(11) 0.2180(6) -0.2918(12)
N8_2 N 0.7932(11) 0.2267(6) -0.4042(12)
N9C N 1.2271(11) 0.2377(6) 0.0790(12)
N12C N 1.2359(11) 0.2143(6) 0.3054(12)
O9 O 0.5281(11) 0.1796(6) 0.4548(11)
N13 N 0.5063(17) 0.0977(9) 0.4595(17)
C33 C 0.473(2) 0.0514(12) 0.408(2)
H21 H 0.4005 0.0505 0.4031
H22 H 0.4971 0.0227 0.4448
H23 H 0.4980 0.0507 0.3415
C34 C 0.4946(18) 0.1412(10) 0.4131(19)
H24 H 0.4618 0.1430 0.3501
C35 C 0.553(2) 0.0908(12) 0.554(2)
H25 H 0.6186 0.1059 0.5556
H26 H 0.5596 0.0555 0.5679
H27 H 0.5136 0.1062 0.6042
O10 O 0.5085(13) 0.3192(7) 0.4466(12)
N14 N 0.4876(17) 0.4024(9) 0.4734(16)
C36 C 0.453(3) 0.3562(16) 0.481(3)
H28 H 0.3912 0.3499 0.5087
C37 C 0.574(3) 0.4176(15) 0.429(3)
H29 H 0.5922 0.4505 0.4528
H30 H 0.5623 0.4184 0.3576
H31 H 0.6271 0.3944 0.4460
C38 C 0.408(3) 0.4329(18) 0.522(3)
H32 H 0.3653 0.4480 0.4704
H33 H 0.4394 0.4587 0.5624
H34 H 0.3692 0.4114 0.5627
O11 O 0.7044(13) 0.1726(7) 1.0467(13)
O12 O 0.5542(16) 0.1768(9) 0.9922(15)
O13 O 0.0270(16) 0.1260(8) 0.4406(15)
loop_
_geom_bond_atom_site_label_1
_geom_bond_atom_site_label_2
_geom_bond_site_symmetry_1
_geom_bond_site_symmetry_2
Zn1 N1 1_555 1_555
Zn2 O3 1_555 1_555
Zn3 N2 1_555 1_555
Zn4 O6 1_555 1_555
O1 C32 1_555 1_555
O2 C32 1_555 1_555
O3 C9 1_555 1_555
O4 Zn2 1_555 1_555
O5 C21 1_555 1_555
O6 C21 1_555 1_555
O7 C20 1_555 1_555
O8 C20 1_555 1_555
C1 H1 1_555 1_555
C2 H2 1_555 1_555
N1 C1 1_555 1_555
N2 C2 1_555 1_555
N3 Zn2 1_555 1_555
C3 H3 1_555 1_555
C4 H4 1_555 1_555
N4 C3 1_555 1_555
N5 Zn3 1_555 1_555
N6 Zn2 1_555 1_555
C5 H5 1_555 1_555
C6 H6 1_555 1_555
N7 Zn2 1_555 1_555
N8 C6 1_555 1_555
N9 C5 1_555 1_555
C7 H7 1_555 1_555
C8 H8 1_555 1_555
N10 Zn3 1_555 1_555
N11 Zn4 1_555 1_555
N12 C7 1_555 1_555
C9 O4 1_555 1_555
C10 C9 1_555 1_555
C11 C10 1_555 1_555
H9 C11 1_555 1_555
C12 C11 1_555 1_555
H10 C12 1_555 1_555
C13 C12 1_555 1_555
C14 C13 1_555 1_555
C15 C10 1_555 1_555
C16 C15 1_555 1_555
H11 C16 1_555 1_555
C17 C16 1_555 1_555
H12 C17 1_555 1_555
C18 C17 1_555 1_555
H13 C18 1_555 1_555
C19 C14 1_555 1_555
H14 C19 1_555 1_555
C20 C13 1_555 1_555
C21 C22 1_555 1_555
C22 C23 1_555 1_555
C23 H15 1_555 1_555
C24 C23 1_555 1_555
H16 C24 1_555 1_555
C25 C24 1_555 1_555
C26 C25 1_555 1_555
C27 C22 1_555 1_555
C28 C27 1_555 1_555
H17 C28 1_555 1_555
C29 C28 1_555 1_555
H18 C29 1_555 1_555
C30 C29 1_555 1_555
H19 C30 1_555 1_555
C31 C26 1_555 1_555
H20 C31 1_555 1_555
C32 C25 1_555 1_555
O9 C34 1_555 1_555
N13 C33 1_555 1_555
C33 H21 1_555 1_555
H22 C33 1_555 1_555
H23 C33 1_555 1_555
C34 N13 1_555 1_555
H24 C34 1_555 1_555
C35 N13 1_555 1_555
H25 C35 1_555 1_555
H26 C35 1_555 1_555
H27 C35 1_555 1_555
O10 C36 1_555 1_555
N14 C36 1_555 1_555
C36 H28 1_555 1_555
C37 N14 1_555 1_555
H29 C37 1_555 1_555
H30 C37 1_555 1_555
H31 C37 1_555 1_555
C38 N14 1_555 1_555
H32 C38 1_555 1_555
H33 C38 1_555 1_555
H34 C38 1_555 1_555
Zn1B O2 1_555 1_555
Zn1C N12 1_555 1_555
Zn1C_2 N9 1_555 1_555
Zn3A O7 1_555 1_555
Zn4_2 N8 1_555 1_555
Zn4C N4 1_555 1_555
O2B Zn1 1_555 1_555
O7A Zn3 1_555 1_555
O8A Zn3 1_555 1_555
N4C Zn4 1_555 1_555
N8_2 Zn4 1_555 1_555
N9C Zn1 1_555 1_555
N12C Zn1 1_555 1_555
O8 Zn3A 1_555 1_555
C1 N3 1_555 1_555
C2 N1 1_555 1_555
N2 N3 1_555 1_555
C3 N6 1_555 1_555
C4 N4 1_555 1_555
C4 N5 1_555 1_555
N5 N6 1_555 1_555
C5 N7 1_555 1_555
C6 N7 1_555 1_555
N8 N9 1_555 1_555
C7 N10 1_555 1_555
C8 N10 1_555 1_555
C8 N11 1_555 1_555
N11 N12 1_555 1_555
C14 C15 1_555 1_555
C18 C19 1_555 1_555
C26 C27 1_555 1_555
C30 C31 1_555 1_555

#END
