
#######################################################################
#
#                 Cambridge Crystallographic Data Centre
#                                CCDC 
#
#######################################################################
#
# If this CIF has been generated from an entry in the Cambridge 
# Structural Database, then it will include bibliographic, chemical, 
# crystal, experimental, refinement or atomic coordinate data resulting 
# from the CCDC's data processing and validation procedures.
#
#######################################################################

data_KUNSUJ
_symmetry_cell_setting           rhombohedral
_symmetry_space_group_name_H-M   'R -3'
_symmetry_Int_Tables_number      148
_space_group_name_Hall           '-R 3'
loop_
_symmetry_equiv_pos_site_id
_symmetry_equiv_pos_as_xyz
1 x,y,z
2 -y,x-y,z
3 -x+y,-x,z
4 2/3+x,1/3+y,1/3+z
5 2/3-y,1/3+x-y,1/3+z
6 2/3-x+y,1/3-x,1/3+z
7 1/3+x,2/3+y,2/3+z
8 1/3-y,2/3+x-y,2/3+z
9 1/3-x+y,2/3-x,2/3+z
10 -x,-y,-z
11 y,-x+y,-z
12 x-y,x,-z
13 1/3-x,2/3-y,2/3-z
14 1/3+y,2/3-x+y,2/3-z
15 1/3+x-y,2/3+x,2/3-z
16 2/3-x,1/3-y,1/3-z
17 2/3+y,1/3-x+y,1/3-z
18 2/3+x-y,1/3+x,1/3-z
_cell_length_a                   41.604(6)
_cell_length_b                   41.604(6)
_cell_length_c                   40.246(5)
_cell_angle_alpha                90
_cell_angle_beta                 90
_cell_angle_gamma                120
_cell_volume                     60328.6
loop_
_atom_site_label
_atom_site_type_symbol
_atom_site_fract_x
_atom_site_fract_y
_atom_site_fract_z
Eu1 Eu 0.62701(2) 0.091195(18) 0.788372(19)
In1 In 0.86088(4) 0.30441(4) 1.13661(3)
O1 O 0.65686(17) 0.14908(15) 0.77182(16)
O2 O 0.61173(19) 0.13110(17) 0.80662(17)
O3 O 0.61558(19) 0.07164(19) 0.83896(16)
O4 O 0.6704(2) 0.11149(18) 0.82791(19)
O5 O 0.62496(19) -0.07578(28) 1.11118(18)
O6 O 0.57227(18) -0.09086(26) 1.08900(17)
O7 O 0.5938(2) 0.08110(18) 0.74241(17)
O8 O 0.5683(2) 0.05378(18) 0.7878(2)
O9 O 0.8411(3) 0.2552(3) 1.1180(2)
O10 O 0.8248(3) 0.2836(3) 1.0887(3)
O11 O 0.3348(4) -0.1106(5) 0.5179(3)
O12 O 0.3897(4) -0.0706(6) 0.5078(5)
O13 O 0.2487(4) -0.0113(3) 0.7844(4)
O14 O 0.2436(4) 0.0144(3) 0.7403(3)
O15 O 0.8130(4) 0.3040(4) 1.1570(4)
O16 O 0.8664(4) 0.3546(3) 1.1232(4)
C1 C 0.6371(3) 0.1556(3) 0.7903(3)
C2 C 0.6437(2) 0.19229(19) 0.7915(2)
C3 C 0.6209(2) 0.2004(2) 0.8096(2)
H1 H 0.6013 0.1822 0.8219
C4 C 0.6277(2) 0.2363(2) 0.8092(2)
H2 H 0.6129 0.2423 0.8221
C5 C 0.6552(2) 0.2634(2) 0.7907(2)
C6 C 0.6777(2) 0.2540(2) 0.7728(2)
H3 H 0.6973 0.2721 0.7604
C7 C 0.6718(2) 0.2189(2) 0.7731(2)
H4 H 0.6869 0.2129 0.7607
C8 C 0.6604(2) 0.2983(2) 0.7905(2)
C9 C 0.6335(2) 0.3048(2) 0.7909(2)
H5 H 0.6095 0.2846 0.7916
C10 C 0.6455(3) 0.0908(3) 0.8483(3)
C11 C 0.6571(3) 0.0946(3) 0.8805(2)
C12 C 0.6923(2) 0.1178(3) 0.8909(2)
H6 H 0.7109 0.1319 0.8757
C13 C 0.7005(2) 0.1203(3) 0.9256(2)
H7 H 0.7245 0.1359 0.9330
C14 C 0.6735(3) 0.1001(3) 0.9474(2)
C15 C 0.6367(3) 0.0772(3) 0.9371(2)
H8 H 0.6181 0.0638 0.9525
C16 C 0.6285(2) 0.0749(3) 0.9034(2)
H9 H 0.6041 0.0604 0.8961
C17 C 0.6817(3) 0.1003(3) 0.9813(3)
C18 C 0.7046(3) 0.1303(3) 0.9968(3)
H10 H 0.7130 0.1529 0.9861
C19 C 0.7165(3) 0.1300(3) 1.0276(3)
C20 C 0.6989(3) 0.0994(4) 1.0439(3)
H11 H 0.7047 0.0996 1.0663
C21 C 0.6722(3) 0.0669(4) 1.0303(3)
C22 C 0.6639(3) 0.0682(3) 0.9979(3)
H12 H 0.6459 0.0469 0.9873
C23 C 0.6562(3) 0.0325(4) 1.0475(3)
C24 C 0.6742(3) 0.0238(4) 1.0684(3)
H13 H 0.6988 0.0414 1.0728
C25 C 0.6597(3) -0.0088(4) 1.0843(3)
H14 H 0.6735 -0.0146 1.0988
C26 C 0.6227(3) -0.0333(4) 1.0774(3)
C27 C 0.6039(3) -0.0253(4) 1.0577(3)
H15 H 0.5787 -0.0420 1.0548
C28 C 0.6196(3) 0.0063(4) 1.0413(3)
H16 H 0.6062 0.0111 1.0255
C29 C 0.6055(3) -0.0689(4) 1.0946(3)
C30 C 0.7419(3) 0.1616(3) 1.0425(3)
C31 C 0.7491(3) 0.1966(3) 1.0321(3)
H17 H 0.7384 0.1993 1.0127
C32 C 0.7728(3) 0.2279(3) 1.0514(3)
H18 H 0.7744 0.2506 1.0471
C33 C 0.7937(3) 0.2252(3) 1.0766(3)
C34 C 0.7887(4) 0.1903(3) 1.0855(3)
H19 H 0.8018 0.1880 1.1033
C35 C 0.7640(4) 0.1590(3) 1.0673(3)
H20 H 0.7622 0.1362 1.0717
C36 C 0.8223(4) 0.2573(5) 1.0962(4)
C37 C 0.5659(3) 0.0604(3) 0.7591(4)
C38 C 0.5307(3) 0.0427(3) 0.7439(3)
C39 C 0.4993(4) 0.0227(4) 0.7608(4)
H21 H 0.5009 0.0197 0.7835
C40 C 0.4677(4) 0.0078(4) 0.7478(3)
H22 H 0.4470 -0.0050 0.7614
C41 C 0.4628(4) 0.0098(4) 0.7146(4)
C42 C 0.4939(4) 0.0314(4) 0.6963(4)
H23 H 0.4918 0.0355 0.6738
C43 C 0.5274(4) 0.0469(3) 0.7108(3)
H24 H 0.5486 0.0606 0.6980
C44 C 0.4278(3) -0.0059(3) 0.6987(3)
C45 C 0.3995(4) -0.0022(4) 0.7157(4)
H25 H 0.4034 0.0089 0.7366
C46 C 0.3677(5) -0.0156(4) 0.6997(4)
C47 C 0.3622(4) -0.0292(4) 0.6712(4)
H26 H 0.3394 -0.0366 0.6613
C48 C 0.3873(5) -0.0340(4) 0.6537(4)
C49 C 0.4225(5) -0.0208(4) 0.6684(4)
H27 H 0.4413 -0.0225 0.6574
C50 C 0.3807(5) -0.0500(5) 0.6221(5)
C51 C 0.3491(5) -0.0729(5) 0.6111(5)
H28 H 0.3286 -0.0805 0.6250
C52 C 0.3435(5) -0.0866(4) 0.5804(4)
H29 H 0.3201 -0.1060 0.5748
C53 C 0.3687(5) -0.0744(5) 0.5589(5)
C54 C 0.4029(6) -0.0473(5) 0.5687(5)
H30 H 0.4230 -0.0375 0.5542
C55 C 0.4063(5) -0.0356(5) 0.6000(5)
H31 H 0.4289 -0.0154 0.6063
C56 C 0.3630(6) -0.0865(6) 0.5275(5)
C57 C 0.3288(4) -0.0224(4) 0.7465(4)
H32 H 0.3413 -0.0321 0.7582
C58 C 0.3368(3) -0.0130(3) 0.7133(4)
C59 C 0.3181(4) 0.0007(4) 0.6948(3)
H33 H 0.3246 0.0079 0.6728
C60 C 0.2886(4) 0.0033(4) 0.7103(4)
H34 H 0.2742 0.0102 0.6980
C61 C 0.2818(3) -0.0047(3) 0.7439(4)
C62 C 0.3012(4) -0.0172(4) 0.7625(3)
H35 H 0.2964 -0.0221 0.7850
C63 C 0.2563(4) 0.0003(4) 0.7591(5)
O1A O 0.85092(15) 0.50778(23) 0.77182(16)
O2A O 0.86890(17) 0.48063(25) 0.80662(17)
C1A C 0.8444(3) 0.4815(4) 0.7903(3)
C2A C 0.80771(19) 0.45141(28) 0.7915(2)
C3A C 0.7996(2) 0.4205(3) 0.8096(2)
H1A H 0.8178 0.4191 0.8219
C4A C 0.7637(2) 0.3914(3) 0.8092(2)
H2A H 0.7577 0.3706 0.8221
C5A C 0.7366(2) 0.3918(3) 0.7907(2)
C6A C 0.7460(2) 0.4237(3) 0.7728(2)
H3A H 0.7279 0.4252 0.7604
C7A C 0.7811(2) 0.4529(3) 0.7731(2)
H4A H 0.7871 0.4740 0.7607
C8A C 0.7017(2) 0.3621(3) 0.7905(2)
C9A C 0.6952(2) 0.3287(3) 0.7909(2)
H5A H 0.7154 0.3249 0.7916
O1B O 0.49222(23) 0.34314(17) 0.77182(16)
O2B O 0.51937(25) 0.38827(19) 0.80662(17)
C1B C 0.5185(4) 0.3629(3) 0.7903(3)
C2B C 0.54859(28) 0.3563(2) 0.7915(2)
C3B C 0.5795(3) 0.3791(2) 0.8096(2)
H1B H 0.5809 0.3987 0.8219
C4B C 0.6086(3) 0.3723(2) 0.8092(2)
H2B H 0.6294 0.3871 0.8221
C5B C 0.6082(3) 0.3448(2) 0.7907(2)
C6B C 0.5763(3) 0.3223(2) 0.7728(2)
H3B H 0.5748 0.3027 0.7604
C7B C 0.5471(3) 0.3282(2) 0.7731(2)
H4B H 0.5260 0.3131 0.7607
C8B C 0.6379(3) 0.3396(2) 0.7905(2)
C9B C 0.6713(3) 0.3665(2) 0.7909(2)
H5B H 0.6751 0.3905 0.7916
Eu1A Eu 0.908805(18) 0.535815(27) 0.788372(19)
In1A In 0.69559(4) 0.55647(6) 1.13661(3)
O3A O 0.92836(19) 0.54394(27) 0.83896(16)
O4A O 0.88851(18) 0.55891(27) 0.82791(19)
O5A O 1.07578(28) 0.70074(34) 1.11118(18)
O6A O 1.09086(26) 0.66313(32) 1.08900(17)
O7A O 0.91890(18) 0.51270(27) 0.74241(17)
O8A O 0.94622(18) 0.51452(27) 0.7878(2)
O9A O 0.7448(3) 0.5859(4) 1.1180(2)
O10A O 0.7164(3) 0.5412(4) 1.0887(3)
O11A O 1.1106(5) 0.4454(6) 0.5179(3)
O12A O 1.0706(6) 0.4603(7) 0.5078(5)
O13A O 1.0113(3) 0.2600(5) 0.7844(4)
O14A O 0.9856(3) 0.2292(5) 0.7403(3)
O15A O 0.6960(4) 0.5090(6) 1.1570(4)
O16A O 0.6454(3) 0.5118(5) 1.1232(4)
C10A C 0.9092(3) 0.5547(4) 0.8483(3)
C11A C 0.9054(3) 0.5625(4) 0.8805(2)
C12A C 0.8822(3) 0.5745(4) 0.8909(2)
H6A H 0.8681 0.5790 0.8757
C13A C 0.8797(3) 0.5802(4) 0.9256(2)
H7A H 0.8641 0.5886 0.9330
C14A C 0.8999(3) 0.5734(4) 0.9474(2)
C15A C 0.9228(3) 0.5595(4) 0.9371(2)
H8A H 0.9362 0.5543 0.9525
C16A C 0.9251(3) 0.5536(4) 0.9034(2)
H9A H 0.9396 0.5437 0.8961
C17A C 0.8997(3) 0.5814(4) 0.9813(3)
C18A C 0.8697(3) 0.5743(4) 0.9968(3)
H10A H 0.8471 0.5601 0.9861
C19A C 0.8700(3) 0.5865(4) 1.0276(3)
C20A C 0.9006(4) 0.5995(5) 1.0439(3)
H11A H 0.9004 0.6051 1.0663
C21A C 0.9331(4) 0.6053(5) 1.0303(3)
C22A C 0.9318(3) 0.5957(4) 0.9979(3)
H12A H 0.9531 0.5990 0.9873
C23A C 0.9675(4) 0.6237(5) 1.0475(3)
C24A C 0.9762(4) 0.6504(5) 1.0684(3)
H13A H 0.9586 0.6574 1.0728
C25A C 1.0088(4) 0.6685(5) 1.0843(3)
H14A H 1.0146 0.6881 1.0988
C26A C 1.0333(4) 0.6560(5) 1.0774(3)
C27A C 1.0253(4) 0.6292(5) 1.0577(3)
H15A H 1.0420 0.6207 1.0548
C28A C 0.9937(4) 0.6133(5) 1.0413(3)
H16A H 0.9889 0.5951 1.0255
C29A C 1.0689(4) 0.6744(5) 1.0946(3)
C30A C 0.8384(3) 0.5803(4) 1.0425(3)
C31A C 0.8034(3) 0.5525(4) 1.0321(3)
H17A H 0.8007 0.5391 1.0127
C32A C 0.7721(3) 0.5449(4) 1.0514(3)
H18A H 0.7494 0.5238 1.0471
C33A C 0.7748(3) 0.5685(4) 1.0766(3)
C34A C 0.8097(3) 0.5984(5) 1.0855(3)
H19A H 0.8120 0.6138 1.1033
C35A C 0.8410(3) 0.6050(5) 1.0673(3)
H20A H 0.8638 0.6260 1.0717
C36A C 0.7427(5) 0.5650(6) 1.0962(4)
C37A C 0.9396(3) 0.5055(4) 0.7591(4)
C38A C 0.9573(3) 0.4880(4) 0.7439(3)
C39A C 0.9773(4) 0.4766(6) 0.7608(4)
H21A H 0.9803 0.4812 0.7835
C40A C 0.9922(4) 0.4599(6) 0.7478(3)
H22A H 1.0050 0.4520 0.7614
C41A C 0.9902(4) 0.4530(6) 0.7146(4)
C42A C 0.9686(4) 0.4625(6) 0.6963(4)
H23A H 0.9645 0.4563 0.6738
C43A C 0.9531(3) 0.4805(5) 0.7108(3)
H24A H 0.9394 0.4880 0.6980
C44A C 1.0059(3) 0.4337(4) 0.6987(3)
C45A C 1.0022(4) 0.4017(6) 0.7157(4)
H25A H 0.9911 0.3945 0.7366
C46A C 1.0156(4) 0.3833(6) 0.6997(4)
C47A C 1.0292(4) 0.3914(6) 0.6712(4)
H26A H 1.0366 0.3760 0.6613
C48A C 1.0340(4) 0.4213(6) 0.6537(4)
C49A C 1.0208(4) 0.4433(6) 0.6684(4)
H27A H 1.0225 0.4638 0.6574
C50A C 1.0500(5) 0.4307(7) 0.6221(5)
C51A C 1.0729(5) 0.4220(7) 0.6111(5)
H28A H 1.0805 0.4091 0.6250
C52A C 1.0866(4) 0.4301(6) 0.5804(4)
H29A H 1.1060 0.4261 0.5748
C53A C 1.0744(5) 0.4431(7) 0.5589(5)
C54A C 1.0473(5) 0.4502(8) 0.5687(5)
H30A H 1.0375 0.4605 0.5542
C55A C 1.0356(5) 0.4419(7) 0.6000(5)
H31A H 1.0154 0.4443 0.6063
C56A C 1.0865(6) 0.4495(8) 0.5275(5)
C57A C 1.0224(4) 0.3512(6) 0.7465(4)
H32A H 1.0321 0.3734 0.7582
C58A C 1.0130(3) 0.3498(4) 0.7133(4)
C59A C 0.9993(4) 0.3174(6) 0.6948(3)
H33A H 0.9921 0.3167 0.6728
C60A C 0.9967(4) 0.2853(6) 0.7103(4)
H34A H 0.9898 0.2640 0.6980
C61A C 1.0047(3) 0.2865(4) 0.7439(4)
C62A C 1.0172(4) 0.3184(6) 0.7625(3)
H35A H 1.0221 0.3185 0.7850
C63A C 0.9997(4) 0.2560(6) 0.7591(5)
Eu1B Eu 0.464185(27) 0.37299(2) 0.788372(19)
In1B In 0.44353(6) 0.13912(4) 1.13661(3)
O3B O 0.45606(27) 0.38442(19) 0.83896(16)
O4B O 0.44109(27) 0.3296(2) 0.82791(19)
O5B O 0.29926(34) 0.37504(19) 1.11118(18)
O6B O 0.33687(32) 0.42773(18) 1.08900(17)
O7B O 0.48730(27) 0.4062(2) 0.74241(17)
O8B O 0.48548(27) 0.4317(2) 0.7878(2)
O9B O 0.4141(4) 0.1589(3) 1.1180(2)
O10B O 0.4588(4) 0.1752(3) 1.0887(3)
O11B O 0.5546(6) 0.6652(4) 0.5179(3)
O12B O 0.5397(7) 0.6103(4) 0.5078(5)
O13B O 0.7400(5) 0.7513(4) 0.7844(4)
O14B O 0.7708(5) 0.7564(4) 0.7403(3)
O15B O 0.4910(6) 0.1870(4) 1.1570(4)
O16B O 0.4882(5) 0.1336(4) 1.1232(4)
C10B C 0.4453(4) 0.3545(3) 0.8483(3)
C11B C 0.4375(4) 0.3429(3) 0.8805(2)
C12B C 0.4255(4) 0.3077(2) 0.8909(2)
H6B H 0.4210 0.2891 0.8757
C13B C 0.4198(4) 0.2995(2) 0.9256(2)
H7B H 0.4114 0.2755 0.9330
C14B C 0.4266(4) 0.3265(3) 0.9474(2)
C15B C 0.4405(4) 0.3633(3) 0.9371(2)
H8B H 0.4457 0.3819 0.9525
C16B C 0.4464(4) 0.3715(2) 0.9034(2)
H9B H 0.4563 0.3959 0.8961
C17B C 0.4186(4) 0.3183(3) 0.9813(3)
C18B C 0.4257(4) 0.2954(3) 0.9968(3)
H10B H 0.4399 0.2870 0.9861
C19B C 0.4135(4) 0.2835(3) 1.0276(3)
C20B C 0.4005(5) 0.3011(3) 1.0439(3)
H11B H 0.3949 0.2953 1.0663
C21B C 0.3947(5) 0.3278(3) 1.0303(3)
C22B C 0.4043(4) 0.3361(3) 0.9979(3)
H12B H 0.4010 0.3541 0.9873
C23B C 0.3763(5) 0.3438(3) 1.0475(3)
C24B C 0.3496(5) 0.3258(3) 1.0684(3)
H13B H 0.3426 0.3012 1.0728
C25B C 0.3315(5) 0.3403(3) 1.0843(3)
H14B H 0.3119 0.3265 1.0988
C26B C 0.3440(5) 0.3773(3) 1.0774(3)
C27B C 0.3708(5) 0.3961(3) 1.0577(3)
H15B H 0.3793 0.4213 1.0548
C28B C 0.3867(5) 0.3804(3) 1.0413(3)
H16B H 0.4049 0.3938 1.0255
C29B C 0.3256(5) 0.3945(3) 1.0946(3)
C30B C 0.4197(4) 0.2581(3) 1.0425(3)
C31B C 0.4475(4) 0.2509(3) 1.0321(3)
H17B H 0.4609 0.2616 1.0127
C32B C 0.4551(4) 0.2272(3) 1.0514(3)
H18B H 0.4762 0.2256 1.0471
C33B C 0.4315(4) 0.2063(3) 1.0766(3)
C34B C 0.4016(5) 0.2113(4) 1.0855(3)
H19B H 0.3862 0.1982 1.1033
C35B C 0.3950(5) 0.2360(4) 1.0673(3)
H20B H 0.3740 0.2378 1.0717
C36B C 0.4350(6) 0.1777(4) 1.0962(4)
C37B C 0.4945(4) 0.4341(3) 0.7591(4)
C38B C 0.5120(4) 0.4693(3) 0.7439(3)
C39B C 0.5234(6) 0.5007(4) 0.7608(4)
H21B H 0.5188 0.4991 0.7835
C40B C 0.5401(6) 0.5323(4) 0.7478(3)
H22B H 0.5480 0.5530 0.7614
C41B C 0.5470(6) 0.5372(4) 0.7146(4)
C42B C 0.5375(6) 0.5061(4) 0.6963(4)
H23B H 0.5437 0.5082 0.6738
C43B C 0.5195(5) 0.4726(4) 0.7108(3)
H24B H 0.5120 0.4514 0.6980
C44B C 0.5663(4) 0.5722(3) 0.6987(3)
C45B C 0.5983(6) 0.6005(4) 0.7157(4)
H25B H 0.6055 0.5966 0.7366
C46B C 0.6167(6) 0.6323(5) 0.6997(4)
C47B C 0.6086(6) 0.6378(4) 0.6712(4)
H26B H 0.6240 0.6606 0.6613
C48B C 0.5787(6) 0.6127(5) 0.6537(4)
C49B C 0.5567(6) 0.5775(5) 0.6684(4)
H27B H 0.5362 0.5587 0.6574
C50B C 0.5693(7) 0.6193(5) 0.6221(5)
C51B C 0.5780(7) 0.6509(5) 0.6111(5)
H28B H 0.5909 0.6714 0.6250
C52B C 0.5699(6) 0.6565(5) 0.5804(4)
H29B H 0.5739 0.6799 0.5748
C53B C 0.5569(7) 0.6313(5) 0.5589(5)
C54B C 0.5498(8) 0.5971(6) 0.5687(5)
H30B H 0.5395 0.5770 0.5542
C55B C 0.5581(7) 0.5937(5) 0.6000(5)
H31B H 0.5557 0.5711 0.6063
C56B C 0.5505(8) 0.6370(6) 0.5275(5)
C57B C 0.6488(6) 0.6712(4) 0.7465(4)
H32B H 0.6266 0.6587 0.7582
C58B C 0.6502(4) 0.6632(3) 0.7133(4)
C59B C 0.6826(6) 0.6819(4) 0.6948(3)
H33B H 0.6833 0.6754 0.6728
C60B C 0.7147(6) 0.7114(4) 0.7103(4)
H34B H 0.7360 0.7258 0.6980
C61B C 0.7135(4) 0.7182(3) 0.7439(4)
C62B C 0.6816(6) 0.6988(4) 0.7625(3)
H35B H 0.6815 0.7036 0.7850
C63B C 0.7440(6) 0.7437(4) 0.7591(5)
Eu1C Eu 0.29368(2) 0.424528(18) 1.121705(19)
Eu1D Eu 0.575472(18) -0.130852(27) 1.121705(19)
Eu1E Eu 1.130852(27) 0.70632(2) 1.121705(19)
In1C In 0.52755(4) 0.63774(4) 0.46994(3)
In1D In 0.36226(4) -0.11020(6) 0.46994(3)
In1E In 1.11020(6) 0.47245(4) 0.46994(3)
In1F In 0.19421(4) -0.02892(4) 0.80328(3)
In1G In 1.02892(4) 0.22314(6) 0.80328(3)
In1H In 0.77686(6) 0.80579(4) 0.80328(3)
O5F O 0.95829(19) 0.59089(28) 0.77785(18)
O5G O 0.40911(28) 0.36741(34) 0.77785(18)
O5H O 0.63259(34) 0.04171(19) 0.77785(18)
O6F O 0.90560(18) 0.57581(26) 0.75567(17)
O6G O 0.42419(26) 0.32980(32) 0.75567(17)
O6H O 0.67020(32) 0.09440(18) 0.75567(17)
O11F O 0.6681(4) 0.5561(5) 1.1846(3)
O11G O 0.4439(5) 0.1121(6) 1.1846(3)
O11H O 0.8879(6) 0.3319(4) 1.1846(3)
O12F O 0.7230(4) 0.5961(6) 1.1745(5)
O12G O 0.4039(6) 0.1270(7) 1.1745(5)
O12H O 0.8730(7) 0.2770(4) 1.1745(5)
O13C O 0.9154(4) 0.3220(3) 1.1177(4)
O13D O 0.6780(3) 0.5933(5) 1.1177(4)
O13E O 0.4067(5) 0.0846(4) 1.1177(4)
loop_
_geom_bond_atom_site_label_1
_geom_bond_atom_site_label_2
_geom_bond_site_symmetry_1
_geom_bond_site_symmetry_2
Eu1 O1 1_555 1_555
In1 O9 1_555 1_555
O1 C1 1_555 1_555
O2 Eu1 1_555 1_555
O3 Eu1 1_555 1_555
O4 Eu1 1_555 1_555
O5 C29 1_555 1_555
O6 C29 1_555 1_555
O7 Eu1 1_555 1_555
O8 Eu1 1_555 1_555
O9 C36 1_555 1_555
O10 In1 1_555 1_555
O11 C56 1_555 1_555
O12 C56 1_555 1_555
O13 C63 1_555 1_555
O14 C63 1_555 1_555
O15 In1 1_555 1_555
O16 In1 1_555 1_555
C1 O2 1_555 1_555
C2 C1 1_555 1_555
C3 C2 1_555 1_555
H1 C3 1_555 1_555
C4 C3 1_555 1_555
H2 C4 1_555 1_555
C5 C4 1_555 1_555
C6 C5 1_555 1_555
H3 C6 1_555 1_555
C7 C2 1_555 1_555
H4 C7 1_555 1_555
C8 C5 1_555 1_555
C9 C8 1_555 1_555
H5 C9 1_555 1_555
C10 O3 1_555 1_555
C11 C10 1_555 1_555
C12 C11 1_555 1_555
H6 C12 1_555 1_555
C13 C12 1_555 1_555
H7 C13 1_555 1_555
C14 C13 1_555 1_555
C15 C14 1_555 1_555
H8 C15 1_555 1_555
C16 C11 1_555 1_555
H9 C16 1_555 1_555
C17 C14 1_555 1_555
C18 C17 1_555 1_555
H10 C18 1_555 1_555
C19 C18 1_555 1_555
C20 C19 1_555 1_555
H11 C20 1_555 1_555
C21 C20 1_555 1_555
C22 C17 1_555 1_555
H12 C22 1_555 1_555
C23 C21 1_555 1_555
C24 C23 1_555 1_555
H13 C24 1_555 1_555
C25 C24 1_555 1_555
H14 C25 1_555 1_555
C26 C25 1_555 1_555
C27 C26 1_555 1_555
H15 C27 1_555 1_555
C28 C23 1_555 1_555
H16 C28 1_555 1_555
C29 C26 1_555 1_555
C30 C19 1_555 1_555
C31 C30 1_555 1_555
H17 C31 1_555 1_555
C32 C31 1_555 1_555
H18 C32 1_555 1_555
C33 C32 1_555 1_555
C34 C33 1_555 1_555
H19 C34 1_555 1_555
C35 C30 1_555 1_555
H20 C35 1_555 1_555
C36 O10 1_555 1_555
C37 O7 1_555 1_555
C38 C37 1_555 1_555
C39 C38 1_555 1_555
H21 C39 1_555 1_555
C40 C39 1_555 1_555
H22 C40 1_555 1_555
C41 C40 1_555 1_555
C42 C41 1_555 1_555
H23 C42 1_555 1_555
C43 C38 1_555 1_555
H24 C43 1_555 1_555
C44 C41 1_555 1_555
C45 C44 1_555 1_555
H25 C45 1_555 1_555
C46 C45 1_555 1_555
C47 C46 1_555 1_555
H26 C47 1_555 1_555
C48 C47 1_555 1_555
C49 C44 1_555 1_555
H27 C49 1_555 1_555
C50 C48 1_555 1_555
C51 C50 1_555 1_555
H28 C51 1_555 1_555
C52 C51 1_555 1_555
H29 C52 1_555 1_555
C53 C52 1_555 1_555
C54 C53 1_555 1_555
H30 C54 1_555 1_555
C55 C50 1_555 1_555
H31 C55 1_555 1_555
C56 C53 1_555 1_555
C57 H32 1_555 1_555
C58 C46 1_555 1_555
C59 C58 1_555 1_555
H33 C59 1_555 1_555
C60 C59 1_555 1_555
H34 C60 1_555 1_555
C61 C60 1_555 1_555
C62 C57 1_555 1_555
H35 C62 1_555 1_555
C63 C61 1_555 1_555
O1A C1A 1_555 1_555
O2A C1A 1_555 1_555
C1A C2A 1_555 1_555
C2A C3A 1_555 1_555
C3A H1A 1_555 1_555
C4A C3A 1_555 1_555
H2A C4A 1_555 1_555
C5A C4A 1_555 1_555
C6A C5A 1_555 1_555
H3A C6A 1_555 1_555
C7A C2A 1_555 1_555
H4A C7A 1_555 1_555
C8A C5A 1_555 1_555
C9A C8 1_555 1_555
H5A C9A 1_555 1_555
O1B C1B 1_555 1_555
O2B C1B 1_555 1_555
C1B C2B 1_555 1_555
C2B C3B 1_555 1_555
C3B H1B 1_555 1_555
C4B C3B 1_555 1_555
H2B C4B 1_555 1_555
C5B C4B 1_555 1_555
C6B C5B 1_555 1_555
H3B C6B 1_555 1_555
C7B C2B 1_555 1_555
H4B C7B 1_555 1_555
C8B C9 1_555 1_555
C9B C8A 1_555 1_555
H5B C9B 1_555 1_555
Eu1A O1A 1_555 1_555
In1A O9A 1_555 1_555
O3A Eu1A 1_555 1_555
O4A Eu1A 1_555 1_555
O5A C29A 1_555 1_555
O6A C29A 1_555 1_555
O7A Eu1A 1_555 1_555
O8A Eu1A 1_555 1_555
O9A C36A 1_555 1_555
O10A In1A 1_555 1_555
O11A C56A 1_555 1_555
O12A C56A 1_555 1_555
O13A C63A 1_555 1_555
O14A C63A 1_555 1_555
O15A In1A 1_555 1_555
O16A In1A 1_555 1_555
C10A O3A 1_555 1_555
C11A C10A 1_555 1_555
C12A C11A 1_555 1_555
H6A C12A 1_555 1_555
C13A C12A 1_555 1_555
H7A C13A 1_555 1_555
C14A C13A 1_555 1_555
C15A C14A 1_555 1_555
H8A C15A 1_555 1_555
C16A C11A 1_555 1_555
H9A C16A 1_555 1_555
C17A C14A 1_555 1_555
C18A C17A 1_555 1_555
H10A C18A 1_555 1_555
C19A C18A 1_555 1_555
C20A C19A 1_555 1_555
H11A C20A 1_555 1_555
C21A C20A 1_555 1_555
C22A C17A 1_555 1_555
H12A C22A 1_555 1_555
C23A C21A 1_555 1_555
C24A C23A 1_555 1_555
H13A C24A 1_555 1_555
C25A C24A 1_555 1_555
H14A C25A 1_555 1_555
C26A C25A 1_555 1_555
C27A C26A 1_555 1_555
H15A C27A 1_555 1_555
C28A C23A 1_555 1_555
H16A C28A 1_555 1_555
C29A C26A 1_555 1_555
C30A C19A 1_555 1_555
C31A C30A 1_555 1_555
H17A C31A 1_555 1_555
C32A C31A 1_555 1_555
H18A C32A 1_555 1_555
C33A C32A 1_555 1_555
C34A C33A 1_555 1_555
H19A C34A 1_555 1_555
C35A C30A 1_555 1_555
H20A C35A 1_555 1_555
C36A O10A 1_555 1_555
C37A O7A 1_555 1_555
C38A C37A 1_555 1_555
C39A C38A 1_555 1_555
H21A C39A 1_555 1_555
C40A C39A 1_555 1_555
H22A C40A 1_555 1_555
C41A C40A 1_555 1_555
C42A C41A 1_555 1_555
H23A C42A 1_555 1_555
C43A C38A 1_555 1_555
H24A C43A 1_555 1_555
C44A C41A 1_555 1_555
C45A C44A 1_555 1_555
H25A C45A 1_555 1_555
C46A C45A 1_555 1_555
C47A C46A 1_555 1_555
H26A C47A 1_555 1_555
C48A C47A 1_555 1_555
C49A C44A 1_555 1_555
H27A C49A 1_555 1_555
C50A C48A 1_555 1_555
C51A C50A 1_555 1_555
H28A C51A 1_555 1_555
C52A C51A 1_555 1_555
H29A C52A 1_555 1_555
C53A C52A 1_555 1_555
C54A C53A 1_555 1_555
H30A C54A 1_555 1_555
C55A C50A 1_555 1_555
H31A C55A 1_555 1_555
C56A C53A 1_555 1_555
C57A H32A 1_555 1_555
C58A C46A 1_555 1_555
C59A C58A 1_555 1_555
H33A C59A 1_555 1_555
C60A C59A 1_555 1_555
H34A C60A 1_555 1_555
C61A C60A 1_555 1_555
C62A C57A 1_555 1_555
H35A C62A 1_555 1_555
C63A C61A 1_555 1_555
Eu1B O1B 1_555 1_555
In1B O9B 1_555 1_555
O3B Eu1B 1_555 1_555
O4B Eu1B 1_555 1_555
O5B C29B 1_555 1_555
O6B C29B 1_555 1_555
O7B Eu1B 1_555 1_555
O8B Eu1B 1_555 1_555
O9B C36B 1_555 1_555
O10B In1B 1_555 1_555
O11B C56B 1_555 1_555
O12B C56B 1_555 1_555
O13B C63B 1_555 1_555
O14B C63B 1_555 1_555
O15B In1B 1_555 1_555
O16B In1B 1_555 1_555
C10B O3B 1_555 1_555
C11B C10B 1_555 1_555
C12B C11B 1_555 1_555
H6B C12B 1_555 1_555
C13B C12B 1_555 1_555
H7B C13B 1_555 1_555
C14B C13B 1_555 1_555
C15B C14B 1_555 1_555
H8B C15B 1_555 1_555
C16B C11B 1_555 1_555
H9B C16B 1_555 1_555
C17B C14B 1_555 1_555
C18B C17B 1_555 1_555
H10B C18B 1_555 1_555
C19B C18B 1_555 1_555
C20B C19B 1_555 1_555
H11B C20B 1_555 1_555
C21B C20B 1_555 1_555
C22B C17B 1_555 1_555
H12B C22B 1_555 1_555
C23B C21B 1_555 1_555
C24B C23B 1_555 1_555
H13B C24B 1_555 1_555
C25B C24B 1_555 1_555
H14B C25B 1_555 1_555
C26B C25B 1_555 1_555
C27B C26B 1_555 1_555
H15B C27B 1_555 1_555
C28B C23B 1_555 1_555
H16B C28B 1_555 1_555
C29B C26B 1_555 1_555
C30B C19B 1_555 1_555
C31B C30B 1_555 1_555
H17B C31B 1_555 1_555
C32B C31B 1_555 1_555
H18B C32B 1_555 1_555
C33B C32B 1_555 1_555
C34B C33B 1_555 1_555
H19B C34B 1_555 1_555
C35B C30B 1_555 1_555
H20B C35B 1_555 1_555
C36B O10B 1_555 1_555
C37B O7B 1_555 1_555
C38B C37B 1_555 1_555
C39B C38B 1_555 1_555
H21B C39B 1_555 1_555
C40B C39B 1_555 1_555
H22B C40B 1_555 1_555
C41B C40B 1_555 1_555
C42B C41B 1_555 1_555
H23B C42B 1_555 1_555
C43B C38B 1_555 1_555
H24B C43B 1_555 1_555
C44B C41B 1_555 1_555
C45B C44B 1_555 1_555
H25B C45B 1_555 1_555
C46B C45B 1_555 1_555
C47B C46B 1_555 1_555
H26B C47B 1_555 1_555
C48B C47B 1_555 1_555
C49B C44B 1_555 1_555
H27B C49B 1_555 1_555
C50B C48B 1_555 1_555
C51B C50B 1_555 1_555
H28B C51B 1_555 1_555
C52B C51B 1_555 1_555
H29B C52B 1_555 1_555
C53B C52B 1_555 1_555
C54B C53B 1_555 1_555
H30B C54B 1_555 1_555
C55B C50B 1_555 1_555
H31B C55B 1_555 1_555
C56B C53B 1_555 1_555
C57B H32B 1_555 1_555
C58B C46B 1_555 1_555
C59B C58B 1_555 1_555
H33B C59B 1_555 1_555
C60B C59B 1_555 1_555
H34B C60B 1_555 1_555
C61B C60B 1_555 1_555
C62B C57B 1_555 1_555
H35B C62B 1_555 1_555
C63B C61B 1_555 1_555
Eu1C O5B 1_555 1_555
Eu1D O5 1_555 1_555
Eu1E O5A 1_555 1_555
In1C O11B 1_555 1_555
In1D O11 1_555 1_555
In1E O11A 1_555 1_555
In1F O13 1_555 1_555
In1G O13A 1_555 1_555
In1H O13B 1_555 1_555
O5F Eu1A 1_555 1_555
O5G Eu1B 1_555 1_555
O5H Eu1 1_555 1_555
O6F Eu1A 1_555 1_555
O6G Eu1B 1_555 1_555
O6H Eu1 1_555 1_555
O11F In1A 1_555 1_555
O11G In1B 1_555 1_555
O11H In1 1_555 1_555
O12F In1A 1_555 1_555
O12G In1B 1_555 1_555
O12H In1 1_555 1_555
O13C In1 1_555 1_555
O13D In1A 1_555 1_555
O13E In1B 1_555 1_555
O4 C10 1_555 1_555
O6 Eu1D 1_555 1_555
O8 C37 1_555 1_555
O12 In1D 1_555 1_555
C6 C7 1_555 1_555
C15 C16 1_555 1_555
C21 C22 1_555 1_555
C27 C28 1_555 1_555
C33 C36 1_555 1_555
C34 C35 1_555 1_555
C42 C43 1_555 1_555
C48 C49 1_555 1_555
C54 C55 1_555 1_555
C57 C58 1_555 1_555
C61 C62 1_555 1_555
O2A Eu1A 1_555 1_555
C6A C7A 1_555 1_555
C8A C9A 1_555 1_555
O2B Eu1B 1_555 1_555
C5B C8B 1_555 1_555
C6B C7B 1_555 1_555
C8B C9B 1_555 1_555
O4A C10A 1_555 1_555
O6A Eu1E 1_555 1_555
O8A C37A 1_555 1_555
O12A In1E 1_555 1_555
C15A C16A 1_555 1_555
C21A C22A 1_555 1_555
C27A C28A 1_555 1_555
C33A C36A 1_555 1_555
C34A C35A 1_555 1_555
C42A C43A 1_555 1_555
C48A C49A 1_555 1_555
C54A C55A 1_555 1_555
C57A C58A 1_555 1_555
C61A C62A 1_555 1_555
O4B C10B 1_555 1_555
O6B Eu1C 1_555 1_555
O8B C37B 1_555 1_555
O12B In1C 1_555 1_555
C15B C16B 1_555 1_555
C21B C22B 1_555 1_555
C27B C28B 1_555 1_555
C33B C36B 1_555 1_555
C34B C35B 1_555 1_555
C42B C43B 1_555 1_555
C48B C49B 1_555 1_555
C54B C55B 1_555 1_555
C57B C58B 1_555 1_555
C61B C62B 1_555 1_555

#END
