
#######################################################################
#
#                 Cambridge Crystallographic Data Centre
#                                CCDC 
#
#######################################################################
#
# If this CIF has been generated from an entry in the Cambridge 
# Structural Database, then it will include bibliographic, chemical, 
# crystal, experimental, refinement or atomic coordinate data resulting 
# from the CCDC's data processing and validation procedures.
#
#######################################################################

data_KURSOH
_symmetry_cell_setting           monoclinic
_symmetry_space_group_name_H-M   'P 21/c'
_symmetry_Int_Tables_number      14
_space_group_name_Hall           '-P 2ybc'
loop_
_symmetry_equiv_pos_site_id
_symmetry_equiv_pos_as_xyz
1 x,y,z
2 -x,1/2+y,1/2-z
3 -x,-y,-z
4 x,1/2-y,1/2+z
_cell_length_a                   6.981(1)
_cell_length_b                   26.778(4)
_cell_length_c                   13.660(2)
_cell_angle_alpha                90
_cell_angle_beta                 98.150(5)
_cell_angle_gamma                90
_cell_volume                     2527.77
loop_
_atom_site_label
_atom_site_type_symbol
_atom_site_fract_x
_atom_site_fract_y
_atom_site_fract_z
Zn1 Zn 0.86657(10) 0.02820(3) 0.89347(5)
O1 O 1.0326(7) 0.0855(2) 0.9000(3)
O2 O 0.7647(8) 0.1295(3) 0.8881(5)
C1 C 0.9382(12) 0.1256(4) 0.8898(6)
C2 C 1.0605(11) 0.1713(4) 0.8796(7)
C3 C 0.9788(12) 0.2174(4) 0.8526(9)
H1 H 0.8475 0.2221 0.8548
C4 C 1.0856(15) 0.2564(5) 0.8226(7)
H2 H 1.0267 0.2848 0.7932
C5 C 1.2886(10) 0.2509(4) 0.8387(7)
C6 C 1.3753(11) 0.2101(4) 0.8772(6)
H3 H 1.5094 0.2089 0.8917
C7 C 1.2610(11) 0.1683(4) 0.8961(6)
H4 H 1.3207 0.1387 0.9196
N1 N 1.4133(9) 0.2899(3) 0.8117(6)
N2 N 1.3316(9) 0.3224(3) 0.7553(5)
C8 C 1.4644(10) 0.3570(4) 0.7228(6)
C9 C 1.6531(11) 0.3640(4) 0.7644(6)
H5 H 1.7036 0.3450 0.8190
C10 C 1.7688(9) 0.3985(3) 0.7269(5)
H6 H 1.8950 0.4037 0.7573
C11 C 1.6951(9) 0.4257(3) 0.6426(5)
C12 C 1.5010(9) 0.4209(3) 0.6018(5)
H7 H 1.4482 0.4403 0.5484
C13 C 1.3875(10) 0.3856(4) 0.6441(5)
H8 H 1.2580 0.3817 0.6180
C14 C 1.8174(8) 0.4621(3) 0.5954(5)
O3 O 1.9845(6) 0.4704(2) 0.6446(3)
O4 O 1.7552(6) 0.48176(19) 0.5152(3)
N3 N 0.6375(8) 0.0221(2) 0.7889(4)
C15 C 0.6392(9) -0.0081(3) 0.7119(5)
H9 H 0.7515 -0.0260 0.7066
C16 C 0.4834(10) -0.0142(3) 0.6402(5)
H10 H 0.4912 -0.0358 0.5876
C17 C 0.3159(9) 0.0116(4) 0.6458(5)
C18 C 0.3123(10) 0.0436(3) 0.7254(5)
H11 H 0.2022 0.0622 0.7317
C19 C 0.4755(10) 0.0472(4) 0.7948(5)
H12 H 0.4720 0.0684 0.8486
C20 C 0.1428(10) 0.0056(4) 0.5673(6)
N4 N 0.1664(9) -0.0246(3) 0.4914(5)
N5 N -0.0117(10) 0.0287(3) 0.5813(5)
N3B N -0.6375(8) -0.0221(2) 0.2111(4)
C15B C -0.6392(9) 0.0081(3) 0.2881(5)
H9B H -0.7515 0.0260 0.2934
C16B C -0.4834(10) 0.0142(3) 0.3598(5)
H10B H -0.4912 0.0358 0.4124
C17B C -0.3159(9) -0.0116(4) 0.3542(5)
C18B C -0.3123(10) -0.0436(3) 0.2746(5)
H11B H -0.2022 -0.0622 0.2683
C19B C -0.4755(10) -0.0472(4) 0.2052(5)
H12B H -0.4720 -0.0684 0.1514
C20B C -0.1428(10) -0.0056(4) 0.4327(6)
N4B N -0.1664(9) 0.0246(3) 0.5086(5)
N5B N 0.0117(10) -0.0287(3) 0.4187(5)
Zn1B Zn -0.86657(10) -0.02820(3) 0.10653(5)
O1B O -1.0326(7) -0.0855(2) 0.1000(3)
O2B O -0.7647(8) -0.1295(3) 0.1119(5)
C1B C -0.9382(12) -0.1256(4) 0.1102(6)
C2B C -1.0605(11) -0.1713(4) 0.1204(7)
C3B C -0.9788(12) -0.2174(4) 0.1474(9)
H1B H -0.8475 -0.2221 0.1452
C4B C -1.0856(15) -0.2564(5) 0.1774(7)
H2B H -1.0267 -0.2848 0.2068
C5B C -1.2886(10) -0.2509(4) 0.1613(7)
C6B C -1.3753(11) -0.2101(4) 0.1228(6)
H3B H -1.5094 -0.2089 0.1083
C7B C -1.2610(11) -0.1683(4) 0.1039(6)
H4B H -1.3207 -0.1387 0.0804
N1B N -1.4133(9) -0.2899(3) 0.1883(6)
N2B N -1.3316(9) -0.3224(3) 0.2447(5)
C8B C -1.4644(10) -0.3570(4) 0.2772(6)
C9B C -1.6531(11) -0.3640(4) 0.2356(6)
H5B H -1.7036 -0.3450 0.1810
C10B C -1.7688(9) -0.3985(3) 0.2731(5)
H6B H -1.8950 -0.4037 0.2427
C11B C -1.6951(9) -0.4257(3) 0.3574(5)
C12B C -1.5010(9) -0.4209(3) 0.3982(5)
H7B H -1.4482 -0.4403 0.4516
C13B C -1.3875(10) -0.3856(4) 0.3559(5)
H8B H -1.2580 -0.3817 0.3820
C14B C -1.8174(8) -0.4621(3) 0.4046(5)
O3B O -1.9845(6) -0.4704(2) 0.3554(3)
O4B O -1.7552(6) -0.48176(19) 0.4848(3)
Zn1A Zn -1.86657(10) -0.47180(3) 0.60653(5)
Zn1A_2 Zn 2.13343(10) 0.52820(3) 0.60653(5)
Zn1C Zn -2.13343(10) -0.52820(3) 0.39347(5)
Zn1C_2 Zn 1.86657(10) 0.47180(3) 0.39347(5)
O3A O 1.0155(6) -0.0296(2) 0.8554(3)
O3C O -1.0155(6) 0.0296(2) 0.1446(3)
O4A O -0.7552(6) -0.01824(19) -0.0152(3)
O4C O 0.7552(6) 0.01824(19) 1.0152(3)
loop_
_geom_bond_atom_site_label_1
_geom_bond_atom_site_label_2
_geom_bond_site_symmetry_1
_geom_bond_site_symmetry_2
Zn1 O1 1_555 1_555
O1 C1 1_555 1_555
O2 C1 1_555 1_555
C1 C2 1_555 1_555
C2 C3 1_555 1_555
C3 H1 1_555 1_555
C4 C3 1_555 1_555
H2 C4 1_555 1_555
C5 C4 1_555 1_555
C6 C5 1_555 1_555
H3 C6 1_555 1_555
C7 C2 1_555 1_555
H4 C7 1_555 1_555
N1 C5 1_555 1_555
N2 N1 1_555 1_555
C8 N2 1_555 1_555
C9 C8 1_555 1_555
H5 C9 1_555 1_555
C10 C9 1_555 1_555
H6 C10 1_555 1_555
C11 C10 1_555 1_555
C12 C11 1_555 1_555
H7 C12 1_555 1_555
C13 C8 1_555 1_555
H8 C13 1_555 1_555
C14 C11 1_555 1_555
O3 C14 1_555 1_555
O4 C14 1_555 1_555
N3 Zn1 1_555 1_555
C15 N3 1_555 1_555
H9 C15 1_555 1_555
C16 C15 1_555 1_555
H10 C16 1_555 1_555
C17 C16 1_555 1_555
C18 C17 1_555 1_555
H11 C18 1_555 1_555
C19 N3 1_555 1_555
H12 C19 1_555 1_555
C20 C17 1_555 1_555
N4 C20 1_555 1_555
N5 C20 1_555 1_555
N3B C15B 1_555 1_555
C15B H9B 1_555 1_555
C16B C15B 1_555 1_555
H10B C16B 1_555 1_555
C17B C16B 1_555 1_555
C18B C17B 1_555 1_555
H11B C18B 1_555 1_555
C19B N3B 1_555 1_555
H12B C19B 1_555 1_555
C20B C17B 1_555 1_555
N4B N5 1_555 1_555
N5B N4 1_555 1_555
Zn1B N3B 1_555 1_555
O1B Zn1B 1_555 1_555
O2B C1B 1_555 1_555
C1B O1B 1_555 1_555
C2B C1B 1_555 1_555
C3B C2B 1_555 1_555
H1B C3B 1_555 1_555
C4B C3B 1_555 1_555
H2B C4B 1_555 1_555
C5B C4B 1_555 1_555
C6B C5B 1_555 1_555
H3B C6B 1_555 1_555
C7B C2B 1_555 1_555
H4B C7B 1_555 1_555
N1B C5B 1_555 1_555
N2B N1B 1_555 1_555
C8B N2B 1_555 1_555
C9B C8B 1_555 1_555
H5B C9B 1_555 1_555
C10B C9B 1_555 1_555
H6B C10B 1_555 1_555
C11B C10B 1_555 1_555
C12B C11B 1_555 1_555
H7B C12B 1_555 1_555
C13B C8B 1_555 1_555
H8B C13B 1_555 1_555
C14B C11B 1_555 1_555
O3B C14B 1_555 1_555
O4B C14B 1_555 1_555
Zn1A O4B 1_555 1_555
Zn1A_2 O3 1_555 1_555
Zn1C O3B 1_555 1_555
Zn1C_2 O4 1_555 1_555
O3A Zn1 1_555 1_555
O3C Zn1B 1_555 1_555
O4A Zn1B 1_555 1_555
O4C Zn1 1_555 1_555
C6 C7 1_555 1_555
C12 C13 1_555 1_555
C18 C19 1_555 1_555
C18B C19B 1_555 1_555
C20B N4B 1_555 1_555
C20B N5B 1_555 1_555
C6B C7B 1_555 1_555
C12B C13B 1_555 1_555

#END
