
#######################################################################
#
#                 Cambridge Crystallographic Data Centre
#                                CCDC 
#
#######################################################################
#
# If this CIF has been generated from an entry in the Cambridge 
# Structural Database, then it will include bibliographic, chemical, 
# crystal, experimental, refinement or atomic coordinate data resulting 
# from the CCDC's data processing and validation procedures.
#
#######################################################################

data_KUTCUZ
_symmetry_cell_setting           monoclinic
_symmetry_space_group_name_H-M   'C 2'
_symmetry_Int_Tables_number      5
_space_group_name_Hall           'C 2y'
loop_
_symmetry_equiv_pos_site_id
_symmetry_equiv_pos_as_xyz
1 x,y,z
2 -x,y,-z
3 1/2+x,1/2+y,z
4 1/2-x,1/2+y,-z
_cell_length_a                   14.430(3)
_cell_length_b                   40.910(9)
_cell_length_c                   30.645(6)
_cell_angle_alpha                90
_cell_angle_beta                 101.996(3)
_cell_angle_gamma                90
_cell_volume                     17695.6
loop_
_atom_site_label
_atom_site_type_symbol
_atom_site_fract_x
_atom_site_fract_y
_atom_site_fract_z
Cd1 Cd -0.5000 -0.45278(7) 0.0000
Cd2 Cd -0.25520(13) -0.47711(5) 0.00506(6)
Cd3 Cd 0.0000 -0.66101(9) 0.5000
Cd4 Cd 0.0000 -0.74652(7) 0.5000
Cd5 Cd 0.24439(15) -0.72104(6) 0.50652(6)
Cd6 Cd -0.5000 -0.53802(9) 0.0000
Ni1 Ni -0.3969(2) -0.39376(9) 0.27885(10)
Ni2 Ni -0.1734(3) -0.64616(10) 0.22677(11)
Ni3 Ni -0.3957(2) -0.30387(9) -0.22137(12)
Ni4 Ni -0.6721(2) -0.55254(9) -0.27112(9)
N1 N -0.5022(14) -0.3770(5) 0.2990(6)
N2 N -0.4814(11) -0.4157(5) 0.2340(6)
N3 N -0.2957(12) -0.6340(5) 0.2018(5)
N4 N -0.2294(16) -0.6559(6) 0.2740(6)
N5 N -0.4886(11) -0.2923(4) -0.2710(7)
N6 N -0.4955(13) -0.3135(5) -0.1968(6)
N7 N -0.7220(10) -0.5349(5) -0.2256(5)
N8 N -0.7913(16) -0.5653(7) -0.2974(8)
O1 O -0.2801(12) -0.2760(4) 0.4824(5)
O2 O -0.4397(18) -0.2799(6) 0.4576(8)
O3 O -0.3106(12) -0.3771(5) 0.3257(5)
O4 O -0.3017(9) -0.4075(5) 0.2536(4)
O5 O -0.3573(12) -0.4560(5) 0.0549(5)
O6 O -0.2096(11) -0.4572(5) 0.0750(5)
O7 O -0.3449(15) -0.5311(6) 0.0445(6)
O8 O -0.2021(14) -0.5291(6) 0.0321(5)
O9 O -0.1251(9) -0.6359(3) 0.1776(4)
O10 O -0.0547(11) -0.6552(5) 0.2571(4)
O11 O 0.1745(14) -0.7118(5) 0.4378(6)
O12 O 0.0383(10) -0.7032(4) 0.4593(5)
O13 O -0.2014(12) -0.2358(4) -0.4212(5)
O14 O -0.3641(10) -0.2371(6) -0.4446(5)
O15 O -0.2861(12) -0.2937(5) -0.2431(5)
O16 O -0.3040(11) -0.3168(4) -0.1708(5)
O17 O -0.4421(9) -0.4202(5) -0.0416(5)
O18 O -0.2886(15) -0.4275(6) -0.0250(7)
O19 O -0.4516(13) -0.4963(5) -0.0422(5)
O20 O -0.3176(10) -0.4939(4) -0.0619(4)
O21 O -0.5467(12) -0.5412(4) -0.2461(4)
O22 O -0.6172(12) -0.5689(5) -0.3166(6)
O23 O -0.7238(15) -0.6661(6) -0.4790(6)
O24 O -0.8645(13) -0.6605(7) -0.4631(6)
O25 O -0.552(3) -0.5759(9) 0.0376(10)
O26 O -0.1266(10) -0.4759(4) -0.0154(5)
C1 C -0.3556(16) -0.2861(7) 0.4569(8)
C2 C -0.3453(9) -0.3153(4) 0.4266(4)
C3 C -0.2554(8) -0.3260(4) 0.4235(5)
H1 H -0.2025 -0.3186 0.4439
C4 C -0.2447(7) -0.3476(4) 0.3899(5)
C5 C -0.3238(9) -0.3585(4) 0.3594(4)
C6 C -0.4136(8) -0.3478(4) 0.3626(4)
C7 C -0.4244(7) -0.3262(4) 0.3962(5)
H2 H -0.4845 -0.3191 0.3983
O27 O -0.0408(17) -0.6219(6) 0.5510(8)
C8 C -0.140(2) -0.4019(6) 0.3944(12)
H3 H -0.1770 -0.4095 0.3665
H4 H -0.1639 -0.4115 0.4185
H5 H -0.0751 -0.4082 0.3968
C9 C -0.1471(13) -0.3645(6) 0.3967(8)
C10 C -0.101(2) -0.3561(13) 0.3570(9)
H6 H -0.1448 -0.3607 0.3295
H7 H -0.0449 -0.3691 0.3586
H8 H -0.0843 -0.3334 0.3580
C11 C -0.0805(17) -0.3603(7) 0.4438(7)
H9 H -0.1146 -0.3659 0.4665
H10 H -0.0597 -0.3380 0.4476
H11 H -0.0265 -0.3744 0.4461
C12 C -0.5009(15) -0.3586(5) 0.3319(6)
H12 H -0.5586 -0.3513 0.3372
C13 C -0.5875(13) -0.3869(6) 0.2685(7)
C14 C -0.6792(13) -0.3794(6) 0.2844(7)
H13 H -0.6857 -0.3559 0.2869
H14 H -0.6754 -0.3888 0.3137
C15 C -0.7684(18) -0.3932(7) 0.2519(10)
H15 H -0.8179 -0.3970 0.2685
H16 H -0.7914 -0.3770 0.2291
C16 C -0.7490(16) -0.4249(5) 0.2296(8)
H17 H -0.8038 -0.4299 0.2063
H18 H -0.7426 -0.4423 0.2515
C17 C -0.6615(17) -0.4252(7) 0.2090(8)
H19 H -0.6528 -0.4466 0.1969
H20 H -0.6680 -0.4093 0.1851
C18 C -0.5801(11) -0.4168(5) 0.2451(6)
H21 H -0.5771 -0.4342 0.2674
C19 C -0.465(2) -0.4260(7) 0.1947(8)
H22 H -0.5155 -0.4345 0.1738
C20 C -0.3809(9) -0.4247(5) 0.1843(5)
C21 C -0.2961(11) -0.4195(5) 0.2146(4)
C22 C -0.2104(9) -0.4249(5) 0.2018(4)
C23 C -0.2096(9) -0.4355(5) 0.1588(5)
H23 H -0.1523 -0.4391 0.1502
C24 C -0.2944(11) -0.4406(5) 0.1285(4)
C25 C -0.3801(9) -0.4352(5) 0.1413(4)
H24 H -0.4369 -0.4386 0.1210
C26 C -0.1190(12) -0.4121(5) 0.2337(7)
C27 C -0.109(2) -0.4301(8) 0.2783(9)
H25 H -0.1625 -0.4253 0.2911
H26 H -0.0520 -0.4230 0.2982
H27 H -0.1055 -0.4532 0.2734
C28 C -0.0340(15) -0.4195(6) 0.2113(8)
H28 H 0.0237 -0.4122 0.2304
H29 H -0.0427 -0.4082 0.1833
H30 H -0.0304 -0.4426 0.2064
C29 C -0.1107(19) -0.3754(5) 0.2426(9)
H31 H -0.1618 -0.3683 0.2560
H32 H -0.1137 -0.3640 0.2149
H33 H -0.0514 -0.3707 0.2624
C30 C -0.2871(16) -0.4505(7) 0.0842(8)
C31 C -0.272(2) -0.5415(7) 0.0482(10)
C32 C -0.2337(12) -0.5714(4) 0.0785(5)
C33 C -0.2914(8) -0.5826(4) 0.1064(5)
H34 H -0.3527 -0.5745 0.1033
C34 C -0.2576(10) -0.6059(4) 0.1388(5)
C35 C -0.1660(11) -0.6179(4) 0.1434(5)
C36 C -0.1083(9) -0.6067(5) 0.1155(6)
C37 C -0.1421(11) -0.5834(5) 0.0830(5)
H35 H -0.1035 -0.5759 0.0644
C38 C -0.0085(11) -0.6209(5) 0.1129(6)
C39 C 0.0587(17) -0.6090(9) 0.1558(9)
H36 H 0.0332 -0.6149 0.1813
H37 H 0.0652 -0.5857 0.1548
H38 H 0.1197 -0.6190 0.1581
C40 C -0.023(2) -0.6575(6) 0.1051(9)
H39 H -0.0458 -0.6670 0.1294
H40 H 0.0366 -0.6674 0.1032
H41 H -0.0679 -0.6611 0.0777
C41 C 0.0366(18) -0.6084(7) 0.0741(8)
H42 H 0.0964 -0.6190 0.0755
H43 H 0.0460 -0.5852 0.0768
H44 H -0.0049 -0.6133 0.0461
C42 C -0.3149(18) -0.6150(6) 0.1661(8)
H45 H -0.3764 -0.6068 0.1590
C43 C -0.3715(12) -0.6511(6) 0.2218(6)
H46 H -0.3721 -0.6742 0.2132
C44 C -0.473(2) -0.6378(15) 0.2059(15)
H47 H -0.4775 -0.6147 0.2125
H48 H -0.4972 -0.6415 0.1743
C45 C -0.5237(19) -0.6587(7) 0.2343(7)
H49 H -0.5200 -0.6812 0.2250
H50 H -0.5901 -0.6525 0.2277
C46 C -0.4886(17) -0.6573(9) 0.2851(8)
H51 H -0.4932 -0.6351 0.2957
H52 H -0.5273 -0.6713 0.2996
C47 C -0.3853(15) -0.6687(9) 0.2962(8)
H53 H -0.3824 -0.6917 0.2891
H54 H -0.3602 -0.6661 0.3279
C48 C -0.3244(17) -0.6490(7) 0.2697(8)
H55 H -0.3283 -0.6260 0.2784
C49 C -0.1817(18) -0.6684(6) 0.3131(8)
H56 H -0.2175 -0.6745 0.3338
C50 C -0.0803(8) -0.6732(5) 0.3258(5)
C51 C -0.0210(11) -0.6682(5) 0.2960(4)
C52 C 0.0750(10) -0.6753(5) 0.3086(4)
C53 C 0.1118(8) -0.6875(4) 0.3510(5)
H57 H 0.1760 -0.6923 0.3594
C54 C 0.0526(10) -0.6926(4) 0.3808(3)
C55 C -0.0435(9) -0.6854(4) 0.3682(4)
H58 H -0.0831 -0.6888 0.3882
C56 C 0.1459(11) -0.6701(5) 0.2768(5)
C57 C 0.1499(16) -0.6335(5) 0.2653(6)
H59 H 0.0876 -0.6261 0.2513
H60 H 0.1921 -0.6304 0.2452
H61 H 0.1724 -0.6212 0.2921
C58 C 0.1106(17) -0.6898(6) 0.2330(7)
H62 H 0.0491 -0.6820 0.2185
H63 H 0.1066 -0.7125 0.2400
H64 H 0.1542 -0.6869 0.2135
C59 C 0.2468(17) -0.6832(8) 0.2977(10)
H65 H 0.2882 -0.6796 0.2774
H66 H 0.2433 -0.7062 0.3036
H67 H 0.2711 -0.6719 0.3252
C60 C 0.0935(16) -0.6989(7) 0.4294(8)
C61 C -0.2845(17) -0.2412(5) -0.4158(5)
C62 C -0.2860(10) -0.2549(4) -0.3690(4)
C63 C -0.2024(8) -0.2625(5) -0.3391(5)
H68 H -0.1443 -0.2589 -0.3470
C64 C -0.2054(9) -0.2754(5) -0.2975(4)
C65 C -0.2921(11) -0.2808(5) -0.2857(4)
C66 C -0.3758(8) -0.2732(4) -0.3156(4)
C67 C -0.3728(8) -0.2603(4) -0.3572(4)
H69 H -0.4288 -0.2553 -0.3772
C68 C -0.1101(12) -0.2781(5) -0.2657(6)
C69 C -0.0239(14) -0.2654(6) -0.2818(8)
H70 H -0.0221 -0.2750 -0.3102
H71 H 0.0326 -0.2712 -0.2607
H72 H -0.0278 -0.2421 -0.2848
C70 C -0.093(2) -0.3143(6) -0.2561(9)
H73 H -0.0962 -0.3258 -0.2836
H74 H -0.1410 -0.3225 -0.2414
H75 H -0.0319 -0.3173 -0.2372
C71 C -0.7595(13) -0.2911(7) -0.2833(6)
H76 H -0.7757 -0.3132 -0.2935
H77 H -0.8093 -0.2768 -0.2986
C72 C -0.1051(18) -0.2620(6) -0.2192(7)
H78 H -0.1565 -0.2698 -0.2066
H79 H -0.1098 -0.2387 -0.2226
H80 H -0.0460 -0.2675 -0.1998
C73 C -0.4728(14) -0.2792(6) -0.3035(7)
H81 H -0.5253 -0.2717 -0.3239
C74 C -0.5868(13) -0.3000(6) -0.2666(5)
H82 H -0.5969 -0.3231 -0.2744
C75 C -0.6665(14) -0.2815(6) -0.2967(7)
H83 H -0.6690 -0.2871 -0.3277
H84 H -0.6563 -0.2581 -0.2932
C76 C -0.7573(16) -0.2895(7) -0.2327(6)
H85 H -0.7530 -0.2668 -0.2232
H86 H -0.8158 -0.2984 -0.2269
C77 C -0.6770(12) -0.3077(5) -0.2069(6)
H87 H -0.6865 -0.3308 -0.2132
H88 H -0.6749 -0.3045 -0.1754
C78 C -0.5852(15) -0.2976(7) -0.2171(5)
H89 H -0.5775 -0.2743 -0.2094
C79 C -0.4907(17) -0.3319(6) -0.1636(7)
H90 H -0.5473 -0.3354 -0.1543
C80 C -0.4078(10) -0.3483(4) -0.1378(5)
C81 C -0.3182(13) -0.3352(4) -0.1361(5)
C82 C -0.2412(9) -0.3466(5) -0.1047(6)
C83 C -0.2539(11) -0.3710(5) -0.0750(5)
H91 H -0.2024 -0.3786 -0.0539
C84 C -0.3435(14) -0.3840(4) -0.0766(5)
C85 C -0.4205(10) -0.3727(5) -0.1080(6)
H92 H -0.4804 -0.3814 -0.1091
C86 C -0.1411(12) -0.3310(6) -0.1013(7)
C87 C -0.1593(17) -0.2937(6) -0.0981(8)
H93 H -0.1011 -0.2820 -0.0969
H94 H -0.1828 -0.2893 -0.0716
H95 H -0.2052 -0.2868 -0.1238
C88 C -0.100(2) -0.3432(8) -0.1408(9)
H96 H -0.0396 -0.3333 -0.1397
H97 H -0.1425 -0.3374 -0.1682
H98 H -0.0934 -0.3665 -0.1391
C89 C -0.0668(15) -0.3506(6) -0.0665(7)
H99 H -0.0050 -0.3413 -0.0647
H100 H -0.0664 -0.3730 -0.0757
H101 H -0.0835 -0.3495 -0.0378
C90 C -0.4045(14) -0.4955(7) -0.0717(7)
C91 C -0.3564(13) -0.4117(6) -0.0457(8)
C92 C -0.4472(11) -0.5105(5) -0.1161(3)
C93 C -0.5442(10) -0.5137(5) -0.1320(4)
H102 H -0.5859 -0.5095 -0.1132
C94 C -0.5791(8) -0.5232(5) -0.1759(4)
C95 C -0.5169(10) -0.5295(5) -0.2039(3)
C96 C -0.4198(9) -0.5263(5) -0.1881(4)
C97 C -0.3850(8) -0.5168(5) -0.1442(4)
H103 H -0.3200 -0.5146 -0.1336
C98 C -0.2453(15) -0.5257(6) -0.1954(8)
H104 H -0.2032 -0.5320 -0.2145
H105 H -0.2264 -0.5364 -0.1671
H106 H -0.2427 -0.5025 -0.1912
C99 C -0.3468(13) -0.5359(5) -0.2170(6)
C100 C -0.3507(18) -0.5727(5) -0.2240(8)
H107 H -0.3057 -0.5790 -0.2415
H108 H -0.4133 -0.5789 -0.2393
H109 H -0.3357 -0.5835 -0.1956
C101 C -0.3693(15) -0.5174(6) -0.2613(6)
H110 H -0.3238 -0.5231 -0.2789
H111 H -0.3667 -0.4943 -0.2557
H112 H -0.4317 -0.5232 -0.2773
C102 C -0.6782(16) -0.5254(6) -0.1877(6)
H113 H -0.7133 -0.5196 -0.1666
C103 C -0.8813(14) -0.5260(7) -0.2032(8)
H114 H -0.8611 -0.5050 -0.1899
H115 H -0.8698 -0.5427 -0.1801
C104 C -1.0234(13) -0.5560(7) -0.2530(7)
H116 H -1.0895 -0.5536 -0.2676
H117 H -1.0176 -0.5746 -0.2331
C105 C -0.9602(14) -0.5610(5) -0.2888(6)
H118 H -0.9798 -0.5808 -0.3056
H119 H -0.9693 -0.5428 -0.3094
C106 C -0.8190(18) -0.5815(7) -0.3308(7)
H120 H -0.8838 -0.5848 -0.3405
C107 C -0.8301(10) -0.5341(6) -0.2400(7)
H121 H -0.8441 -0.5159 -0.2612
C108 C -0.9889(12) -0.5252(6) -0.2269(7)
H122 H -1.0280 -0.5074 -0.2251
C109 C -0.856(2) -0.5636(6) -0.2667(8)
H123 H -0.8461 -0.5828 -0.2470
C110 C -0.7508(9) -0.5970(4) -0.3582(4)
C111 C -0.6598(10) -0.5848(4) -0.3553(4)
C112 C -0.6081(9) -0.5937(5) -0.3870(5)
C113 C -0.6474(11) -0.6147(5) -0.4215(5)
H124 H -0.6127 -0.6206 -0.4427
C114 C -0.7384(12) -0.6268(5) -0.4244(5)
C115 C -0.7901(9) -0.6180(5) -0.3927(5)
H125 H -0.8510 -0.6262 -0.3947
C116 C -0.4349(18) -0.5843(8) -0.3525(8)
H126 H -0.4479 -0.5783 -0.3241
H127 H -0.3784 -0.5735 -0.3566
H128 H -0.4264 -0.6075 -0.3536
C117 C -0.5185(15) -0.5740(6) -0.3897(8)
C118 C -0.4915(19) -0.5802(7) -0.4354(8)
H129 H -0.4353 -0.5681 -0.4369
H130 H -0.5425 -0.5734 -0.4589
H131 H -0.4799 -0.6031 -0.4385
C119 C -0.5232(15) -0.5373(5) -0.3830(8)
H132 H -0.5432 -0.5330 -0.3556
H133 H -0.5678 -0.5279 -0.4074
H134 H -0.4618 -0.5279 -0.3817
C120 C -0.7761(16) -0.6532(6) -0.4559(7)
N9 N -0.6752(16) -0.6108(6) 0.0469(9)
C121 C -0.605(3) -0.5995(13) 0.0240(16)
H135 H -0.5981 -0.6102 -0.0020
C122 C -0.677(4) -0.5977(13) 0.0893(13)
H136 H -0.7254 -0.6087 0.1014
H137 H -0.6917 -0.5748 0.0866
H138 H -0.6169 -0.6008 0.1089
C123 C -0.7433(17) -0.6336(8) 0.0258(10)
H139 H -0.7824 -0.6401 0.0462
H140 H -0.7118 -0.6525 0.0172
H141 H -0.7821 -0.6238 -0.0001
N10 N -0.0477(18) -0.4799(9) -0.0749(10)
C124 C -0.099(2) -0.4614(7) -0.0446(10)
H142 H -0.1101 -0.4390 -0.0484
C125 C -0.003(5) -0.5128(9) -0.0772(15)
H143 H -0.0171 -0.5265 -0.0539
H144 H 0.0641 -0.5104 -0.0734
H145 H -0.0284 -0.5226 -0.1057
C126 C -0.042(5) -0.4557(16) -0.1118(15)
H146 H -0.0678 -0.4351 -0.1053
H147 H -0.0770 -0.4639 -0.1397
H148 H 0.0233 -0.4528 -0.1137
N11 N 0.4469(10) -0.7221(4) 0.4228(4)
O28 O 0.4086(18) -0.7244(7) 0.4922(7)
C127 C 0.3977(17) -0.7121(7) 0.4555(7)
H149 H 0.3543 -0.6952 0.4486
C128 C 0.468(3) -0.7562(5) 0.4202(12)
H150 H 0.4376 -0.7682 0.4403
H151 H 0.5350 -0.7595 0.4282
H152 H 0.4445 -0.7638 0.3903
C129 C 0.478(3) -0.6979(7) 0.3952(11)
H153 H 0.4546 -0.6769 0.4015
H154 H 0.4551 -0.7032 0.3644
H155 H 0.5463 -0.6974 0.4014
N12 N -0.172(3) -0.6055(10) 0.5662(13)
C130 C -0.107(3) -0.6045(11) 0.5369(14)
H156 H -0.1148 -0.5922 0.5108
C131 C -0.149(4) -0.5850(15) 0.6044(17)
H157 H -0.1962 -0.5877 0.6222
H158 H -0.1483 -0.5626 0.5951
H159 H -0.0881 -0.5908 0.6217
C132 C -0.254(4) -0.6258(16) 0.556(2)
H160 H -0.2907 -0.6229 0.5787
H161 H -0.2347 -0.6483 0.5558
H162 H -0.2911 -0.6200 0.5276
Cd2A Cd -0.74480(13) -0.47711(5) -0.00506(6)
Cd5A Cd -1.24439(15) -0.72104(6) -0.50652(6)
Ni1A Ni -0.6031(2) -0.39376(9) -0.27885(10)
Ni2A Ni -0.8266(3) -0.64616(10) -0.22677(11)
Ni3A Ni -0.6043(2) -0.30387(9) 0.22137(12)
Ni4A Ni -0.3279(2) -0.55254(9) 0.27112(9)
N1A N -0.4978(14) -0.3770(5) -0.2990(6)
N2A N -0.5186(11) -0.4157(5) -0.2340(6)
N3A N -0.7043(12) -0.6340(5) -0.2018(5)
N4A N -0.7706(16) -0.6559(6) -0.2740(6)
N5A N -0.5114(11) -0.2923(4) 0.2710(7)
N6A N -0.5045(13) -0.3135(5) 0.1968(6)
N7A N -0.2780(10) -0.5349(5) 0.2256(5)
N8A N -0.2087(16) -0.5653(7) 0.2974(8)
O1A O -0.7199(12) -0.2760(4) -0.4824(5)
O2A O -0.5603(18) -0.2799(6) -0.4576(8)
O3A O -0.6894(12) -0.3771(5) -0.3257(5)
O4A O -0.6983(9) -0.4075(5) -0.2536(4)
O5A O -0.6427(12) -0.4560(5) -0.0549(5)
O6A O -0.7904(11) -0.4572(5) -0.0750(5)
O7A O -0.6551(15) -0.5311(6) -0.0445(6)
O8A O -0.7979(14) -0.5291(6) -0.0321(5)
O9A O -0.8749(9) -0.6359(3) -0.1776(4)
O10A O -0.9453(11) -0.6552(5) -0.2571(4)
O11A O -1.1745(14) -0.7118(5) -0.4378(6)
O12A O -1.0383(10) -0.7032(4) -0.4593(5)
O13A O -0.7986(12) -0.2358(4) 0.4212(5)
O14A O -0.6359(10) -0.2371(6) 0.4446(5)
O15A O -0.7139(12) -0.2937(5) 0.2431(5)
O16A O -0.6960(11) -0.3168(4) 0.1708(5)
O17A O -0.5579(9) -0.4202(5) 0.0416(5)
O18A O -0.7114(15) -0.4275(6) 0.0250(7)
O19A O -0.5484(13) -0.4963(5) 0.0422(5)
O20A O -0.6824(10) -0.4939(4) 0.0619(4)
O21A O -0.4533(12) -0.5412(4) 0.2461(4)
O22A O -0.3828(12) -0.5689(5) 0.3166(6)
O23A O -0.2762(15) -0.6661(6) 0.4790(6)
O24A O -0.1355(13) -0.6605(7) 0.4631(6)
O25A O -0.448(3) -0.5759(9) -0.0376(10)
O26A O -0.8734(10) -0.4759(4) 0.0154(5)
C1A C -0.6444(16) -0.2861(7) -0.4569(8)
C2A C -0.6547(9) -0.3153(4) -0.4266(4)
C3A C -0.7446(8) -0.3260(4) -0.4235(5)
H1A H -0.7975 -0.3186 -0.4439
C4A C -0.7553(7) -0.3476(4) -0.3899(5)
C5A C -0.6762(9) -0.3585(4) -0.3594(4)
C6A C -0.5864(8) -0.3478(4) -0.3626(4)
C7A C -0.5756(7) -0.3262(4) -0.3962(5)
H2A H -0.5155 -0.3191 -0.3983
C8A C -0.860(2) -0.4019(6) -0.3944(12)
H3A H -0.8230 -0.4095 -0.3665
H4A H -0.8361 -0.4115 -0.4185
H5A H -0.9249 -0.4082 -0.3968
C9A C -0.8529(13) -0.3645(6) -0.3967(8)
C10A C -0.899(2) -0.3561(13) -0.3570(9)
H6A H -0.8552 -0.3607 -0.3295
H7A H -0.9551 -0.3691 -0.3586
H8A H -0.9157 -0.3334 -0.3580
C11A C -0.9195(17) -0.3603(7) -0.4438(7)
H9A H -0.8854 -0.3659 -0.4665
H10A H -0.9403 -0.3380 -0.4476
H11A H -0.9735 -0.3744 -0.4461
C12A C -0.4991(15) -0.3586(5) -0.3319(6)
H12A H -0.4414 -0.3513 -0.3372
C13A C -0.4125(13) -0.3869(6) -0.2685(7)
C14A C -0.3208(13) -0.3794(6) -0.2844(7)
H13A H -0.3143 -0.3559 -0.2869
H14A H -0.3246 -0.3888 -0.3137
C15A C -0.2316(18) -0.3932(7) -0.2519(10)
H15A H -0.1821 -0.3970 -0.2685
H16A H -0.2086 -0.3770 -0.2291
C16A C -0.2510(16) -0.4249(5) -0.2296(8)
H17A H -0.1962 -0.4299 -0.2063
H18A H -0.2574 -0.4423 -0.2515
C17A C -0.3385(17) -0.4252(7) -0.2090(8)
H19A H -0.3472 -0.4466 -0.1969
H20A H -0.3320 -0.4093 -0.1851
C18A C -0.4199(11) -0.4168(5) -0.2451(6)
H21A H -0.4229 -0.4342 -0.2674
C19A C -0.535(2) -0.4260(7) -0.1947(8)
H22A H -0.4845 -0.4345 -0.1738
C20A C -0.6191(9) -0.4247(5) -0.1843(5)
C21A C -0.7039(11) -0.4195(5) -0.2146(4)
C22A C -0.7896(9) -0.4249(5) -0.2018(4)
C23A C -0.7904(9) -0.4355(5) -0.1588(5)
H23A H -0.8477 -0.4391 -0.1502
C24A C -0.7056(11) -0.4406(5) -0.1285(4)
C25A C -0.6199(9) -0.4352(5) -0.1413(4)
H24A H -0.5631 -0.4386 -0.1210
C26A C -0.8810(12) -0.4121(5) -0.2337(7)
C27A C -0.891(2) -0.4301(8) -0.2783(9)
H25A H -0.8375 -0.4253 -0.2911
H26A H -0.9480 -0.4230 -0.2982
H27A H -0.8945 -0.4532 -0.2734
C28A C -0.9660(15) -0.4195(6) -0.2113(8)
H28A H -1.0237 -0.4122 -0.2304
H29A H -0.9573 -0.4082 -0.1833
H30A H -0.9696 -0.4426 -0.2064
C29A C -0.8893(19) -0.3754(5) -0.2426(9)
H31A H -0.8382 -0.3683 -0.2560
H32A H -0.8863 -0.3640 -0.2149
H33A H -0.9486 -0.3707 -0.2624
C30A C -0.7129(16) -0.4505(7) -0.0842(8)
C31A C -0.728(2) -0.5415(7) -0.0482(10)
C32A C -0.7663(12) -0.5714(4) -0.0785(5)
C33A C -0.7086(8) -0.5826(4) -0.1064(5)
H34A H -0.6473 -0.5745 -0.1033
C34A C -0.7424(10) -0.6059(4) -0.1388(5)
C35A C -0.8340(11) -0.6179(4) -0.1434(5)
C36A C -0.8917(9) -0.6067(5) -0.1155(6)
C37A C -0.8579(11) -0.5834(5) -0.0830(5)
H35A H -0.8965 -0.5759 -0.0644
C38A C -0.9915(11) -0.6209(5) -0.1129(6)
C39A C -1.0587(17) -0.6090(9) -0.1558(9)
H36A H -1.0332 -0.6149 -0.1813
H37A H -1.0652 -0.5857 -0.1548
H38A H -1.1197 -0.6190 -0.1581
C40A C -0.977(2) -0.6575(6) -0.1051(9)
H39A H -0.9542 -0.6670 -0.1294
H40A H -1.0366 -0.6674 -0.1032
H41A H -0.9321 -0.6611 -0.0777
C41A C -1.0366(18) -0.6084(7) -0.0741(8)
H42A H -1.0964 -0.6190 -0.0755
H43A H -1.0460 -0.5852 -0.0768
H44A H -0.9951 -0.6133 -0.0461
C42A C -0.6851(18) -0.6150(6) -0.1661(8)
H45A H -0.6236 -0.6068 -0.1590
C43A C -0.6285(12) -0.6511(6) -0.2218(6)
H46A H -0.6279 -0.6742 -0.2132
C44A C -0.527(2) -0.6378(15) -0.2059(15)
H47A H -0.5225 -0.6147 -0.2125
H48A H -0.5028 -0.6415 -0.1743
C45A C -0.4763(19) -0.6587(7) -0.2343(7)
H49A H -0.4800 -0.6812 -0.2250
H50A H -0.4099 -0.6525 -0.2277
C46A C -0.5114(17) -0.6573(9) -0.2851(8)
H51A H -0.5068 -0.6351 -0.2957
H52A H -0.4727 -0.6713 -0.2996
C47A C -0.6147(15) -0.6687(9) -0.2962(8)
H53A H -0.6176 -0.6917 -0.2891
H54A H -0.6398 -0.6661 -0.3279
C48A C -0.6756(17) -0.6490(7) -0.2697(8)
H55A H -0.6717 -0.6260 -0.2784
C49A C -0.8183(18) -0.6684(6) -0.3131(8)
H56A H -0.7825 -0.6745 -0.3338
C50A C -0.9197(8) -0.6732(5) -0.3258(5)
C51A C -0.9790(11) -0.6682(5) -0.2960(4)
C52A C -1.0750(10) -0.6753(5) -0.3086(4)
C53A C -1.1118(8) -0.6875(4) -0.3510(5)
H57A H -1.1760 -0.6923 -0.3594
C54A C -1.0526(10) -0.6926(4) -0.3808(3)
C55A C -0.9565(9) -0.6854(4) -0.3682(4)
H58A H -0.9169 -0.6888 -0.3882
C56A C -1.1459(11) -0.6701(5) -0.2768(5)
C57A C -1.1499(16) -0.6335(5) -0.2653(6)
H59A H -1.0876 -0.6261 -0.2513
H60A H -1.1921 -0.6304 -0.2452
H61A H -1.1724 -0.6212 -0.2921
C58A C -1.1106(17) -0.6898(6) -0.2330(7)
H62A H -1.0491 -0.6820 -0.2185
H63A H -1.1066 -0.7125 -0.2400
H64A H -1.1542 -0.6869 -0.2135
C59A C -1.2468(17) -0.6832(8) -0.2977(10)
H65A H -1.2882 -0.6796 -0.2774
H66A H -1.2433 -0.7062 -0.3036
H67A H -1.2711 -0.6719 -0.3252
C60A C -1.0935(16) -0.6989(7) -0.4294(8)
C61A C -0.7155(17) -0.2412(5) 0.4158(5)
C62A C -0.7140(10) -0.2549(4) 0.3690(4)
C63A C -0.7976(8) -0.2625(5) 0.3391(5)
H68A H -0.8557 -0.2589 0.3470
C64A C -0.7946(9) -0.2754(5) 0.2975(4)
C65A C -0.7079(11) -0.2808(5) 0.2857(4)
C66A C -0.6242(8) -0.2732(4) 0.3156(4)
C67A C -0.6272(8) -0.2603(4) 0.3572(4)
H69A H -0.5712 -0.2553 0.3772
C68A C -0.8899(12) -0.2781(5) 0.2657(6)
C69A C -0.9761(14) -0.2654(6) 0.2818(8)
H70A H -0.9779 -0.2750 0.3102
H71A H -1.0326 -0.2712 0.2607
H72A H -0.9722 -0.2421 0.2848
C70A C -0.907(2) -0.3143(6) 0.2561(9)
H73A H -0.9038 -0.3258 0.2836
H74A H -0.8590 -0.3225 0.2414
H75A H -0.9681 -0.3173 0.2372
C71A C -0.2405(13) -0.2911(7) 0.2833(6)
H76A H -0.2243 -0.3132 0.2935
H77A H -0.1907 -0.2768 0.2986
C72A C -0.8949(18) -0.2620(6) 0.2192(7)
H78A H -0.8435 -0.2698 0.2066
H79A H -0.8902 -0.2387 0.2226
H80A H -0.9540 -0.2675 0.1998
C73A C -0.5272(14) -0.2792(6) 0.3035(7)
H81A H -0.4747 -0.2717 0.3239
C74A C -0.4132(13) -0.3000(6) 0.2666(5)
H82A H -0.4031 -0.3231 0.2744
C75A C -0.3335(14) -0.2815(6) 0.2967(7)
H83A H -0.3310 -0.2871 0.3277
H84A H -0.3437 -0.2581 0.2932
C76A C -0.2427(16) -0.2895(7) 0.2327(6)
H85A H -0.2470 -0.2668 0.2232
H86A H -0.1842 -0.2984 0.2269
C77A C -0.3230(12) -0.3077(5) 0.2069(6)
H87A H -0.3135 -0.3308 0.2132
H88A H -0.3251 -0.3045 0.1754
C78A C -0.4148(15) -0.2976(7) 0.2171(5)
H89A H -0.4225 -0.2743 0.2094
C79A C -0.5093(17) -0.3319(6) 0.1636(7)
H90A H -0.4527 -0.3354 0.1543
C80A C -0.5922(10) -0.3483(4) 0.1378(5)
C81A C -0.6818(13) -0.3352(4) 0.1361(5)
C82A C -0.7588(9) -0.3466(5) 0.1047(6)
C83A C -0.7461(11) -0.3710(5) 0.0750(5)
H91A H -0.7976 -0.3786 0.0539
C84A C -0.6565(14) -0.3840(4) 0.0766(5)
C85A C -0.5795(10) -0.3727(5) 0.1080(6)
H92A H -0.5196 -0.3814 0.1091
C86A C -0.8589(12) -0.3310(6) 0.1013(7)
C87A C -0.8407(17) -0.2937(6) 0.0981(8)
H93A H -0.8989 -0.2820 0.0969
H94A H -0.8172 -0.2893 0.0716
H95A H -0.7948 -0.2868 0.1238
C88A C -0.900(2) -0.3432(8) 0.1408(9)
H96A H -0.9604 -0.3333 0.1397
H97A H -0.8575 -0.3374 0.1682
H98A H -0.9066 -0.3665 0.1391
C89A C -0.9332(15) -0.3506(6) 0.0665(7)
H99A H -0.9950 -0.3413 0.0647
H100A H -0.9336 -0.3730 0.0757
H101A H -0.9165 -0.3495 0.0378
C90A C -0.5955(14) -0.4955(7) 0.0717(7)
C91A C -0.6436(13) -0.4117(6) 0.0457(8)
C92A C -0.5528(11) -0.5105(5) 0.1161(3)
C93A C -0.4558(10) -0.5137(5) 0.1320(4)
H102A H -0.4141 -0.5095 0.1132
C94A C -0.4209(8) -0.5232(5) 0.1759(4)
C95A C -0.4831(10) -0.5295(5) 0.2039(3)
C96A C -0.5802(9) -0.5263(5) 0.1881(4)
C97A C -0.6150(8) -0.5168(5) 0.1442(4)
H103A H -0.6800 -0.5146 0.1336
C98A C -0.7547(15) -0.5257(6) 0.1954(8)
H104A H -0.7968 -0.5320 0.2145
H105A H -0.7736 -0.5364 0.1671
H106A H -0.7573 -0.5025 0.1912
C99A C -0.6532(13) -0.5359(5) 0.2170(6)
C100A C -0.6493(18) -0.5727(5) 0.2240(8)
H107A H -0.6943 -0.5790 0.2415
H108A H -0.5867 -0.5789 0.2393
H109A H -0.6643 -0.5835 0.1956
C101A C -0.6307(15) -0.5174(6) 0.2613(6)
H110A H -0.6762 -0.5231 0.2789
H111A H -0.6333 -0.4943 0.2557
H112A H -0.5683 -0.5232 0.2773
C102A C -0.3218(16) -0.5254(6) 0.1877(6)
H113A H -0.2867 -0.5196 0.1666
C103A C -0.1187(14) -0.5260(7) 0.2032(8)
H114A H -0.1389 -0.5050 0.1899
H115A H -0.1302 -0.5427 0.1801
C104A C 0.0234(13) -0.5560(7) 0.2530(7)
H116A H 0.0895 -0.5536 0.2676
H117A H 0.0176 -0.5746 0.2331
C105A C -0.0398(14) -0.5610(5) 0.2888(6)
H118A H -0.0202 -0.5808 0.3056
H119A H -0.0307 -0.5428 0.3094
C106A C -0.1810(18) -0.5815(7) 0.3308(7)
H120A H -0.1162 -0.5848 0.3405
C107A C -0.1699(10) -0.5341(6) 0.2400(7)
H121A H -0.1559 -0.5159 0.2612
C108A C -0.0111(12) -0.5252(6) 0.2269(7)
H122A H 0.0280 -0.5074 0.2251
C109A C -0.144(2) -0.5636(6) 0.2667(8)
H123A H -0.1539 -0.5828 0.2470
C110A C -0.2492(9) -0.5970(4) 0.3582(4)
C111A C -0.3402(10) -0.5848(4) 0.3553(4)
C112A C -0.3919(9) -0.5937(5) 0.3870(5)
C113A C -0.3526(11) -0.6147(5) 0.4215(5)
H124A H -0.3873 -0.6206 0.4427
C114A C -0.2616(12) -0.6268(5) 0.4244(5)
C115A C -0.2099(9) -0.6180(5) 0.3927(5)
H125A H -0.1490 -0.6262 0.3947
C116A C -0.5651(18) -0.5843(8) 0.3525(8)
H126A H -0.5521 -0.5783 0.3241
H127A H -0.6216 -0.5735 0.3566
H128A H -0.5736 -0.6075 0.3536
C117A C -0.4815(15) -0.5740(6) 0.3897(8)
C118A C -0.5085(19) -0.5802(7) 0.4354(8)
H129A H -0.5647 -0.5681 0.4369
H130A H -0.4575 -0.5734 0.4589
H131A H -0.5201 -0.6031 0.4385
C119A C -0.4768(15) -0.5373(5) 0.3830(8)
H132A H -0.4568 -0.5330 0.3556
H133A H -0.4322 -0.5279 0.4074
H134A H -0.5382 -0.5279 0.3817
C120A C -0.2239(16) -0.6532(6) 0.4559(7)
N9A N -0.3248(16) -0.6108(6) -0.0469(9)
C121A C -0.395(3) -0.5995(13) -0.0240(16)
H135A H -0.4019 -0.6102 0.0020
C122A C -0.323(4) -0.5977(13) -0.0893(13)
H136A H -0.2746 -0.6087 -0.1014
H137A H -0.3083 -0.5748 -0.0866
H138A H -0.3831 -0.6008 -0.1089
C123A C -0.2567(17) -0.6336(8) -0.0258(10)
H139A H -0.2176 -0.6401 -0.0462
H140A H -0.2882 -0.6525 -0.0172
H141A H -0.2179 -0.6238 0.0001
N10A N -0.9523(18) -0.4799(9) 0.0749(10)
C124A C -0.901(2) -0.4614(7) 0.0446(10)
H142A H -0.8899 -0.4390 0.0484
C125A C -0.997(5) -0.5128(9) 0.0772(15)
H143A H -0.9829 -0.5265 0.0539
H144A H -1.0641 -0.5104 0.0734
H145A H -0.9716 -0.5226 0.1057
C126A C -0.958(5) -0.4557(16) 0.1118(15)
H146A H -0.9322 -0.4351 0.1053
H147A H -0.9230 -0.4639 0.1397
H148A H -1.0233 -0.4528 0.1137
N11A N -1.4469(10) -0.7221(4) -0.4228(4)
O28A O -1.4086(18) -0.7244(7) -0.4922(7)
C127A C -1.3977(17) -0.7121(7) -0.4555(7)
H149A H -1.3543 -0.6952 -0.4486
C128A C -1.468(3) -0.7562(5) -0.4202(12)
H150A H -1.4376 -0.7682 -0.4403
H151A H -1.5350 -0.7595 -0.4282
H152A H -1.4445 -0.7638 -0.3903
C129A C -1.478(3) -0.6979(7) -0.3952(11)
H153A H -1.4546 -0.6769 -0.4015
H154A H -1.4551 -0.7032 -0.3644
H155A H -1.5463 -0.6974 -0.4014
O27A O 0.0408(17) -0.6219(6) 0.4490(8)
N12A N 0.172(3) -0.6055(10) 0.4338(13)
C130A C 0.107(3) -0.6045(11) 0.4631(14)
H156A H 0.1148 -0.5922 0.4892
C131A C 0.149(4) -0.5850(15) 0.3956(17)
H157A H 0.1962 -0.5877 0.3778
H158A H 0.1483 -0.5626 0.4049
H159A H 0.0881 -0.5908 0.3783
C132A C 0.254(4) -0.6258(16) 0.444(2)
H160A H 0.2907 -0.6229 0.4213
H161A H 0.2347 -0.6483 0.4442
H162A H 0.2911 -0.6200 0.4724
Cd3_2 Cd -1.0000 -0.66101(9) -0.5000
Cd4_2 Cd -1.0000 -0.74652(7) -0.5000
Cd4B Cd -0.5000 -0.24652(7) -0.5000
Cd4B_2 Cd -0.5000 -0.24652(7) 0.5000
Cd5_2 Cd -0.75561(15) -0.72104(6) -0.49348(6)
Cd5A_2 Cd -0.24439(15) -0.72104(6) 0.49348(6)
Cd5B Cd -0.25561(15) -0.22104(6) -0.49348(6)
Cd5B_2 Cd -0.25561(15) -0.22104(6) 0.50652(6)
Cd5C Cd -0.74439(15) -0.22104(6) -0.50652(6)
Cd5C_2 Cd -0.74439(15) -0.22104(6) 0.49348(6)
O1B O 0.2199(12) -0.7760(4) 0.4824(5)
O1C O -1.2199(12) -0.7760(4) -0.4824(5)
O2B O 0.0603(18) -0.7799(6) 0.4576(8)
O2C O -0.0603(18) -0.7799(6) 0.5424(8)
O12A_2 O -0.0383(10) -0.7032(4) 0.5407(5)
O13B O 0.2986(12) -0.7358(4) 0.5788(5)
O13C O -1.2986(12) -0.7358(4) -0.5788(5)
O14B O 0.1359(10) -0.7371(6) 0.5554(5)
O14C O -1.1359(10) -0.7371(6) -0.5554(5)
O14C_2 O -0.1359(10) -0.7371(6) 0.4446(5)
O23_2 O 0.2762(15) -0.6661(6) 0.5210(6)
O23A_2 O -1.2762(15) -0.6661(6) -0.5210(6)
O24_2 O 0.1355(13) -0.6605(7) 0.5369(6)
O29 O -0.662(3) -0.4711(13) 0.6615(17)
O30 O -0.254(4) -0.3508(17) 0.569(2)
O31 O -0.182(3) -0.7278(10) 0.1166(12)
O32 O -0.187(5) -0.3746(19) 0.062(2)
loop_
_geom_bond_atom_site_label_1
_geom_bond_atom_site_label_2
_geom_bond_site_symmetry_1
_geom_bond_site_symmetry_2
Cd1 O5 1_555 1_555
Cd2 O5 1_555 1_555
Cd3 O12 1_555 1_555
Cd4 O12 1_555 1_555
Cd5 O11 1_555 1_555
Cd6 O7 1_555 1_555
Ni1 N1 1_555 1_555
Ni2 N3 1_555 1_555
Ni3 N5 1_555 1_555
Ni4 N7 1_555 1_555
N1 C12 1_555 1_555
N2 Ni1 1_555 1_555
N3 C42 1_555 1_555
N4 Ni2 1_555 1_555
N5 C73 1_555 1_555
N6 Ni3 1_555 1_555
N7 C102 1_555 1_555
N8 Ni4 1_555 1_555
O1 C1 1_555 1_555
O2 C1 1_555 1_555
O3 Ni1 1_555 1_555
O4 Ni1 1_555 1_555
O5 C30 1_555 1_555
O6 Cd2 1_555 1_555
O7 C31 1_555 1_555
O8 Cd2 1_555 1_555
O9 Ni2 1_555 1_555
O10 Ni2 1_555 1_555
O11 C60 1_555 1_555
O12 C60 1_555 1_555
O13 C61 1_555 1_555
O14 C61 1_555 1_555
O15 Ni3 1_555 1_555
O16 Ni3 1_555 1_555
O17 Cd1 1_555 1_555
O18 Cd2 1_555 1_555
O19 Cd1 1_555 1_555
O20 Cd2 1_555 1_555
O21 Ni4 1_555 1_555
O22 Ni4 1_555 1_555
O23 C120 1_555 1_555
O24 C120 1_555 1_555
O25 Cd6 1_555 1_555
O26 Cd2 1_555 1_555
C1 C2 1_555 1_555
C2 C3 1_555 1_555
C3 H1 1_555 1_555
C4 C3 1_555 1_555
C5 O3 1_555 1_555
C6 C5 1_555 1_555
C7 C2 1_555 1_555
H2 C7 1_555 1_555
O27 Cd3 1_555 1_555
C8 H3 1_555 1_555
H4 C8 1_555 1_555
H5 C8 1_555 1_555
C9 C4 1_555 1_555
C10 C9 1_555 1_555
H6 C10 1_555 1_555
H7 C10 1_555 1_555
H8 C10 1_555 1_555
C11 C9 1_555 1_555
H9 C11 1_555 1_555
H10 C11 1_555 1_555
H11 C11 1_555 1_555
C12 C6 1_555 1_555
H12 C12 1_555 1_555
C13 N1 1_555 1_555
C14 C13 1_555 1_555
H13 C14 1_555 1_555
H14 C14 1_555 1_555
C15 C14 1_555 1_555
H15 C15 1_555 1_555
H16 C15 1_555 1_555
C16 C15 1_555 1_555
H17 C16 1_555 1_555
H18 C16 1_555 1_555
C17 C16 1_555 1_555
H19 C17 1_555 1_555
H20 C17 1_555 1_555
C18 N2 1_555 1_555
H21 C18 1_555 1_555
C19 N2 1_555 1_555
H22 C19 1_555 1_555
C20 C19 1_555 1_555
C21 O4 1_555 1_555
C22 C21 1_555 1_555
C23 C22 1_555 1_555
H23 C23 1_555 1_555
C24 C23 1_555 1_555
C25 C20 1_555 1_555
H24 C25 1_555 1_555
C26 C22 1_555 1_555
C27 C26 1_555 1_555
H25 C27 1_555 1_555
H26 C27 1_555 1_555
H27 C27 1_555 1_555
C28 C26 1_555 1_555
H28 C28 1_555 1_555
H29 C28 1_555 1_555
H30 C28 1_555 1_555
C29 C26 1_555 1_555
H31 C29 1_555 1_555
H32 C29 1_555 1_555
H33 C29 1_555 1_555
C30 O6 1_555 1_555
C31 O8 1_555 1_555
C32 C31 1_555 1_555
C33 C32 1_555 1_555
H34 C33 1_555 1_555
C34 C33 1_555 1_555
C35 O9 1_555 1_555
C36 C35 1_555 1_555
C37 C32 1_555 1_555
H35 C37 1_555 1_555
C38 C36 1_555 1_555
C39 C38 1_555 1_555
H36 C39 1_555 1_555
H37 C39 1_555 1_555
H38 C39 1_555 1_555
C40 C38 1_555 1_555
H39 C40 1_555 1_555
H40 C40 1_555 1_555
H41 C40 1_555 1_555
C41 C38 1_555 1_555
H42 C41 1_555 1_555
H43 C41 1_555 1_555
H44 C41 1_555 1_555
C42 C34 1_555 1_555
H45 C42 1_555 1_555
C43 N3 1_555 1_555
H46 C43 1_555 1_555
C44 C43 1_555 1_555
H47 C44 1_555 1_555
H48 C44 1_555 1_555
C45 C44 1_555 1_555
H49 C45 1_555 1_555
H50 C45 1_555 1_555
C46 C45 1_555 1_555
H51 C46 1_555 1_555
H52 C46 1_555 1_555
C47 C46 1_555 1_555
H53 C47 1_555 1_555
H54 C47 1_555 1_555
C48 N4 1_555 1_555
H55 C48 1_555 1_555
C49 N4 1_555 1_555
H56 C49 1_555 1_555
C50 C49 1_555 1_555
C51 O10 1_555 1_555
C52 C51 1_555 1_555
C53 C52 1_555 1_555
H57 C53 1_555 1_555
C54 C53 1_555 1_555
C55 C50 1_555 1_555
H58 C55 1_555 1_555
C56 C52 1_555 1_555
C57 C56 1_555 1_555
H59 C57 1_555 1_555
H60 C57 1_555 1_555
H61 C57 1_555 1_555
C58 C56 1_555 1_555
H62 C58 1_555 1_555
H63 C58 1_555 1_555
H64 C58 1_555 1_555
C59 C56 1_555 1_555
H65 C59 1_555 1_555
H66 C59 1_555 1_555
H67 C59 1_555 1_555
C60 C54 1_555 1_555
C61 C62 1_555 1_555
C62 C63 1_555 1_555
C63 H68 1_555 1_555
C64 C63 1_555 1_555
C65 O15 1_555 1_555
C66 C65 1_555 1_555
C67 C62 1_555 1_555
H69 C67 1_555 1_555
C68 C64 1_555 1_555
C69 C68 1_555 1_555
H70 C69 1_555 1_555
H71 C69 1_555 1_555
H72 C69 1_555 1_555
C70 C68 1_555 1_555
H73 C70 1_555 1_555
H74 C70 1_555 1_555
H75 C70 1_555 1_555
C71 H76 1_555 1_555
H77 C71 1_555 1_555
C72 C68 1_555 1_555
H78 C72 1_555 1_555
H79 C72 1_555 1_555
H80 C72 1_555 1_555
C73 C66 1_555 1_555
H81 C73 1_555 1_555
C74 N5 1_555 1_555
H82 C74 1_555 1_555
C75 C71 1_555 1_555
H83 C75 1_555 1_555
H84 C75 1_555 1_555
C76 C71 1_555 1_555
H85 C76 1_555 1_555
H86 C76 1_555 1_555
C77 C76 1_555 1_555
H87 C77 1_555 1_555
H88 C77 1_555 1_555
C78 N6 1_555 1_555
H89 C78 1_555 1_555
C79 N6 1_555 1_555
H90 C79 1_555 1_555
C80 C79 1_555 1_555
C81 O16 1_555 1_555
C82 C81 1_555 1_555
C83 C82 1_555 1_555
H91 C83 1_555 1_555
C84 C83 1_555 1_555
C85 C80 1_555 1_555
H92 C85 1_555 1_555
C86 C82 1_555 1_555
C87 C86 1_555 1_555
H93 C87 1_555 1_555
H94 C87 1_555 1_555
H95 C87 1_555 1_555
C88 C86 1_555 1_555
H96 C88 1_555 1_555
H97 C88 1_555 1_555
H98 C88 1_555 1_555
C89 C86 1_555 1_555
H99 C89 1_555 1_555
H100 C89 1_555 1_555
H101 C89 1_555 1_555
C90 O19 1_555 1_555
C91 O17 1_555 1_555
C92 C90 1_555 1_555
C93 C92 1_555 1_555
H102 C93 1_555 1_555
C94 C93 1_555 1_555
C95 O21 1_555 1_555
C96 C95 1_555 1_555
C97 C92 1_555 1_555
H103 C97 1_555 1_555
C98 H104 1_555 1_555
H105 C98 1_555 1_555
H106 C98 1_555 1_555
C99 C96 1_555 1_555
C100 C99 1_555 1_555
H107 C100 1_555 1_555
H108 C100 1_555 1_555
H109 C100 1_555 1_555
C101 C99 1_555 1_555
H110 C101 1_555 1_555
H111 C101 1_555 1_555
H112 C101 1_555 1_555
C102 C94 1_555 1_555
H113 C102 1_555 1_555
C103 H114 1_555 1_555
H115 C103 1_555 1_555
C104 H116 1_555 1_555
H117 C104 1_555 1_555
C105 C104 1_555 1_555
H118 C105 1_555 1_555
H119 C105 1_555 1_555
C106 N8 1_555 1_555
H120 C106 1_555 1_555
C107 N7 1_555 1_555
H121 C107 1_555 1_555
C108 C103 1_555 1_555
H122 C108 1_555 1_555
C109 N8 1_555 1_555
H123 C109 1_555 1_555
C110 C106 1_555 1_555
C111 O22 1_555 1_555
C112 C111 1_555 1_555
C113 C112 1_555 1_555
H124 C113 1_555 1_555
C114 C113 1_555 1_555
C115 C110 1_555 1_555
H125 C115 1_555 1_555
C116 H126 1_555 1_555
H127 C116 1_555 1_555
H128 C116 1_555 1_555
C117 C112 1_555 1_555
C118 C117 1_555 1_555
H129 C118 1_555 1_555
H130 C118 1_555 1_555
H131 C118 1_555 1_555
C119 C117 1_555 1_555
H132 C119 1_555 1_555
H133 C119 1_555 1_555
H134 C119 1_555 1_555
C120 C114 1_555 1_555
N9 C121 1_555 1_555
C121 O25 1_555 1_555
H135 C121 1_555 1_555
C122 N9 1_555 1_555
H136 C122 1_555 1_555
H137 C122 1_555 1_555
H138 C122 1_555 1_555
C123 N9 1_555 1_555
H139 C123 1_555 1_555
H140 C123 1_555 1_555
H141 C123 1_555 1_555
N10 C124 1_555 1_555
C124 O26 1_555 1_555
H142 C124 1_555 1_555
C125 N10 1_555 1_555
H143 C125 1_555 1_555
H144 C125 1_555 1_555
H145 C125 1_555 1_555
C126 N10 1_555 1_555
H146 C126 1_555 1_555
H147 C126 1_555 1_555
H148 C126 1_555 1_555
N11 C127 1_555 1_555
O28 Cd5 1_555 1_555
C127 O28 1_555 1_555
H149 C127 1_555 1_555
C128 N11 1_555 1_555
H150 C128 1_555 1_555
H151 C128 1_555 1_555
H152 C128 1_555 1_555
C129 N11 1_555 1_555
H153 C129 1_555 1_555
H154 C129 1_555 1_555
H155 C129 1_555 1_555
N12 C130 1_555 1_555
C130 O27 1_555 1_555
H156 C130 1_555 1_555
C131 N12 1_555 1_555
H157 C131 1_555 1_555
H158 C131 1_555 1_555
H159 C131 1_555 1_555
C132 N12 1_555 1_555
H160 C132 1_555 1_555
H161 C132 1_555 1_555
H162 C132 1_555 1_555
Cd2A O5A 1_555 1_555
Cd5A O11A 1_555 1_555
Ni1A N1A 1_555 1_555
Ni2A N3A 1_555 1_555
Ni3A N5A 1_555 1_555
Ni4A N7A 1_555 1_555
N1A C12A 1_555 1_555
N2A Ni1A 1_555 1_555
N3A C42A 1_555 1_555
N4A Ni2A 1_555 1_555
N5A C73A 1_555 1_555
N6A Ni3A 1_555 1_555
N7A C102A 1_555 1_555
N8A Ni4A 1_555 1_555
O1A C1A 1_555 1_555
O2A C1A 1_555 1_555
O3A Ni1A 1_555 1_555
O4A Ni1A 1_555 1_555
O5A Cd1 1_555 1_555
O6A Cd2A 1_555 1_555
O7A Cd6 1_555 1_555
O8A Cd2A 1_555 1_555
O9A Ni2A 1_555 1_555
O10A Ni2A 1_555 1_555
O11A C60A 1_555 1_555
O12A C60A 1_555 1_555
O13A C61A 1_555 1_555
O14A C61A 1_555 1_555
O15A Ni3A 1_555 1_555
O16A Ni3A 1_555 1_555
O17A Cd1 1_555 1_555
O18A Cd2A 1_555 1_555
O19A Cd1 1_555 1_555
O20A Cd2A 1_555 1_555
O21A Ni4A 1_555 1_555
O22A Ni4A 1_555 1_555
O23A C120A 1_555 1_555
O24A Cd3 1_555 1_555
O25A Cd6 1_555 1_555
O26A Cd2A 1_555 1_555
C1A C2A 1_555 1_555
C2A C3A 1_555 1_555
C3A H1A 1_555 1_555
C4A C3A 1_555 1_555
C5A O3A 1_555 1_555
C6A C5A 1_555 1_555
C7A C2A 1_555 1_555
H2A C7A 1_555 1_555
C8A H3A 1_555 1_555
H4A C8A 1_555 1_555
H5A C8A 1_555 1_555
C9A C4A 1_555 1_555
C10A C9A 1_555 1_555
H6A C10A 1_555 1_555
H7A C10A 1_555 1_555
H8A C10A 1_555 1_555
C11A C9A 1_555 1_555
H9A C11A 1_555 1_555
H10A C11A 1_555 1_555
H11A C11A 1_555 1_555
C12A C6A 1_555 1_555
H12A C12A 1_555 1_555
C13A N1A 1_555 1_555
C14A C13A 1_555 1_555
H13A C14A 1_555 1_555
H14A C14A 1_555 1_555
C15A C14A 1_555 1_555
H15A C15A 1_555 1_555
H16A C15A 1_555 1_555
C16A C15A 1_555 1_555
H17A C16A 1_555 1_555
H18A C16A 1_555 1_555
C17A C16A 1_555 1_555
H19A C17A 1_555 1_555
H20A C17A 1_555 1_555
C18A N2A 1_555 1_555
H21A C18A 1_555 1_555
C19A N2A 1_555 1_555
H22A C19A 1_555 1_555
C20A C19A 1_555 1_555
C21A O4A 1_555 1_555
C22A C21A 1_555 1_555
C23A C22A 1_555 1_555
H23A C23A 1_555 1_555
C24A C23A 1_555 1_555
C25A C20A 1_555 1_555
H24A C25A 1_555 1_555
C26A C22A 1_555 1_555
C27A C26A 1_555 1_555
H25A C27A 1_555 1_555
H26A C27A 1_555 1_555
H27A C27A 1_555 1_555
C28A C26A 1_555 1_555
H28A C28A 1_555 1_555
H29A C28A 1_555 1_555
H30A C28A 1_555 1_555
C29A C26A 1_555 1_555
H31A C29A 1_555 1_555
H32A C29A 1_555 1_555
H33A C29A 1_555 1_555
C30A O5A 1_555 1_555
C31A O7A 1_555 1_555
C32A C31A 1_555 1_555
C33A C32A 1_555 1_555
H34A C33A 1_555 1_555
C34A C33A 1_555 1_555
C35A O9A 1_555 1_555
C36A C35A 1_555 1_555
C37A C32A 1_555 1_555
H35A C37A 1_555 1_555
C38A C36A 1_555 1_555
C39A C38A 1_555 1_555
H36A C39A 1_555 1_555
H37A C39A 1_555 1_555
H38A C39A 1_555 1_555
C40A C38A 1_555 1_555
H39A C40A 1_555 1_555
H40A C40A 1_555 1_555
H41A C40A 1_555 1_555
C41A C38A 1_555 1_555
H42A C41A 1_555 1_555
H43A C41A 1_555 1_555
H44A C41A 1_555 1_555
C42A C34A 1_555 1_555
H45A C42A 1_555 1_555
C43A N3A 1_555 1_555
H46A C43A 1_555 1_555
C44A C43A 1_555 1_555
H47A C44A 1_555 1_555
H48A C44A 1_555 1_555
C45A C44A 1_555 1_555
H49A C45A 1_555 1_555
H50A C45A 1_555 1_555
C46A C45A 1_555 1_555
H51A C46A 1_555 1_555
H52A C46A 1_555 1_555
C47A C46A 1_555 1_555
H53A C47A 1_555 1_555
H54A C47A 1_555 1_555
C48A N4A 1_555 1_555
H55A C48A 1_555 1_555
C49A N4A 1_555 1_555
H56A C49A 1_555 1_555
C50A C49A 1_555 1_555
C51A O10A 1_555 1_555
C52A C51A 1_555 1_555
C53A C52A 1_555 1_555
H57A C53A 1_555 1_555
C54A C53A 1_555 1_555
C55A C50A 1_555 1_555
H58A C55A 1_555 1_555
C56A C52A 1_555 1_555
C57A C56A 1_555 1_555
H59A C57A 1_555 1_555
H60A C57A 1_555 1_555
H61A C57A 1_555 1_555
C58A C56A 1_555 1_555
H62A C58A 1_555 1_555
H63A C58A 1_555 1_555
H64A C58A 1_555 1_555
C59A C56A 1_555 1_555
H65A C59A 1_555 1_555
H66A C59A 1_555 1_555
H67A C59A 1_555 1_555
C60A C54A 1_555 1_555
C61A C62A 1_555 1_555
C62A C63A 1_555 1_555
C63A H68A 1_555 1_555
C64A C63A 1_555 1_555
C65A O15A 1_555 1_555
C66A C65A 1_555 1_555
C67A C62A 1_555 1_555
H69A C67A 1_555 1_555
C68A C64A 1_555 1_555
C69A C68A 1_555 1_555
H70A C69A 1_555 1_555
H71A C69A 1_555 1_555
H72A C69A 1_555 1_555
C70A C68A 1_555 1_555
H73A C70A 1_555 1_555
H74A C70A 1_555 1_555
H75A C70A 1_555 1_555
C71A H76A 1_555 1_555
H77A C71A 1_555 1_555
C72A C68A 1_555 1_555
H78A C72A 1_555 1_555
H79A C72A 1_555 1_555
H80A C72A 1_555 1_555
C73A C66A 1_555 1_555
H81A C73A 1_555 1_555
C74A N5A 1_555 1_555
H82A C74A 1_555 1_555
C75A C71A 1_555 1_555
H83A C75A 1_555 1_555
H84A C75A 1_555 1_555
C76A C71A 1_555 1_555
H85A C76A 1_555 1_555
H86A C76A 1_555 1_555
C77A C76A 1_555 1_555
H87A C77A 1_555 1_555
H88A C77A 1_555 1_555
C78A N6A 1_555 1_555
H89A C78A 1_555 1_555
C79A N6A 1_555 1_555
H90A C79A 1_555 1_555
C80A C79A 1_555 1_555
C81A O16A 1_555 1_555
C82A C81A 1_555 1_555
C83A C82A 1_555 1_555
H91A C83A 1_555 1_555
C84A C83A 1_555 1_555
C85A C80A 1_555 1_555
H92A C85A 1_555 1_555
C86A C82A 1_555 1_555
C87A C86A 1_555 1_555
H93A C87A 1_555 1_555
H94A C87A 1_555 1_555
H95A C87A 1_555 1_555
C88A C86A 1_555 1_555
H96A C88A 1_555 1_555
H97A C88A 1_555 1_555
H98A C88A 1_555 1_555
C89A C86A 1_555 1_555
H99A C89A 1_555 1_555
H100A C89A 1_555 1_555
H101A C89A 1_555 1_555
C90A O19A 1_555 1_555
C91A O17A 1_555 1_555
C92A C90A 1_555 1_555
C93A C92A 1_555 1_555
H102A C93A 1_555 1_555
C94A C93A 1_555 1_555
C95A O21A 1_555 1_555
C96A C95A 1_555 1_555
C97A C92A 1_555 1_555
H103A C97A 1_555 1_555
C98A H104A 1_555 1_555
H105A C98A 1_555 1_555
H106A C98A 1_555 1_555
C99A C96A 1_555 1_555
C100A C99A 1_555 1_555
H107A C100A 1_555 1_555
H108A C100A 1_555 1_555
H109A C100A 1_555 1_555
C101A C99A 1_555 1_555
H110A C101A 1_555 1_555
H111A C101A 1_555 1_555
H112A C101A 1_555 1_555
C102A C94A 1_555 1_555
H113A C102A 1_555 1_555
C103A H114A 1_555 1_555
H115A C103A 1_555 1_555
C104A H116A 1_555 1_555
H117A C104A 1_555 1_555
C105A C104A 1_555 1_555
H118A C105A 1_555 1_555
H119A C105A 1_555 1_555
C106A N8A 1_555 1_555
H120A C106A 1_555 1_555
C107A N7A 1_555 1_555
H121A C107A 1_555 1_555
C108A C103A 1_555 1_555
H122A C108A 1_555 1_555
C109A N8A 1_555 1_555
H123A C109A 1_555 1_555
C110A C106A 1_555 1_555
C111A O22A 1_555 1_555
C112A C111A 1_555 1_555
C113A C112A 1_555 1_555
H124A C113A 1_555 1_555
C114A C113A 1_555 1_555
C115A C110A 1_555 1_555
H125A C115A 1_555 1_555
C116A H126A 1_555 1_555
H127A C116A 1_555 1_555
H128A C116A 1_555 1_555
C117A C112A 1_555 1_555
C118A C117A 1_555 1_555
H129A C118A 1_555 1_555
H130A C118A 1_555 1_555
H131A C118A 1_555 1_555
C119A C117A 1_555 1_555
H132A C119A 1_555 1_555
H133A C119A 1_555 1_555
H134A C119A 1_555 1_555
C120A O24A 1_555 1_555
N9A C121A 1_555 1_555
C121A O25A 1_555 1_555
H135A C121A 1_555 1_555
C122A N9A 1_555 1_555
H136A C122A 1_555 1_555
H137A C122A 1_555 1_555
H138A C122A 1_555 1_555
C123A N9A 1_555 1_555
H139A C123A 1_555 1_555
H140A C123A 1_555 1_555
H141A C123A 1_555 1_555
N10A C124A 1_555 1_555
C124A O26A 1_555 1_555
H142A C124A 1_555 1_555
C125A N10A 1_555 1_555
H143A C125A 1_555 1_555
H144A C125A 1_555 1_555
H145A C125A 1_555 1_555
C126A N10A 1_555 1_555
H146A C126A 1_555 1_555
H147A C126A 1_555 1_555
H148A C126A 1_555 1_555
N11A C127A 1_555 1_555
O28A Cd5A 1_555 1_555
C127A O28A 1_555 1_555
H149A C127A 1_555 1_555
C128A N11A 1_555 1_555
H150A C128A 1_555 1_555
H151A C128A 1_555 1_555
H152A C128A 1_555 1_555
C129A N11A 1_555 1_555
H153A C129A 1_555 1_555
H154A C129A 1_555 1_555
H155A C129A 1_555 1_555
O27A Cd3 1_555 1_555
N12A C130A 1_555 1_555
C130A O27A 1_555 1_555
H156A C130A 1_555 1_555
C131A N12A 1_555 1_555
H157A C131A 1_555 1_555
H158A C131A 1_555 1_555
H159A C131A 1_555 1_555
C132A N12A 1_555 1_555
H160A C132A 1_555 1_555
H161A C132A 1_555 1_555
H162A C132A 1_555 1_555
Cd3_2 O24 1_555 1_555
Cd4_2 O12A 1_555 1_555
Cd4B O14 1_555 1_555
Cd4B_2 O2 1_555 1_555
Cd5_2 O23 1_555 1_555
Cd5A_2 O23A 1_555 1_555
Cd5B O13 1_555 1_555
Cd5B_2 O1 1_555 1_555
Cd5C O1A 1_555 1_555
Cd5C_2 O13A 1_555 1_555
O1B Cd5 1_555 1_555
O1C Cd5A 1_555 1_555
O2B Cd4 1_555 1_555
O2C Cd4 1_555 1_555
O12A_2 Cd3 1_555 1_555
O13B Cd5 1_555 1_555
O13C Cd5A 1_555 1_555
O14B Cd4 1_555 1_555
O14C Cd5A 1_555 1_555
O14C_2 Cd4 1_555 1_555
O23_2 Cd5 1_555 1_555
O23A_2 Cd5A 1_555 1_555
O24_2 Cd3 1_555 1_555
Cd4 O12A_2 1_555 1_555
Cd5 O14B 1_555 1_555
Cd6 O19 1_555 1_555
Cd6 O19A 1_555 1_555
O14 Cd5B 1_555 1_555
O18 C91 1_555 1_555
O20 C90 1_555 1_555
C4 C5 1_555 1_555
C6 C7 1_555 1_555
C8 C9 1_555 1_555
C13 C18 1_555 1_555
C17 C18 1_555 1_555
C20 C21 1_555 1_555
C24 C25 1_555 1_555
C24 C30 1_555 1_555
C34 C35 1_555 1_555
C36 C37 1_555 1_555
C43 C48 1_555 1_555
C47 C48 1_555 1_555
C50 C51 1_555 1_555
C54 C55 1_555 1_555
C64 C65 1_555 1_555
C66 C67 1_555 1_555
C74 C75 1_555 1_555
C74 C78 1_555 1_555
C77 C78 1_555 1_555
C80 C81 1_555 1_555
C84 C85 1_555 1_555
C84 C91 1_555 1_555
C94 C95 1_555 1_555
C96 C97 1_555 1_555
C98 C99 1_555 1_555
C103 C107 1_555 1_555
C104 C108 1_555 1_555
C105 C109 1_555 1_555
C107 C109 1_555 1_555
C110 C111 1_555 1_555
C114 C115 1_555 1_555
C116 C117 1_555 1_555
O2A Cd4B 1_555 1_555
O6A C30A 1_555 1_555
O8A C31A 1_555 1_555
O12A Cd3_2 1_555 1_555
O14A Cd4B_2 1_555 1_555
O14A Cd5C_2 1_555 1_555
O18A C91A 1_555 1_555
O20A C90A 1_555 1_555
C4A C5A 1_555 1_555
C6A C7A 1_555 1_555
C8A C9A 1_555 1_555
C13A C18A 1_555 1_555
C17A C18A 1_555 1_555
C20A C21A 1_555 1_555
C24A C25A 1_555 1_555
C24A C30A 1_555 1_555
C34A C35A 1_555 1_555
C36A C37A 1_555 1_555
C43A C48A 1_555 1_555
C47A C48A 1_555 1_555
C50A C51A 1_555 1_555
C54A C55A 1_555 1_555
C64A C65A 1_555 1_555
C66A C67A 1_555 1_555
C74A C75A 1_555 1_555
C74A C78A 1_555 1_555
C77A C78A 1_555 1_555
C80A C81A 1_555 1_555
C84A C85A 1_555 1_555
C84A C91A 1_555 1_555
C94A C95A 1_555 1_555
C96A C97A 1_555 1_555
C98A C99A 1_555 1_555
C103A C107A 1_555 1_555
C104A C108A 1_555 1_555
C105A C109A 1_555 1_555
C107A C109A 1_555 1_555
C110A C111A 1_555 1_555
C114A C115A 1_555 1_555
C114A C120A 1_555 1_555
C116A C117A 1_555 1_555
Cd4_2 O14C 1_555 1_555
Cd5A_2 O14C_2 1_555 1_555

#END
