
#######################################################################
#
#                 Cambridge Crystallographic Data Centre
#                                CCDC 
#
#######################################################################
#
# If this CIF has been generated from an entry in the Cambridge 
# Structural Database, then it will include bibliographic, chemical, 
# crystal, experimental, refinement or atomic coordinate data resulting 
# from the CCDC's data processing and validation procedures.
#
#######################################################################

data_KUTDAG
_symmetry_cell_setting           monoclinic
_symmetry_space_group_name_H-M   'C 2'
_symmetry_Int_Tables_number      5
_space_group_name_Hall           'C 2y'
loop_
_symmetry_equiv_pos_site_id
_symmetry_equiv_pos_as_xyz
1 x,y,z
2 -x,y,-z
3 1/2+x,1/2+y,z
4 1/2-x,1/2+y,-z
_cell_length_a                   14.2697(9)
_cell_length_b                   40.363(3)
_cell_length_c                   30.931(2)
_cell_angle_alpha                90
_cell_angle_beta                 102.623(5)
_cell_angle_gamma                90
_cell_volume                     17384.7
loop_
_atom_site_label
_atom_site_type_symbol
_atom_site_fract_x
_atom_site_fract_y
_atom_site_fract_z
Co1 Co -0.39944(15) 0.60493(5) 0.27734(6)
Co2 Co -0.17144(13) 0.35353(4) 0.22755(5)
Co3 Co -0.39776(10) 0.69814(4) -0.22249(5)
Co4 Co -0.66976(10) 0.44819(5) -0.27076(6)
Cd1 Cd -0.5000 0.54700(2) 0.0000
Cd2 Cd -0.24711(3) 0.525493(16) 0.006588(16)
Cd3 Cd -0.5000 0.45968(3) 0.0000
Cd4 Cd 0.0000 0.33960(3) 0.5000
Cd5 Cd 0.24810(8) 0.27534(2) 0.50239(3)
Cd6 Cd 0.0000 0.25270(2) 0.5000
N1 N -0.5014(5) 0.6207(2) 0.2961(2)
N2 N -0.4857(4) 0.5882(2) 0.2302(2)
N3 N -0.2923(4) 0.36517(18) 0.2028(2)
N4 N -0.2284(5) 0.3401(2) 0.2722(2)
N5 N -0.4935(6) 0.7115(2) -0.2728(3)
N6 N -0.5065(4) 0.68452(16) -0.1984(2)
N7 N -0.7212(5) 0.4672(3) -0.2269(2)
N8 N -0.7941(6) 0.4290(3) -0.2962(2)
O1 O -0.2825(4) 0.72272(16) 0.48023(19)
O2 O -0.4400(4) 0.71915(18) 0.4566(2)
O3 O -0.3063(5) 0.61872(19) 0.3277(2)
O4 O -0.2939(4) 0.59286(17) 0.25296(18)
O5 O -0.3589(4) 0.54382(18) 0.0525(2)
O6 O -0.2038(4) 0.5433(2) 0.0735(2)
O7 O -0.3492(6) 0.4705(3) 0.0436(3)
O8 O -0.1856(6) 0.4750(2) 0.0354(3)
O9 O -0.1196(4) 0.36715(16) 0.18207(18)
O10 O -0.0419(5) 0.34092(19) 0.25894(17)
O11 O 0.1873(6) 0.2865(2) 0.4392(2)
O12 O 0.0426(7) 0.2959(3) 0.4571(3)
O13 O -0.1980(5) 0.7569(2) -0.4222(3)
O14 O -0.3534(6) 0.7603(3) -0.4439(3)
O15 O -0.3001(6) 0.7099(2) -0.2467(2)
O16 O -0.3142(4) 0.68516(17) -0.1730(2)
O17 O -0.4441(5) 0.5807(2) -0.0443(4)
O18 O -0.2778(5) 0.5791(2) -0.0211(3)
O19 O -0.4578(4) 0.50275(18) -0.04066(18)
O20 O -0.3228(4) 0.5063(2) -0.0616(3)
O21 O -0.5521(5) 0.45789(17) -0.24399(16)
O22 O -0.6157(7) 0.4344(3) -0.3212(3)
O23 O -0.7166(4) 0.33090(19) -0.4713(2)
O24 O -0.8634(5) 0.3393(3) -0.4615(4)
O25 O -0.5475(4) 0.4187(2) 0.0428(3)
O26 O -0.1070(4) 0.53095(19) -0.01642(17)
C1 C -0.3584(4) 0.71137(17) 0.4545(2)
C2 C -0.3468(3) 0.68073(11) 0.42568(14)
C3 C -0.2566(3) 0.66789(15) 0.42542(19)
H1 H -0.2032 0.6751 0.4462
C4 C -0.2462(5) 0.64427(18) 0.3941(2)
C5 C -0.3260(6) 0.63351(17) 0.3630(2)
C6 C -0.4163(5) 0.64635(17) 0.36328(19)
C7 C -0.4267(3) 0.66996(14) 0.39461(17)
H2 H -0.4871 0.6786 0.3948
C8 C -0.1581(13) 0.58746(15) 0.4018(6)
H3 H -0.1907 0.5809 0.4244
H4 H -0.0950 0.5778 0.4077
H5 H -0.1937 0.5799 0.3735
C9 C -0.1497(5) 0.62572(14) 0.4012(2)
C10 C -0.1016(6) 0.6342(4) 0.3624(3)
H6 H -0.0960 0.6578 0.3601
H7 H -0.1400 0.6257 0.3352
H8 H -0.0388 0.6244 0.3676
C11 C -0.0739(8) 0.6355(4) 0.4430(3)
H9 H -0.0679 0.6592 0.4445
H10 H -0.0131 0.6258 0.4417
H11 H -0.0937 0.6275 0.4689
C12 C -0.4935(7) 0.6368(2) 0.3304(3)
H12 H -0.5521 0.6441 0.3353
C13 C -0.5926(4) 0.6123(3) 0.2674(3)
H13 H -0.5956 0.6292 0.2444
C14 C -0.6863(5) 0.6192(3) 0.2811(3)
H14 H -0.6883 0.6421 0.2903
H15 H -0.6919 0.6051 0.3058
C15 C -0.7718(8) 0.6121(2) 0.2403(3)
H16 H -0.8323 0.6124 0.2498
H17 H -0.7740 0.6291 0.2180
C16 C -0.7568(5) 0.5788(2) 0.2214(3)
H18 H -0.8139 0.5727 0.1995
H19 H -0.7475 0.5624 0.2449
C17 C -0.6697(5) 0.5784(3) 0.1997(3)
H20 H -0.6716 0.5969 0.1794
H21 H -0.6660 0.5578 0.1840
C18 C -0.5834(5) 0.5819(3) 0.2412(3)
H22 H -0.5801 0.5623 0.2600
C19 C -0.4729(7) 0.5765(3) 0.1927(2)
H23 H -0.5260 0.5693 0.1717
C20 C -0.3783(3) 0.57445(12) 0.18249(13)
C21 C -0.2939(3) 0.58132(18) 0.21324(14)
C22 C -0.2058(3) 0.5778(2) 0.20155(19)
C23 C -0.2020(3) 0.5674(2) 0.1591(2)
H24 H -0.1430 0.5650 0.1513
C24 C -0.2865(4) 0.5605(2) 0.12837(18)
C25 C -0.3746(3) 0.56405(19) 0.14005(14)
H25 H -0.4311 0.5595 0.1195
C26 C -0.1108(4) 0.58437(16) 0.23604(19)
C27 C -0.1052(9) 0.5654(3) 0.2798(3)
H26 H -0.0449 0.5700 0.2997
H27 H -0.1103 0.5420 0.2738
H28 H -0.1568 0.5723 0.2931
C28 C -0.0249(5) 0.5761(3) 0.2152(3)
H29 H 0.0338 0.5791 0.2369
H30 H -0.0254 0.5905 0.1905
H31 H -0.0296 0.5535 0.2053
C29 C -0.0979(8) 0.62118(19) 0.2499(4)
H32 H -0.0394 0.6238 0.2719
H33 H -0.1512 0.6282 0.2620
H34 H -0.0951 0.6345 0.2245
C30 C -0.2813(5) 0.5506(3) 0.0830(4)
C31 C -0.2653(12) 0.4574(3) 0.0459(4)
C32 C -0.2260(4) 0.43121(13) 0.08241(17)
C33 C -0.2836(4) 0.41974(17) 0.1101(2)
H35 H -0.3460 0.4276 0.1069
C34 C -0.2479(6) 0.3965(2) 0.1427(2)
C35 C -0.1546(7) 0.3847(2) 0.1476(3)
C36 C -0.0971(5) 0.3962(2) 0.1199(3)
C37 C -0.1328(4) 0.41943(17) 0.0873(2)
H36 H -0.0942 0.4271 0.0687
C38 C -0.0073(4) 0.37674(15) 0.1149(2)
C39 C 0.0668(7) 0.3890(3) 0.1558(3)
H37 H 0.0454 0.3834 0.1822
H38 H 0.0735 0.4126 0.1541
H39 H 0.1277 0.3787 0.1565
C40 C -0.0208(11) 0.3389(2) 0.1109(5)
H40 H -0.0480 0.3310 0.1348
H41 H 0.0404 0.3285 0.1124
H42 H -0.0630 0.3337 0.0831
C41 C 0.0362(6) 0.3869(3) 0.0761(2)
H43 H 0.0494 0.4102 0.0777
H44 H -0.0082 0.3819 0.0488
H45 H 0.0949 0.3749 0.0774
C42 C -0.3127(6) 0.3862(3) 0.1674(3)
H46 H -0.3752 0.3941 0.1591
C43 C -0.3702(6) 0.3512(3) 0.2223(3)
H47 H -0.3753 0.3283 0.2119
C44 C -0.4627(5) 0.3620(2) 0.2126(3)
H48 H -0.4880 0.3597 0.1810
H49 H -0.4636 0.3854 0.2199
C45 C -0.5290(5) 0.3434(2) 0.2372(2)
H50 H -0.5327 0.3202 0.2287
H51 H -0.5932 0.3527 0.2294
C46 C -0.4894(5) 0.3464(4) 0.2875(3)
H52 H -0.4931 0.3692 0.2971
H53 H -0.5253 0.3324 0.3036
C47 C -0.3853(5) 0.3351(3) 0.2950(4)
H54 H -0.3555 0.3391 0.3259
H55 H -0.3855 0.3113 0.2905
C48 C -0.3316(9) 0.3478(4) 0.2717(4)
H56 H -0.3279 0.3710 0.2815
C49 C -0.1746(8) 0.3268(3) 0.3127(4)
H57 H -0.2102 0.3196 0.3327
C50 C -0.0761(3) 0.32328(12) 0.32601(12)
C51 C -0.0135(3) 0.32897(16) 0.29814(13)
C52 C 0.0845(3) 0.3240(2) 0.31348(18)
C53 C 0.1199(3) 0.3133(2) 0.3567(2)
H58 H 0.1855 0.3100 0.3670
C54 C 0.0573(4) 0.3076(2) 0.38457(16)
C55 C -0.0408(3) 0.31261(17) 0.36923(13)
H59 H -0.0827 0.3088 0.3879
C56 C 0.1533(4) 0.32824(16) 0.2811(2)
C57 C 0.1613(11) 0.3639(2) 0.2647(5)
H60 H 0.2060 0.3645 0.2456
H61 H 0.1833 0.3782 0.2897
H62 H 0.0994 0.3712 0.2487
C58 C 0.1156(9) 0.3117(3) 0.2352(3)
H63 H 0.1607 0.3154 0.2168
H64 H 0.0548 0.3213 0.2214
H65 H 0.1079 0.2884 0.2391
C59 C 0.2517(7) 0.3120(4) 0.3007(6)
H66 H 0.2941 0.3155 0.2809
H67 H 0.2432 0.2887 0.3044
H68 H 0.2790 0.3219 0.3289
C60 C 0.0924(8) 0.2994(3) 0.4274(4)
C61 C -0.2800(5) 0.7551(2) -0.41684(19)
C62 C -0.2905(3) 0.74415(12) -0.37177(11)
C63 C -0.2053(3) 0.73879(17) -0.34082(14)
H69 H -0.1467 0.7427 -0.3484
C64 C -0.2078(4) 0.7276(2) -0.29859(14)
C65 C -0.2955(5) 0.7217(2) -0.28731(14)
C66 C -0.3806(4) 0.7271(2) -0.31826(17)
C67 C -0.3782(3) 0.73831(17) -0.36049(15)
H70 H -0.4351 0.7419 -0.3812
C68 C -0.1121(4) 0.72483(16) -0.2650(2)
C69 C -0.0229(6) 0.7378(3) -0.2802(4)
H71 H -0.0206 0.7282 -0.3084
H72 H 0.0340 0.7318 -0.2588
H73 H -0.0265 0.7615 -0.2830
C70 C -0.0979(10) 0.68697(19) -0.2580(5)
H74 H -0.0999 0.6764 -0.2860
H75 H -0.1482 0.6782 -0.2452
H76 H -0.0369 0.6828 -0.2385
C71 C -0.7643(5) 0.7062(3) -0.2914(2)
H77 H -0.8149 0.7205 -0.3074
H78 H -0.7731 0.6841 -0.3038
C72 C -0.1060(11) 0.7421(3) -0.2193(3)
H79 H -0.1598 0.7354 -0.2073
H80 H -0.1071 0.7657 -0.2231
H81 H -0.0475 0.7357 -0.1992
C73 C -0.4726(8) 0.7230(3) -0.3089(4)
H82 H -0.5244 0.7292 -0.3313
C74 C -0.5924(6) 0.7033(3) -0.26834(17)
H83 H -0.6023 0.6804 -0.2788
C75 C -0.6649(6) 0.7199(4) -0.2927(6)
H84 H -0.6579 0.7199 -0.3232
H85 H -0.6613 0.7427 -0.2827
C76 C -0.7628(11) 0.7059(5) -0.2427(3)
H86 H -0.8221 0.6959 -0.2387
H87 H -0.7625 0.7287 -0.2327
C77 C -0.6795(7) 0.6879(3) -0.2128(3)
H88 H -0.6828 0.6906 -0.1820
H89 H -0.6824 0.6644 -0.2197
C78 C -0.5941(5) 0.7015(3) -0.22007(19)
H90 H -0.5899 0.7242 -0.2087
C79 C -0.5048(6) 0.66543(19) -0.1673(2)
H91 H -0.5629 0.6596 -0.1605
C80 C -0.4125(3) 0.65065(11) -0.13918(14)
C81 C -0.3225(3) 0.66419(14) -0.13813(17)
C82 C -0.2442(3) 0.65467(19) -0.1053(2)
C83 C -0.2559(4) 0.6316(2) -0.0735(2)
H92 H -0.2035 0.6253 -0.0515
C84 C -0.3459(5) 0.61809(19) -0.0746(2)
C85 C -0.4243(4) 0.62760(14) -0.10739(18)
H93 H -0.4845 0.6185 -0.1081
C86 C -0.1438(4) 0.67098(16) -0.10087(17)
C87 C -0.1597(10) 0.7091(2) -0.0999(5)
H94 H -0.0991 0.7203 -0.0966
H95 H -0.1880 0.7147 -0.0753
H96 H -0.2018 0.7160 -0.1270
C88 C -0.0977(6) 0.6613(3) -0.1390(2)
H97 H -0.0362 0.6719 -0.1353
H98 H -0.1382 0.6682 -0.1665
H99 H -0.0895 0.6377 -0.1392
C89 C -0.0737(8) 0.6616(3) -0.0580(3)
H100 H -0.0139 0.6729 -0.0565
H101 H -0.0632 0.6381 -0.0574
H102 H -0.1000 0.6679 -0.0332
C90 C -0.4075(4) 0.5041(2) -0.06858(18)
C91 C -0.3560(4) 0.59168(19) -0.0404(3)
C92 C -0.4470(3) 0.49237(13) -0.11748(11)
C93 C -0.5451(3) 0.48734(18) -0.13256(14)
H103 H -0.5868 0.4914 -0.1139
C94 C -0.5808(4) 0.4762(2) -0.17553(16)
C95 C -0.5185(5) 0.4701(2) -0.20342(14)
C96 C -0.4204(4) 0.4751(2) -0.18834(14)
C97 C -0.3847(3) 0.48627(18) -0.14537(14)
H104 H -0.3191 0.4896 -0.1353
C98 C -0.2410(5) 0.4764(3) -0.1948(3)
H105 H -0.1998 0.4702 -0.2142
H106 H -0.2210 0.4652 -0.1670
H107 H -0.2375 0.4999 -0.1900
C99 C -0.3457(4) 0.46654(17) -0.2162(2)
C100 C -0.3494(7) 0.42897(17) -0.2254(3)
H108 H -0.4139 0.4227 -0.2393
H109 H -0.3295 0.4172 -0.1980
H110 H -0.3072 0.4237 -0.2447
C101 C -0.3651(9) 0.4854(3) -0.2602(3)
H111 H -0.4291 0.4808 -0.2764
H112 H -0.3199 0.4785 -0.2773
H113 H -0.3583 0.5088 -0.2545
C102 C -0.6849(5) 0.4721(3) -0.1885(3)
H114 H -0.7224 0.4732 -0.1675
C103 C -0.8849(5) 0.4746(3) -0.2034(3)
H115 H -0.8735 0.4589 -0.1792
H116 H -0.8676 0.4967 -0.1918
C104 C -1.0263(6) 0.4430(2) -0.2562(2)
H117 H -1.0944 0.4458 -0.2686
H118 H -1.0194 0.4242 -0.2361
C105 C -0.9778(7) 0.4340(4) -0.2942(3)
H119 H -0.9925 0.4500 -0.3181
H120 H -0.9964 0.4120 -0.3058
C106 C -0.8247(6) 0.4145(3) -0.3307(2)
H121 H -0.8902 0.4105 -0.3402
C107 C -0.8270(5) 0.4649(4) -0.2399(4)
H122 H -0.8429 0.4832 -0.2610
C108 C -0.9905(6) 0.4735(2) -0.2295(4)
H123 H -1.0310 0.4768 -0.2084
H124 H -1.0007 0.4922 -0.2495
C109 C -0.8615(6) 0.4353(3) -0.2684(3)
H125 H -0.8532 0.4166 -0.2477
C110 C -0.7534(3) 0.40237(11) -0.35903(12)
C111 C -0.6618(3) 0.41538(13) -0.35529(16)
C112 C -0.6068(3) 0.40607(18) -0.3852(2)
C113 C -0.6434(5) 0.3837(2) -0.4189(2)
H126 H -0.6065 0.3775 -0.4389
C114 C -0.7350(5) 0.37073(17) -0.42264(18)
C115 C -0.7900(3) 0.38004(13) -0.39271(15)
H127 H -0.8513 0.3713 -0.3952
C116 C -0.4355(8) 0.4165(4) -0.3476(3)
H128 H -0.3739 0.4236 -0.3519
H129 H -0.4336 0.3932 -0.3413
H130 H -0.4509 0.4285 -0.3233
C117 C -0.5124(5) 0.42343(18) -0.3899(2)
C118 C -0.4837(8) 0.4185(4) -0.4348(3)
H131 H -0.4240 0.4296 -0.4343
H132 H -0.5327 0.4276 -0.4581
H133 H -0.4767 0.3953 -0.4400
C119 C -0.5187(9) 0.46136(19) -0.3854(4)
H134 H -0.4586 0.4712 -0.3875
H135 H -0.5325 0.4667 -0.3572
H136 H -0.5689 0.4698 -0.4086
C120 C -0.7735(5) 0.3425(3) -0.4512(3)
N9 N -0.6883(4) 0.39165(17) 0.0503(2)
C121 C -0.6265(4) 0.4058(2) 0.0251(2)
H137 H -0.6452 0.4054 -0.0057
C122 C -0.6894(9) 0.4051(3) 0.0922(2)
H138 H -0.6513 0.4249 0.0967
H139 H -0.6634 0.3893 0.1149
H140 H -0.7543 0.4103 0.0937
C123 C -0.7476(6) 0.36424(18) 0.0336(3)
H141 H -0.7843 0.3578 0.0548
H142 H -0.7082 0.3460 0.0284
H143 H -0.7904 0.3704 0.0063
N10 N -0.0498(4) 0.50686(17) -0.07424(18)
C124 C -0.0600(6) 0.5358(2) -0.0448(2)
H144 H -0.0322 0.5562 -0.0479
C125 C -0.0889(6) 0.4781(2) -0.0511(3)
H145 H -0.1085 0.4862 -0.0253
H146 H -0.0397 0.4617 -0.0426
H147 H -0.1430 0.4684 -0.0711
C126 C -0.0074(7) 0.5209(4) -0.1110(2)
H148 H 0.0029 0.5442 -0.1065
H149 H -0.0509 0.5171 -0.1389
H150 H 0.0527 0.5101 -0.1109
N11 N 0.4565(4) 0.26956(13) 0.42085(15)
O27 O 0.3858(5) 0.2705(2) 0.4822(2)
C127 C 0.4168(5) 0.28599(18) 0.45261(19)
H151 H 0.4131 0.3090 0.4519
C128 C 0.4674(10) 0.23471(14) 0.4249(4)
H152 H 0.4427 0.2272 0.4497
H153 H 0.5343 0.2291 0.4295
H154 H 0.4327 0.2243 0.3983
C129 C 0.4880(7) 0.2894(2) 0.3882(2)
H155 H 0.4758 0.3123 0.3930
H156 H 0.4536 0.2830 0.3592
H157 H 0.5556 0.2861 0.3906
Co1A Co -0.60056(15) 0.60493(5) -0.27734(6)
Co2A Co -0.82856(13) 0.35353(4) -0.22755(5)
Co3A Co -0.60224(10) 0.69814(4) 0.22249(5)
Co4A Co -0.33024(10) 0.44819(5) 0.27076(6)
Cd2A Cd -0.75289(3) 0.525493(16) -0.006588(16)
Cd5A Cd -1.24810(8) 0.27534(2) -0.50239(3)
N1A N -0.4986(5) 0.6207(2) -0.2961(2)
N2A N -0.5143(4) 0.5882(2) -0.2302(2)
N3A N -0.7077(4) 0.36517(18) -0.2028(2)
N4A N -0.7716(5) 0.3401(2) -0.2722(2)
N5A N -0.5065(6) 0.7115(2) 0.2728(3)
N6A N -0.4935(4) 0.68452(16) 0.1984(2)
N7A N -0.2788(5) 0.4672(3) 0.2269(2)
N8A N -0.2059(6) 0.4290(3) 0.2962(2)
O1A O -0.7175(4) 0.72272(16) -0.48023(19)
O2A O -0.5600(4) 0.71915(18) -0.4566(2)
O3A O -0.6937(5) 0.61872(19) -0.3277(2)
O4A O -0.7061(4) 0.59286(17) -0.25296(18)
O5A O -0.6411(4) 0.54382(18) -0.0525(2)
O6A O -0.7962(4) 0.5433(2) -0.0735(2)
O7A O -0.6508(6) 0.4705(3) -0.0436(3)
O8A O -0.8144(6) 0.4750(2) -0.0354(3)
O9A O -0.8804(4) 0.36715(16) -0.18207(18)
O10A O -0.9581(5) 0.34092(19) -0.25894(17)
O11A O -1.1873(6) 0.2865(2) -0.4392(2)
O12A O -1.0426(7) 0.2959(3) -0.4571(3)
O13A O -0.8020(5) 0.7569(2) 0.4222(3)
O14A O -0.6466(6) 0.7603(3) 0.4439(3)
O15A O -0.6999(6) 0.7099(2) 0.2467(2)
O16A O -0.6858(4) 0.68516(17) 0.1730(2)
O17A O -0.5559(5) 0.5807(2) 0.0443(4)
O18A O -0.7222(5) 0.5791(2) 0.0211(3)
O19A O -0.5422(4) 0.50275(18) 0.04066(18)
O20A O -0.6772(4) 0.5063(2) 0.0616(3)
O21A O -0.4479(5) 0.45789(17) 0.24399(16)
O22A O -0.3843(7) 0.4344(3) 0.3212(3)
O23A O -0.2834(4) 0.33090(19) 0.4713(2)
O24A O -0.1366(5) 0.3393(3) 0.4615(4)
O25A O -0.4525(4) 0.4187(2) -0.0428(3)
O26A O -0.8930(4) 0.53095(19) 0.01642(17)
C1A C -0.6416(4) 0.71137(17) -0.4545(2)
C2A C -0.6532(3) 0.68073(11) -0.42568(14)
C3A C -0.7434(3) 0.66789(15) -0.42542(19)
H1A H -0.7968 0.6751 -0.4462
C4A C -0.7538(5) 0.64427(18) -0.3941(2)
C5A C -0.6740(6) 0.63351(17) -0.3630(2)
C6A C -0.5837(5) 0.64635(17) -0.36328(19)
C7A C -0.5733(3) 0.66996(14) -0.39461(17)
H2A H -0.5129 0.6786 -0.3948
C8A C -0.8419(13) 0.58746(15) -0.4018(6)
H3A H -0.8093 0.5809 -0.4244
H4A H -0.9050 0.5778 -0.4077
H5A H -0.8063 0.5799 -0.3735
C9A C -0.8503(5) 0.62572(14) -0.4012(2)
C10A C -0.8984(6) 0.6342(4) -0.3624(3)
H6A H -0.9040 0.6578 -0.3601
H7A H -0.8600 0.6257 -0.3352
H8A H -0.9612 0.6244 -0.3676
C11A C -0.9261(8) 0.6355(4) -0.4430(3)
H9A H -0.9321 0.6592 -0.4445
H10A H -0.9869 0.6258 -0.4417
H11A H -0.9063 0.6275 -0.4689
C12A C -0.5065(7) 0.6368(2) -0.3304(3)
H12A H -0.4479 0.6441 -0.3353
C13A C -0.4074(4) 0.6123(3) -0.2674(3)
H13A H -0.4044 0.6292 -0.2444
C14A C -0.3137(5) 0.6192(3) -0.2811(3)
H14A H -0.3117 0.6421 -0.2903
H15A H -0.3081 0.6051 -0.3058
C15A C -0.2282(8) 0.6121(2) -0.2403(3)
H16A H -0.1677 0.6124 -0.2498
H17A H -0.2260 0.6291 -0.2180
C16A C -0.2432(5) 0.5788(2) -0.2214(3)
H18A H -0.1861 0.5727 -0.1995
H19A H -0.2525 0.5624 -0.2449
C17A C -0.3303(5) 0.5784(3) -0.1997(3)
H20A H -0.3284 0.5969 -0.1794
H21A H -0.3340 0.5578 -0.1840
C18A C -0.4166(5) 0.5819(3) -0.2412(3)
H22A H -0.4199 0.5623 -0.2600
C19A C -0.5271(7) 0.5765(3) -0.1927(2)
H23A H -0.4740 0.5693 -0.1717
C20A C -0.6217(3) 0.57445(12) -0.18249(13)
C21A C -0.7061(3) 0.58132(18) -0.21324(14)
C22A C -0.7942(3) 0.5778(2) -0.20155(19)
C23A C -0.7980(3) 0.5674(2) -0.1591(2)
H24A H -0.8570 0.5650 -0.1513
C24A C -0.7135(4) 0.5605(2) -0.12837(18)
C25A C -0.6254(3) 0.56405(19) -0.14005(14)
H25A H -0.5689 0.5595 -0.1195
C26A C -0.8892(4) 0.58437(16) -0.23604(19)
C27A C -0.8948(9) 0.5654(3) -0.2798(3)
H26A H -0.9551 0.5700 -0.2997
H27A H -0.8897 0.5420 -0.2738
H28A H -0.8432 0.5723 -0.2931
C28A C -0.9751(5) 0.5761(3) -0.2152(3)
H29A H -1.0338 0.5791 -0.2369
H30A H -0.9746 0.5905 -0.1905
H31A H -0.9704 0.5535 -0.2053
C29A C -0.9021(8) 0.62118(19) -0.2499(4)
H32A H -0.9606 0.6238 -0.2719
H33A H -0.8488 0.6282 -0.2620
H34A H -0.9049 0.6345 -0.2245
C30A C -0.7187(5) 0.5506(3) -0.0830(4)
C31A C -0.7347(12) 0.4574(3) -0.0459(4)
C32A C -0.7740(4) 0.43121(13) -0.08241(17)
C33A C -0.7164(4) 0.41974(17) -0.1101(2)
H35A H -0.6540 0.4276 -0.1069
C34A C -0.7521(6) 0.3965(2) -0.1427(2)
C35A C -0.8454(7) 0.3847(2) -0.1476(3)
C36A C -0.9029(5) 0.3962(2) -0.1199(3)
C37A C -0.8672(4) 0.41943(17) -0.0873(2)
H36A H -0.9058 0.4271 -0.0687
C38A C -0.9927(4) 0.37674(15) -0.1149(2)
C39A C -1.0668(7) 0.3890(3) -0.1558(3)
H37A H -1.0454 0.3834 -0.1822
H38A H -1.0735 0.4126 -0.1541
H39A H -1.1277 0.3787 -0.1565
C40A C -0.9792(11) 0.3389(2) -0.1109(5)
H40A H -0.9520 0.3310 -0.1348
H41A H -1.0404 0.3285 -0.1124
H42A H -0.9370 0.3337 -0.0831
C41A C -1.0362(6) 0.3869(3) -0.0761(2)
H43A H -1.0494 0.4102 -0.0777
H44A H -0.9918 0.3819 -0.0488
H45A H -1.0949 0.3749 -0.0774
C42A C -0.6873(6) 0.3862(3) -0.1674(3)
H46A H -0.6248 0.3941 -0.1591
C43A C -0.6298(6) 0.3512(3) -0.2223(3)
H47A H -0.6247 0.3283 -0.2119
C44A C -0.5373(5) 0.3620(2) -0.2126(3)
H48A H -0.5120 0.3597 -0.1810
H49A H -0.5364 0.3854 -0.2199
C45A C -0.4710(5) 0.3434(2) -0.2372(2)
H50A H -0.4673 0.3202 -0.2287
H51A H -0.4068 0.3527 -0.2294
C46A C -0.5106(5) 0.3464(4) -0.2875(3)
H52A H -0.5069 0.3692 -0.2971
H53A H -0.4747 0.3324 -0.3036
C47A C -0.6147(5) 0.3351(3) -0.2950(4)
H54A H -0.6445 0.3391 -0.3259
H55A H -0.6145 0.3113 -0.2905
C48A C -0.6684(9) 0.3478(4) -0.2717(4)
H56A H -0.6721 0.3710 -0.2815
C49A C -0.8254(8) 0.3268(3) -0.3127(4)
H57A H -0.7898 0.3196 -0.3327
C50A C -0.9239(3) 0.32328(12) -0.32601(12)
C51A C -0.9865(3) 0.32897(16) -0.29814(13)
C52A C -1.0845(3) 0.3240(2) -0.31348(18)
C53A C -1.1199(3) 0.3133(2) -0.3567(2)
H58A H -1.1855 0.3100 -0.3670
C54A C -1.0573(4) 0.3076(2) -0.38457(16)
C55A C -0.9592(3) 0.31261(17) -0.36923(13)
H59A H -0.9173 0.3088 -0.3879
C56A C -1.1533(4) 0.32824(16) -0.2811(2)
C57A C -1.1613(11) 0.3639(2) -0.2647(5)
H60A H -1.2060 0.3645 -0.2456
H61A H -1.1833 0.3782 -0.2897
H62A H -1.0994 0.3712 -0.2487
C58A C -1.1156(9) 0.3117(3) -0.2352(3)
H63A H -1.1607 0.3154 -0.2168
H64A H -1.0548 0.3213 -0.2214
H65A H -1.1079 0.2884 -0.2391
C59A C -1.2517(7) 0.3120(4) -0.3007(6)
H66A H -1.2941 0.3155 -0.2809
H67A H -1.2432 0.2887 -0.3044
H68A H -1.2790 0.3219 -0.3289
C60A C -1.0924(8) 0.2994(3) -0.4274(4)
C61A C -0.7200(5) 0.7551(2) 0.41684(19)
C62A C -0.7095(3) 0.74415(12) 0.37177(11)
C63A C -0.7947(3) 0.73879(17) 0.34082(14)
H69A H -0.8533 0.7427 0.3484
C64A C -0.7922(4) 0.7276(2) 0.29859(14)
C65A C -0.7045(5) 0.7217(2) 0.28731(14)
C66A C -0.6194(4) 0.7271(2) 0.31826(17)
C67A C -0.6218(3) 0.73831(17) 0.36049(15)
H70A H -0.5649 0.7419 0.3812
C68A C -0.8879(4) 0.72483(16) 0.2650(2)
C69A C -0.9771(6) 0.7378(3) 0.2802(4)
H71A H -0.9794 0.7282 0.3084
H72A H -1.0340 0.7318 0.2588
H73A H -0.9735 0.7615 0.2830
C70A C -0.9021(10) 0.68697(19) 0.2580(5)
H74A H -0.9001 0.6764 0.2860
H75A H -0.8518 0.6782 0.2452
H76A H -0.9631 0.6828 0.2385
C71A C -0.2357(5) 0.7062(3) 0.2914(2)
H77A H -0.1851 0.7205 0.3074
H78A H -0.2269 0.6841 0.3038
C72A C -0.8940(11) 0.7421(3) 0.2193(3)
H79A H -0.8402 0.7354 0.2073
H80A H -0.8929 0.7657 0.2231
H81A H -0.9525 0.7357 0.1992
C73A C -0.5274(8) 0.7230(3) 0.3089(4)
H82A H -0.4756 0.7292 0.3313
C74A C -0.4076(6) 0.7033(3) 0.26834(17)
H83A H -0.3977 0.6804 0.2788
C75A C -0.3351(6) 0.7199(4) 0.2927(6)
H84A H -0.3421 0.7199 0.3232
H85A H -0.3387 0.7427 0.2827
C76A C -0.2372(11) 0.7059(5) 0.2427(3)
H86A H -0.1779 0.6959 0.2387
H87A H -0.2375 0.7287 0.2327
C77A C -0.3205(7) 0.6879(3) 0.2128(3)
H88A H -0.3172 0.6906 0.1820
H89A H -0.3176 0.6644 0.2197
C78A C -0.4059(5) 0.7015(3) 0.22007(19)
H90A H -0.4101 0.7242 0.2087
C79A C -0.4952(6) 0.66543(19) 0.1673(2)
H91A H -0.4371 0.6596 0.1605
C80A C -0.5875(3) 0.65065(11) 0.13918(14)
C81A C -0.6775(3) 0.66419(14) 0.13813(17)
C82A C -0.7558(3) 0.65467(19) 0.1053(2)
C83A C -0.7441(4) 0.6316(2) 0.0735(2)
H92A H -0.7965 0.6253 0.0515
C84A C -0.6541(5) 0.61809(19) 0.0746(2)
C85A C -0.5757(4) 0.62760(14) 0.10739(18)
H93A H -0.5155 0.6185 0.1081
C86A C -0.8562(4) 0.67098(16) 0.10087(17)
C87A C -0.8403(10) 0.7091(2) 0.0999(5)
H94A H -0.9009 0.7203 0.0966
H95A H -0.8120 0.7147 0.0753
H96A H -0.7982 0.7160 0.1270
C88A C -0.9023(6) 0.6613(3) 0.1390(2)
H97A H -0.9638 0.6719 0.1353
H98A H -0.8618 0.6682 0.1665
H99A H -0.9105 0.6377 0.1392
C89A C -0.9263(8) 0.6616(3) 0.0580(3)
H100A H -0.9861 0.6729 0.0565
H101A H -0.9368 0.6381 0.0574
H102A H -0.9000 0.6679 0.0332
C90A C -0.5925(4) 0.5041(2) 0.06858(18)
C91A C -0.6440(4) 0.59168(19) 0.0404(3)
C92A C -0.5530(3) 0.49237(13) 0.11748(11)
C93A C -0.4549(3) 0.48734(18) 0.13256(14)
H103A H -0.4132 0.4914 0.1139
C94A C -0.4192(4) 0.4762(2) 0.17553(16)
C95A C -0.4815(5) 0.4701(2) 0.20342(14)
C96A C -0.5796(4) 0.4751(2) 0.18834(14)
C97A C -0.6153(3) 0.48627(18) 0.14537(14)
H104A H -0.6809 0.4896 0.1353
C98A C -0.7590(5) 0.4764(3) 0.1948(3)
H105A H -0.8002 0.4702 0.2142
H106A H -0.7790 0.4652 0.1670
H107A H -0.7625 0.4999 0.1900
C99A C -0.6543(4) 0.46654(17) 0.2162(2)
C100A C -0.6506(7) 0.42897(17) 0.2254(3)
H108A H -0.5861 0.4227 0.2393
H109A H -0.6705 0.4172 0.1980
H110A H -0.6928 0.4237 0.2447
C101A C -0.6349(9) 0.4854(3) 0.2602(3)
H111A H -0.5709 0.4808 0.2764
H112A H -0.6801 0.4785 0.2773
H113A H -0.6417 0.5088 0.2545
C102A C -0.3151(5) 0.4721(3) 0.1885(3)
H114A H -0.2776 0.4732 0.1675
C103A C -0.1151(5) 0.4746(3) 0.2034(3)
H115A H -0.1265 0.4589 0.1792
H116A H -0.1324 0.4967 0.1918
C104A C 0.0263(6) 0.4430(2) 0.2562(2)
H117A H 0.0944 0.4458 0.2686
H118A H 0.0194 0.4242 0.2361
C105A C -0.0222(7) 0.4340(4) 0.2942(3)
H119A H -0.0075 0.4500 0.3181
H120A H -0.0036 0.4120 0.3058
C106A C -0.1753(6) 0.4145(3) 0.3307(2)
H121A H -0.1098 0.4105 0.3402
C107A C -0.1730(5) 0.4649(4) 0.2399(4)
H122A H -0.1571 0.4832 0.2610
C108A C -0.0095(6) 0.4735(2) 0.2295(4)
H123A H 0.0310 0.4768 0.2084
H124A H 0.0007 0.4922 0.2495
C109A C -0.1385(6) 0.4353(3) 0.2684(3)
H125A H -0.1468 0.4166 0.2477
C110A C -0.2466(3) 0.40237(11) 0.35903(12)
C111A C -0.3382(3) 0.41538(13) 0.35529(16)
C112A C -0.3932(3) 0.40607(18) 0.3852(2)
C113A C -0.3566(5) 0.3837(2) 0.4189(2)
H126A H -0.3935 0.3775 0.4389
C114A C -0.2650(5) 0.37073(17) 0.42264(18)
C115A C -0.2100(3) 0.38004(13) 0.39271(15)
H127A H -0.1487 0.3713 0.3952
C116A C -0.5645(8) 0.4165(4) 0.3476(3)
H128A H -0.6261 0.4236 0.3519
H129A H -0.5664 0.3932 0.3413
H130A H -0.5491 0.4285 0.3233
C117A C -0.4876(5) 0.42343(18) 0.3899(2)
C118A C -0.5163(8) 0.4185(4) 0.4348(3)
H131A H -0.5760 0.4296 0.4343
H132A H -0.4673 0.4276 0.4581
H133A H -0.5233 0.3953 0.4400
C119A C -0.4813(9) 0.46136(19) 0.3854(4)
H134A H -0.5414 0.4712 0.3875
H135A H -0.4675 0.4667 0.3572
H136A H -0.4311 0.4698 0.4086
C120A C -0.2265(5) 0.3425(3) 0.4512(3)
N9A N -0.3117(4) 0.39165(17) -0.0503(2)
C121A C -0.3735(4) 0.4058(2) -0.0251(2)
H137A H -0.3548 0.4054 0.0057
C122A C -0.3106(9) 0.4051(3) -0.0922(2)
H138A H -0.3487 0.4249 -0.0967
H139A H -0.3366 0.3893 -0.1149
H140A H -0.2457 0.4103 -0.0937
C123A C -0.2524(6) 0.36424(18) -0.0336(3)
H141A H -0.2157 0.3578 -0.0548
H142A H -0.2918 0.3460 -0.0284
H143A H -0.2096 0.3704 -0.0063
N10A N -0.9502(4) 0.50686(17) 0.07424(18)
C124A C -0.9400(6) 0.5358(2) 0.0448(2)
H144A H -0.9678 0.5562 0.0479
C125A C -0.9111(6) 0.4781(2) 0.0511(3)
H145A H -0.8915 0.4862 0.0253
H146A H -0.9603 0.4617 0.0426
H147A H -0.8570 0.4684 0.0711
C126A C -0.9926(7) 0.5209(4) 0.1110(2)
H148A H -1.0029 0.5442 0.1065
H149A H -0.9491 0.5171 0.1389
H150A H -1.0527 0.5101 0.1109
N11A N -1.4565(4) 0.26956(13) -0.42085(15)
O27A O -1.3858(5) 0.2705(2) -0.4822(2)
C127A C -1.4168(5) 0.28599(18) -0.45261(19)
H151A H -1.4131 0.3090 -0.4519
C128A C -1.4674(10) 0.23471(14) -0.4249(4)
H152A H -1.4427 0.2272 -0.4497
H153A H -1.5343 0.2291 -0.4295
H154A H -1.4327 0.2243 -0.3983
C129A C -1.4880(7) 0.2894(2) -0.3882(2)
H155A H -1.4758 0.3123 -0.3930
H156A H -1.4536 0.2830 -0.3592
H157A H -1.5556 0.2861 -0.3906
Cd4_2 Cd -1.0000 0.33960(3) -0.5000
Cd5_2 Cd -0.75190(8) 0.27534(2) -0.49761(3)
Cd5A_2 Cd -0.24810(8) 0.27534(2) 0.49761(3)
Cd5B Cd -0.25190(8) 0.77534(2) -0.49761(3)
Cd5B_2 Cd -0.25190(8) 0.77534(2) 0.50239(3)
Cd5C Cd -0.74810(8) 0.77534(2) -0.50239(3)
Cd5C_2 Cd -0.74810(8) 0.77534(2) 0.49761(3)
Cd6_2 Cd -1.0000 0.25270(2) -0.5000
Cd6B Cd -0.5000 0.75270(2) -0.5000
Cd6B_2 Cd -0.5000 0.75270(2) 0.5000
O1B O 0.2175(4) 0.22272(16) 0.48023(19)
O1C O -1.2175(4) 0.22272(16) -0.48023(19)
O2B O 0.0600(4) 0.21915(18) 0.4566(2)
O2C O -0.0600(4) 0.21915(18) 0.5434(2)
O12A_2 O -0.0426(7) 0.2959(3) 0.5429(3)
O13B O 0.3020(5) 0.2569(2) 0.5778(3)
O13C O -1.3020(5) 0.2569(2) -0.5778(3)
O14B O 0.1466(6) 0.2603(3) 0.5561(3)
O14C O -1.1466(6) 0.2603(3) -0.5561(3)
O14C_2 O -0.1466(6) 0.2603(3) 0.4439(3)
O23_2 O 0.2834(4) 0.33090(19) 0.5287(2)
O23A_2 O -1.2834(4) 0.33090(19) -0.5287(2)
O24_2 O 0.1366(5) 0.3393(3) 0.5385(4)
C130 C -0.6601(5) 0.5298(2) 0.6357(2)
C131 C -0.5804(7) 0.5465(4) 0.6182(3)
O28 O -0.6589(7) 0.5266(4) 0.67528(18)
O29 O -0.7337(5) 0.5184(3) 0.6134(3)
C132 C -0.1274(5) 0.4169(2) 0.5165(2)
C133 C -0.0837(8) 0.3994(3) 0.5583(2)
O30 O -0.2043 0.4303 0.5158
O31 O -0.1059 0.4211 0.4807
C134 C -0.3943(7) 0.6782(4) 0.0193(4)
C135 C -0.3276(5) 0.6667(2) 0.0625(2)
O32 O -0.3430(7) 0.6739(4) 0.0993(3)
O33 O -0.2601(5) 0.6502(3) 0.0551(3)
C136 C -0.2195(5) 0.2836(2) 0.0905(2)
C137 C -0.3007(4) 0.3016(3) 0.1058(3)
O34 O -0.2270(8) 0.2805(4) 0.0513(2)
O35 O -0.1554(6) 0.2738(3) 0.1195(4)
N12 N -0.2323(5) 0.65301(18) 0.5887(2)
C138 C -0.1847(7) 0.6334(2) 0.6277(3)
C139 C -0.1743(5) 0.6722(2) 0.5690(3)
C140 C -0.3368(4) 0.6475(3) 0.5783(3)
O36 O -0.3771(8) 0.6592(3) 0.5424(3)
loop_
_geom_bond_atom_site_label_1
_geom_bond_atom_site_label_2
_geom_bond_site_symmetry_1
_geom_bond_site_symmetry_2
Co1 N1 1_555 1_555
Co2 N3 1_555 1_555
Co3 N5 1_555 1_555
Co4 N7 1_555 1_555
Cd1 O5 1_555 1_555
Cd2 O5 1_555 1_555
Cd3 O7 1_555 1_555
Cd4 O12 1_555 1_555
Cd5 O11 1_555 1_555
Cd6 O12 1_555 1_555
N1 C12 1_555 1_555
N2 Co1 1_555 1_555
N3 C42 1_555 1_555
N4 Co2 1_555 1_555
N5 C73 1_555 1_555
N6 Co3 1_555 1_555
N7 C102 1_555 1_555
N8 Co4 1_555 1_555
O1 C1 1_555 1_555
O2 C1 1_555 1_555
O3 Co1 1_555 1_555
O4 Co1 1_555 1_555
O5 C30 1_555 1_555
O6 Cd2 1_555 1_555
O7 C31 1_555 1_555
O8 Cd2 1_555 1_555
O9 Co2 1_555 1_555
O10 Co2 1_555 1_555
O11 C60 1_555 1_555
O12 C60 1_555 1_555
O13 C61 1_555 1_555
O14 C61 1_555 1_555
O15 Co3 1_555 1_555
O16 Co3 1_555 1_555
O17 Cd1 1_555 1_555
O18 Cd2 1_555 1_555
O19 Cd1 1_555 1_555
O20 Cd2 1_555 1_555
O21 Co4 1_555 1_555
O22 Co4 1_555 1_555
O23 C120 1_555 1_555
O24 C120 1_555 1_555
O25 Cd3 1_555 1_555
O26 Cd2 1_555 1_555
C1 C2 1_555 1_555
C2 C3 1_555 1_555
C3 H1 1_555 1_555
C4 C3 1_555 1_555
C5 O3 1_555 1_555
C6 C5 1_555 1_555
C7 C2 1_555 1_555
H2 C7 1_555 1_555
C8 H3 1_555 1_555
H4 C8 1_555 1_555
H5 C8 1_555 1_555
C9 C4 1_555 1_555
C10 C9 1_555 1_555
H6 C10 1_555 1_555
H7 C10 1_555 1_555
H8 C10 1_555 1_555
C11 C9 1_555 1_555
H9 C11 1_555 1_555
H10 C11 1_555 1_555
H11 C11 1_555 1_555
C12 C6 1_555 1_555
H12 C12 1_555 1_555
C13 N1 1_555 1_555
H13 C13 1_555 1_555
C14 C13 1_555 1_555
H14 C14 1_555 1_555
H15 C14 1_555 1_555
C15 C14 1_555 1_555
H16 C15 1_555 1_555
H17 C15 1_555 1_555
C16 C15 1_555 1_555
H18 C16 1_555 1_555
H19 C16 1_555 1_555
C17 C16 1_555 1_555
H20 C17 1_555 1_555
H21 C17 1_555 1_555
C18 N2 1_555 1_555
H22 C18 1_555 1_555
C19 N2 1_555 1_555
H23 C19 1_555 1_555
C20 C19 1_555 1_555
C21 O4 1_555 1_555
C22 C21 1_555 1_555
C23 C22 1_555 1_555
H24 C23 1_555 1_555
C24 C23 1_555 1_555
C25 C20 1_555 1_555
H25 C25 1_555 1_555
C26 C22 1_555 1_555
C27 C26 1_555 1_555
H26 C27 1_555 1_555
H27 C27 1_555 1_555
H28 C27 1_555 1_555
C28 C26 1_555 1_555
H29 C28 1_555 1_555
H30 C28 1_555 1_555
H31 C28 1_555 1_555
C29 C26 1_555 1_555
H32 C29 1_555 1_555
H33 C29 1_555 1_555
H34 C29 1_555 1_555
C30 O6 1_555 1_555
C31 O8 1_555 1_555
C32 C31 1_555 1_555
C33 C32 1_555 1_555
H35 C33 1_555 1_555
C34 C33 1_555 1_555
C35 O9 1_555 1_555
C36 C35 1_555 1_555
C37 C32 1_555 1_555
H36 C37 1_555 1_555
C38 C36 1_555 1_555
C39 C38 1_555 1_555
H37 C39 1_555 1_555
H38 C39 1_555 1_555
H39 C39 1_555 1_555
C40 C38 1_555 1_555
H40 C40 1_555 1_555
H41 C40 1_555 1_555
H42 C40 1_555 1_555
C41 C38 1_555 1_555
H43 C41 1_555 1_555
H44 C41 1_555 1_555
H45 C41 1_555 1_555
C42 C34 1_555 1_555
H46 C42 1_555 1_555
C43 N3 1_555 1_555
H47 C43 1_555 1_555
C44 C43 1_555 1_555
H48 C44 1_555 1_555
H49 C44 1_555 1_555
C45 C44 1_555 1_555
H50 C45 1_555 1_555
H51 C45 1_555 1_555
C46 C45 1_555 1_555
H52 C46 1_555 1_555
H53 C46 1_555 1_555
C47 C46 1_555 1_555
H54 C47 1_555 1_555
H55 C47 1_555 1_555
C48 N4 1_555 1_555
H56 C48 1_555 1_555
C49 N4 1_555 1_555
H57 C49 1_555 1_555
C50 C49 1_555 1_555
C51 O10 1_555 1_555
C52 C51 1_555 1_555
C53 C52 1_555 1_555
H58 C53 1_555 1_555
C54 C53 1_555 1_555
C55 C50 1_555 1_555
H59 C55 1_555 1_555
C56 C52 1_555 1_555
C57 C56 1_555 1_555
H60 C57 1_555 1_555
H61 C57 1_555 1_555
H62 C57 1_555 1_555
C58 C56 1_555 1_555
H63 C58 1_555 1_555
H64 C58 1_555 1_555
H65 C58 1_555 1_555
C59 C56 1_555 1_555
H66 C59 1_555 1_555
H67 C59 1_555 1_555
H68 C59 1_555 1_555
C60 C54 1_555 1_555
C61 C62 1_555 1_555
C62 C63 1_555 1_555
C63 H69 1_555 1_555
C64 C63 1_555 1_555
C65 O15 1_555 1_555
C66 C65 1_555 1_555
C67 C62 1_555 1_555
H70 C67 1_555 1_555
C68 C64 1_555 1_555
C69 C68 1_555 1_555
H71 C69 1_555 1_555
H72 C69 1_555 1_555
H73 C69 1_555 1_555
C70 C68 1_555 1_555
H74 C70 1_555 1_555
H75 C70 1_555 1_555
H76 C70 1_555 1_555
C71 H77 1_555 1_555
H78 C71 1_555 1_555
C72 C68 1_555 1_555
H79 C72 1_555 1_555
H80 C72 1_555 1_555
H81 C72 1_555 1_555
C73 C66 1_555 1_555
H82 C73 1_555 1_555
C74 N5 1_555 1_555
H83 C74 1_555 1_555
C75 C71 1_555 1_555
H84 C75 1_555 1_555
H85 C75 1_555 1_555
C76 C71 1_555 1_555
H86 C76 1_555 1_555
H87 C76 1_555 1_555
C77 C76 1_555 1_555
H88 C77 1_555 1_555
H89 C77 1_555 1_555
C78 N6 1_555 1_555
H90 C78 1_555 1_555
C79 N6 1_555 1_555
H91 C79 1_555 1_555
C80 C79 1_555 1_555
C81 O16 1_555 1_555
C82 C81 1_555 1_555
C83 C82 1_555 1_555
H92 C83 1_555 1_555
C84 C83 1_555 1_555
C85 C80 1_555 1_555
H93 C85 1_555 1_555
C86 C82 1_555 1_555
C87 C86 1_555 1_555
H94 C87 1_555 1_555
H95 C87 1_555 1_555
H96 C87 1_555 1_555
C88 C86 1_555 1_555
H97 C88 1_555 1_555
H98 C88 1_555 1_555
H99 C88 1_555 1_555
C89 C86 1_555 1_555
H100 C89 1_555 1_555
H101 C89 1_555 1_555
H102 C89 1_555 1_555
C90 O19 1_555 1_555
C91 O17 1_555 1_555
C92 C90 1_555 1_555
C93 C92 1_555 1_555
H103 C93 1_555 1_555
C94 C93 1_555 1_555
C95 O21 1_555 1_555
C96 C95 1_555 1_555
C97 C92 1_555 1_555
H104 C97 1_555 1_555
C98 H105 1_555 1_555
H106 C98 1_555 1_555
H107 C98 1_555 1_555
C99 C96 1_555 1_555
C100 C99 1_555 1_555
H108 C100 1_555 1_555
H109 C100 1_555 1_555
H110 C100 1_555 1_555
C101 C99 1_555 1_555
H111 C101 1_555 1_555
H112 C101 1_555 1_555
H113 C101 1_555 1_555
C102 C94 1_555 1_555
H114 C102 1_555 1_555
C103 H115 1_555 1_555
H116 C103 1_555 1_555
C104 H117 1_555 1_555
H118 C104 1_555 1_555
C105 C104 1_555 1_555
H119 C105 1_555 1_555
H120 C105 1_555 1_555
C106 N8 1_555 1_555
H121 C106 1_555 1_555
C107 N7 1_555 1_555
H122 C107 1_555 1_555
C108 C103 1_555 1_555
H123 C108 1_555 1_555
H124 C108 1_555 1_555
C109 N8 1_555 1_555
H125 C109 1_555 1_555
C110 C106 1_555 1_555
C111 O22 1_555 1_555
C112 C111 1_555 1_555
C113 C112 1_555 1_555
H126 C113 1_555 1_555
C114 C113 1_555 1_555
C115 C110 1_555 1_555
H127 C115 1_555 1_555
C116 H128 1_555 1_555
H129 C116 1_555 1_555
H130 C116 1_555 1_555
C117 C112 1_555 1_555
C118 C117 1_555 1_555
H131 C118 1_555 1_555
H132 C118 1_555 1_555
H133 C118 1_555 1_555
C119 C117 1_555 1_555
H134 C119 1_555 1_555
H135 C119 1_555 1_555
H136 C119 1_555 1_555
C120 C114 1_555 1_555
N9 C121 1_555 1_555
C121 O25 1_555 1_555
H137 C121 1_555 1_555
C122 N9 1_555 1_555
H138 C122 1_555 1_555
H139 C122 1_555 1_555
H140 C122 1_555 1_555
C123 N9 1_555 1_555
H141 C123 1_555 1_555
H142 C123 1_555 1_555
H143 C123 1_555 1_555
N10 C124 1_555 1_555
C124 O26 1_555 1_555
H144 C124 1_555 1_555
C125 N10 1_555 1_555
H145 C125 1_555 1_555
H146 C125 1_555 1_555
H147 C125 1_555 1_555
C126 N10 1_555 1_555
H148 C126 1_555 1_555
H149 C126 1_555 1_555
H150 C126 1_555 1_555
N11 C127 1_555 1_555
O27 Cd5 1_555 1_555
C127 O27 1_555 1_555
H151 C127 1_555 1_555
C128 N11 1_555 1_555
H152 C128 1_555 1_555
H153 C128 1_555 1_555
H154 C128 1_555 1_555
C129 N11 1_555 1_555
H155 C129 1_555 1_555
H156 C129 1_555 1_555
H157 C129 1_555 1_555
C130 C131 1_555 1_555
O28 C130 1_555 1_555
O29 C130 1_555 1_555
C132 C133 1_555 1_555
O30 C132 1_555 1_555
O31 C132 1_555 1_555
C134 C135 1_555 1_555
C135 O32 1_555 1_555
O33 C135 1_555 1_555
C136 C137 1_555 1_555
O34 C136 1_555 1_555
O35 C136 1_555 1_555
N12 C138 1_555 1_555
C139 N12 1_555 1_555
C140 N12 1_555 1_555
O36 C140 1_555 1_555
Co1A N1A 1_555 1_555
Co2A N3A 1_555 1_555
Co3A N5A 1_555 1_555
Co4A N7A 1_555 1_555
Cd2A O5A 1_555 1_555
Cd5A O11A 1_555 1_555
N1A C12A 1_555 1_555
N2A Co1A 1_555 1_555
N3A C42A 1_555 1_555
N4A Co2A 1_555 1_555
N5A C73A 1_555 1_555
N6A Co3A 1_555 1_555
N7A C102A 1_555 1_555
N8A Co4A 1_555 1_555
O1A C1A 1_555 1_555
O2A C1A 1_555 1_555
O3A Co1A 1_555 1_555
O4A Co1A 1_555 1_555
O5A Cd1 1_555 1_555
O6A Cd2A 1_555 1_555
O7A Cd3 1_555 1_555
O8A Cd2A 1_555 1_555
O9A Co2A 1_555 1_555
O10A Co2A 1_555 1_555
O11A C60A 1_555 1_555
O12A C60A 1_555 1_555
O13A C61A 1_555 1_555
O14A C61A 1_555 1_555
O15A Co3A 1_555 1_555
O16A Co3A 1_555 1_555
O17A Cd1 1_555 1_555
O18A Cd2A 1_555 1_555
O19A Cd1 1_555 1_555
O20A Cd2A 1_555 1_555
O21A Co4A 1_555 1_555
O22A Co4A 1_555 1_555
O23A C120A 1_555 1_555
O24A Cd4 1_555 1_555
O25A Cd3 1_555 1_555
O26A Cd2A 1_555 1_555
C1A C2A 1_555 1_555
C2A C3A 1_555 1_555
C3A H1A 1_555 1_555
C4A C3A 1_555 1_555
C5A O3A 1_555 1_555
C6A C5A 1_555 1_555
C7A C2A 1_555 1_555
H2A C7A 1_555 1_555
C8A H3A 1_555 1_555
H4A C8A 1_555 1_555
H5A C8A 1_555 1_555
C9A C4A 1_555 1_555
C10A C9A 1_555 1_555
H6A C10A 1_555 1_555
H7A C10A 1_555 1_555
H8A C10A 1_555 1_555
C11A C9A 1_555 1_555
H9A C11A 1_555 1_555
H10A C11A 1_555 1_555
H11A C11A 1_555 1_555
C12A C6A 1_555 1_555
H12A C12A 1_555 1_555
C13A N1A 1_555 1_555
H13A C13A 1_555 1_555
C14A C13A 1_555 1_555
H14A C14A 1_555 1_555
H15A C14A 1_555 1_555
C15A C14A 1_555 1_555
H16A C15A 1_555 1_555
H17A C15A 1_555 1_555
C16A C15A 1_555 1_555
H18A C16A 1_555 1_555
H19A C16A 1_555 1_555
C17A C16A 1_555 1_555
H20A C17A 1_555 1_555
H21A C17A 1_555 1_555
C18A N2A 1_555 1_555
H22A C18A 1_555 1_555
C19A N2A 1_555 1_555
H23A C19A 1_555 1_555
C20A C19A 1_555 1_555
C21A O4A 1_555 1_555
C22A C21A 1_555 1_555
C23A C22A 1_555 1_555
H24A C23A 1_555 1_555
C24A C23A 1_555 1_555
C25A C20A 1_555 1_555
H25A C25A 1_555 1_555
C26A C22A 1_555 1_555
C27A C26A 1_555 1_555
H26A C27A 1_555 1_555
H27A C27A 1_555 1_555
H28A C27A 1_555 1_555
C28A C26A 1_555 1_555
H29A C28A 1_555 1_555
H30A C28A 1_555 1_555
H31A C28A 1_555 1_555
C29A C26A 1_555 1_555
H32A C29A 1_555 1_555
H33A C29A 1_555 1_555
H34A C29A 1_555 1_555
C30A O5A 1_555 1_555
C31A O7A 1_555 1_555
C32A C31A 1_555 1_555
C33A C32A 1_555 1_555
H35A C33A 1_555 1_555
C34A C33A 1_555 1_555
C35A O9A 1_555 1_555
C36A C35A 1_555 1_555
C37A C32A 1_555 1_555
H36A C37A 1_555 1_555
C38A C36A 1_555 1_555
C39A C38A 1_555 1_555
H37A C39A 1_555 1_555
H38A C39A 1_555 1_555
H39A C39A 1_555 1_555
C40A C38A 1_555 1_555
H40A C40A 1_555 1_555
H41A C40A 1_555 1_555
H42A C40A 1_555 1_555
C41A C38A 1_555 1_555
H43A C41A 1_555 1_555
H44A C41A 1_555 1_555
H45A C41A 1_555 1_555
C42A C34A 1_555 1_555
H46A C42A 1_555 1_555
C43A N3A 1_555 1_555
H47A C43A 1_555 1_555
C44A C43A 1_555 1_555
H48A C44A 1_555 1_555
H49A C44A 1_555 1_555
C45A C44A 1_555 1_555
H50A C45A 1_555 1_555
H51A C45A 1_555 1_555
C46A C45A 1_555 1_555
H52A C46A 1_555 1_555
H53A C46A 1_555 1_555
C47A C46A 1_555 1_555
H54A C47A 1_555 1_555
H55A C47A 1_555 1_555
C48A N4A 1_555 1_555
H56A C48A 1_555 1_555
C49A N4A 1_555 1_555
H57A C49A 1_555 1_555
C50A C49A 1_555 1_555
C51A O10A 1_555 1_555
C52A C51A 1_555 1_555
C53A C52A 1_555 1_555
H58A C53A 1_555 1_555
C54A C53A 1_555 1_555
C55A C50A 1_555 1_555
H59A C55A 1_555 1_555
C56A C52A 1_555 1_555
C57A C56A 1_555 1_555
H60A C57A 1_555 1_555
H61A C57A 1_555 1_555
H62A C57A 1_555 1_555
C58A C56A 1_555 1_555
H63A C58A 1_555 1_555
H64A C58A 1_555 1_555
H65A C58A 1_555 1_555
C59A C56A 1_555 1_555
H66A C59A 1_555 1_555
H67A C59A 1_555 1_555
H68A C59A 1_555 1_555
C60A C54A 1_555 1_555
C61A C62A 1_555 1_555
C62A C63A 1_555 1_555
C63A H69A 1_555 1_555
C64A C63A 1_555 1_555
C65A O15A 1_555 1_555
C66A C65A 1_555 1_555
C67A C62A 1_555 1_555
H70A C67A 1_555 1_555
C68A C64A 1_555 1_555
C69A C68A 1_555 1_555
H71A C69A 1_555 1_555
H72A C69A 1_555 1_555
H73A C69A 1_555 1_555
C70A C68A 1_555 1_555
H74A C70A 1_555 1_555
H75A C70A 1_555 1_555
H76A C70A 1_555 1_555
C71A H77A 1_555 1_555
H78A C71A 1_555 1_555
C72A C68A 1_555 1_555
H79A C72A 1_555 1_555
H80A C72A 1_555 1_555
H81A C72A 1_555 1_555
C73A C66A 1_555 1_555
H82A C73A 1_555 1_555
C74A N5A 1_555 1_555
H83A C74A 1_555 1_555
C75A C71A 1_555 1_555
H84A C75A 1_555 1_555
H85A C75A 1_555 1_555
C76A C71A 1_555 1_555
H86A C76A 1_555 1_555
H87A C76A 1_555 1_555
C77A C76A 1_555 1_555
H88A C77A 1_555 1_555
H89A C77A 1_555 1_555
C78A N6A 1_555 1_555
H90A C78A 1_555 1_555
C79A N6A 1_555 1_555
H91A C79A 1_555 1_555
C80A C79A 1_555 1_555
C81A O16A 1_555 1_555
C82A C81A 1_555 1_555
C83A C82A 1_555 1_555
H92A C83A 1_555 1_555
C84A C83A 1_555 1_555
C85A C80A 1_555 1_555
H93A C85A 1_555 1_555
C86A C82A 1_555 1_555
C87A C86A 1_555 1_555
H94A C87A 1_555 1_555
H95A C87A 1_555 1_555
H96A C87A 1_555 1_555
C88A C86A 1_555 1_555
H97A C88A 1_555 1_555
H98A C88A 1_555 1_555
H99A C88A 1_555 1_555
C89A C86A 1_555 1_555
H100A C89A 1_555 1_555
H101A C89A 1_555 1_555
H102A C89A 1_555 1_555
C90A O19A 1_555 1_555
C91A O17A 1_555 1_555
C92A C90A 1_555 1_555
C93A C92A 1_555 1_555
H103A C93A 1_555 1_555
C94A C93A 1_555 1_555
C95A O21A 1_555 1_555
C96A C95A 1_555 1_555
C97A C92A 1_555 1_555
H104A C97A 1_555 1_555
C98A H105A 1_555 1_555
H106A C98A 1_555 1_555
H107A C98A 1_555 1_555
C99A C96A 1_555 1_555
C100A C99A 1_555 1_555
H108A C100A 1_555 1_555
H109A C100A 1_555 1_555
H110A C100A 1_555 1_555
C101A C99A 1_555 1_555
H111A C101A 1_555 1_555
H112A C101A 1_555 1_555
H113A C101A 1_555 1_555
C102A C94A 1_555 1_555
H114A C102A 1_555 1_555
C103A H115A 1_555 1_555
H116A C103A 1_555 1_555
C104A H117A 1_555 1_555
H118A C104A 1_555 1_555
C105A C104A 1_555 1_555
H119A C105A 1_555 1_555
H120A C105A 1_555 1_555
C106A N8A 1_555 1_555
H121A C106A 1_555 1_555
C107A N7A 1_555 1_555
H122A C107A 1_555 1_555
C108A C103A 1_555 1_555
H123A C108A 1_555 1_555
H124A C108A 1_555 1_555
C109A N8A 1_555 1_555
H125A C109A 1_555 1_555
C110A C106A 1_555 1_555
C111A O22A 1_555 1_555
C112A C111A 1_555 1_555
C113A C112A 1_555 1_555
H126A C113A 1_555 1_555
C114A C113A 1_555 1_555
C115A C110A 1_555 1_555
H127A C115A 1_555 1_555
C116A H128A 1_555 1_555
H129A C116A 1_555 1_555
H130A C116A 1_555 1_555
C117A C112A 1_555 1_555
C118A C117A 1_555 1_555
H131A C118A 1_555 1_555
H132A C118A 1_555 1_555
H133A C118A 1_555 1_555
C119A C117A 1_555 1_555
H134A C119A 1_555 1_555
H135A C119A 1_555 1_555
H136A C119A 1_555 1_555
C120A O24A 1_555 1_555
N9A C121A 1_555 1_555
C121A O25A 1_555 1_555
H137A C121A 1_555 1_555
C122A N9A 1_555 1_555
H138A C122A 1_555 1_555
H139A C122A 1_555 1_555
H140A C122A 1_555 1_555
C123A N9A 1_555 1_555
H141A C123A 1_555 1_555
H142A C123A 1_555 1_555
H143A C123A 1_555 1_555
N10A C124A 1_555 1_555
C124A O26A 1_555 1_555
H144A C124A 1_555 1_555
C125A N10A 1_555 1_555
H145A C125A 1_555 1_555
H146A C125A 1_555 1_555
H147A C125A 1_555 1_555
C126A N10A 1_555 1_555
H148A C126A 1_555 1_555
H149A C126A 1_555 1_555
H150A C126A 1_555 1_555
N11A C127A 1_555 1_555
O27A Cd5A 1_555 1_555
C127A O27A 1_555 1_555
H151A C127A 1_555 1_555
C128A N11A 1_555 1_555
H152A C128A 1_555 1_555
H153A C128A 1_555 1_555
H154A C128A 1_555 1_555
C129A N11A 1_555 1_555
H155A C129A 1_555 1_555
H156A C129A 1_555 1_555
H157A C129A 1_555 1_555
Cd4_2 O24 1_555 1_555
Cd5_2 O23 1_555 1_555
Cd5A_2 O23A 1_555 1_555
Cd5B O13 1_555 1_555
Cd5B_2 O1 1_555 1_555
Cd5C O1A 1_555 1_555
Cd5C_2 O13A 1_555 1_555
Cd6_2 O12A 1_555 1_555
Cd6B O14 1_555 1_555
Cd6B_2 O2 1_555 1_555
O1B Cd5 1_555 1_555
O1C Cd5A 1_555 1_555
O2B Cd6 1_555 1_555
O2C Cd6 1_555 1_555
O12A_2 Cd4 1_555 1_555
O13B Cd5 1_555 1_555
O13C Cd5A 1_555 1_555
O14B Cd5 1_555 1_555
O14C Cd5A 1_555 1_555
O14C_2 Cd6 1_555 1_555
O23_2 Cd5 1_555 1_555
O23A_2 Cd5A 1_555 1_555
O24_2 Cd4 1_555 1_555
Cd3 O19 1_555 1_555
Cd3 O19A 1_555 1_555
Cd6 O12A_2 1_555 1_555
Cd6 O14B 1_555 1_555
O14 Cd5B 1_555 1_555
O18 C91 1_555 1_555
O20 C90 1_555 1_555
C4 C5 1_555 1_555
C6 C7 1_555 1_555
C8 C9 1_555 1_555
C13 C18 1_555 1_555
C17 C18 1_555 1_555
C20 C21 1_555 1_555
C24 C25 1_555 1_555
C24 C30 1_555 1_555
C34 C35 1_555 1_555
C36 C37 1_555 1_555
C43 C48 1_555 1_555
C47 C48 1_555 1_555
C50 C51 1_555 1_555
C54 C55 1_555 1_555
C64 C65 1_555 1_555
C66 C67 1_555 1_555
C74 C75 1_555 1_555
C74 C78 1_555 1_555
C77 C78 1_555 1_555
C80 C81 1_555 1_555
C84 C85 1_555 1_555
C84 C91 1_555 1_555
C94 C95 1_555 1_555
C96 C97 1_555 1_555
C98 C99 1_555 1_555
C103 C107 1_555 1_555
C104 C108 1_555 1_555
C105 C109 1_555 1_555
C107 C109 1_555 1_555
C110 C111 1_555 1_555
C114 C115 1_555 1_555
C116 C117 1_555 1_555
O2A Cd6B 1_555 1_555
O6A C30A 1_555 1_555
O8A C31A 1_555 1_555
O12A Cd4_2 1_555 1_555
O14A Cd5C_2 1_555 1_555
O14A Cd6B_2 1_555 1_555
O18A C91A 1_555 1_555
O20A C90A 1_555 1_555
C4A C5A 1_555 1_555
C6A C7A 1_555 1_555
C8A C9A 1_555 1_555
C13A C18A 1_555 1_555
C17A C18A 1_555 1_555
C20A C21A 1_555 1_555
C24A C25A 1_555 1_555
C24A C30A 1_555 1_555
C34A C35A 1_555 1_555
C36A C37A 1_555 1_555
C43A C48A 1_555 1_555
C47A C48A 1_555 1_555
C50A C51A 1_555 1_555
C54A C55A 1_555 1_555
C64A C65A 1_555 1_555
C66A C67A 1_555 1_555
C74A C75A 1_555 1_555
C74A C78A 1_555 1_555
C77A C78A 1_555 1_555
C80A C81A 1_555 1_555
C84A C85A 1_555 1_555
C84A C91A 1_555 1_555
C94A C95A 1_555 1_555
C96A C97A 1_555 1_555
C98A C99A 1_555 1_555
C103A C107A 1_555 1_555
C104A C108A 1_555 1_555
C105A C109A 1_555 1_555
C107A C109A 1_555 1_555
C110A C111A 1_555 1_555
C114A C115A 1_555 1_555
C114A C120A 1_555 1_555
C116A C117A 1_555 1_555
Cd5A_2 O14C_2 1_555 1_555
Cd6_2 O14C 1_555 1_555

#END
