
#######################################################################
#
#                 Cambridge Crystallographic Data Centre
#                                CCDC 
#
#######################################################################
#
# If this CIF has been generated from an entry in the Cambridge 
# Structural Database, then it will include bibliographic, chemical, 
# crystal, experimental, refinement or atomic coordinate data resulting 
# from the CCDC's data processing and validation procedures.
#
#######################################################################

data_KUTNEU
_symmetry_cell_setting           orthorhombic
_symmetry_space_group_name_H-M   'I m m a'
_symmetry_Int_Tables_number      74
_space_group_name_Hall           '-I 2b 2'
loop_
_symmetry_equiv_pos_site_id
_symmetry_equiv_pos_as_xyz
1 x,y,z
2 -x,1/2-y,z
3 x,-y,-z
4 -x,1/2+y,-z
5 1/2+x,1/2+y,1/2+z
6 1/2-x,-y,1/2+z
7 1/2+x,1/2-y,1/2-z
8 1/2-x,y,1/2-z
9 -x,-y,-z
10 x,1/2+y,-z
11 -x,y,z
12 x,1/2-y,z
13 1/2-x,1/2-y,1/2-z
14 1/2+x,y,1/2-z
15 1/2-x,1/2+y,1/2+z
16 1/2+x,-y,1/2+z
_cell_length_a                   24.196(3)
_cell_length_b                   34.187(4)
_cell_length_c                   17.8563(18)
_cell_angle_alpha                90
_cell_angle_beta                 90
_cell_angle_gamma                90
_cell_volume                     14770.5
loop_
_atom_site_label
_atom_site_type_symbol
_atom_site_fract_x
_atom_site_fract_y
_atom_site_fract_z
Cu1 Cu 0.32313(2) 0.04004(2) 0.48723(3)
O1 O 0.25796(12) 0.03949(11) 0.55334(17)
O2 O 0.12660(12) 0.04028(10) 0.92037(17)
O3 O 0.11107(11) -0.02471(10) 0.92761(16)
C1 C 0.05005(17) 0.01324(14) 0.8556(2)
O4 O 0.27234(13) -0.02144(12) 0.59620(17)
C2 C 0.19840(19) 0.01412(15) 0.6453(2)
N1 N 0.32897(15) 0.09822(12) 0.4606(2)
C3 C 0.10121(17) 0.01014(14) 0.9036(2)
C4 C 0.24736(18) 0.01115(16) 0.5942(2)
C5 C 0.0000 0.0230(3) 0.7411(4)
H1 H 0.0000 0.0270 0.6896
C6 C 0.0000 0.0107(2) 0.8919(3)
H2 H 0.0000 0.0071 0.9435
C7 C 0.1607(2) 0.04635(17) 0.6368(3)
H3 H 0.1683 0.0658 0.6020
C8 C 0.1137(2) 0.04873(19) 0.6795(3)
H4 H 0.0888 0.0692 0.6726
C9 C 0.18732(19) -0.01282(18) 0.7005(3)
H5 H 0.2115 -0.0336 0.7083
C10 C 0.1413(2) -0.00949(18) 0.7439(3)
H6 H 0.1354 -0.0277 0.7818
C11 C 0.05136(16) 0.02011(17) 0.7783(2)
C12 C 0.10351(18) 0.01981(16) 0.7337(2)
C13 C 0.3444(4) 0.1786(2) 0.4234(4)
N2 N 0.3080(5) 0.2500 0.5075(6)
N3 N 0.3356(5) 0.2500 0.4456(5)
N4 N 0.3702(7) 0.2293(2) 0.3397(6)
C14 C 0.3481(4) 0.2182(2) 0.4083(5)
C15 C 0.3423(4) 0.1288(3) 0.5106(6)
H7 H 0.3432 0.1224 0.5612
C16 C 0.3539(5) 0.1669(3) 0.4920(6)
H8 H 0.3683 0.1841 0.5275
C17 C 0.3306(6) 0.1113(3) 0.3903(5)
H9 H 0.3255 0.0934 0.3517
C18 C 0.3394(7) 0.1502(2) 0.3715(6)
H10 H 0.3419 0.1569 0.3212
O1J O -0.25796(12) 0.03949(11) 0.55334(17)
O2J O -0.12660(12) 0.04028(10) 0.92037(17)
O3J O -0.11107(11) -0.02471(10) 0.92761(16)
C1J C -0.05005(17) 0.01324(14) 0.8556(2)
O4J O -0.27234(13) -0.02144(12) 0.59620(17)
C2J C -0.19840(19) 0.01412(15) 0.6453(2)
C3J C -0.10121(17) 0.01014(14) 0.9036(2)
C4J C -0.24736(18) 0.01115(16) 0.5942(2)
C7J C -0.1607(2) 0.04635(17) 0.6368(3)
H3J H -0.1683 0.0658 0.6020
C8J C -0.1137(2) 0.04873(19) 0.6795(3)
H4J H -0.0888 0.0692 0.6726
C9J C -0.18732(19) -0.01282(18) 0.7005(3)
H5J H -0.2115 -0.0336 0.7083
C10J C -0.1413(2) -0.00949(18) 0.7439(3)
H6J H -0.1354 -0.0277 0.7818
C11J C -0.05136(16) 0.02011(17) 0.7783(2)
C12J C -0.10351(18) 0.01981(16) 0.7337(2)
N1K N 0.32897(15) 0.40178(12) 0.4606(2)
C13K C 0.3444(4) 0.3214(2) 0.4234(4)
N4K N 0.3702(7) 0.2707(2) 0.3397(6)
C14K C 0.3481(4) 0.2818(2) 0.4083(5)
C15K C 0.3423(4) 0.3712(3) 0.5106(6)
H7K H 0.3432 0.3776 0.5612
C16K C 0.3539(5) 0.3331(3) 0.4920(6)
H8K H 0.3683 0.3159 0.5275
C17K C 0.3306(6) 0.3887(3) 0.3903(5)
H9K H 0.3255 0.4066 0.3517
C18K C 0.3394(7) 0.3498(2) 0.3715(6)
H10K H 0.3419 0.3431 0.3212
Cu1B Cu 0.32313(2) -0.04004(2) 0.51277(3)
Cu1E Cu 0.17687(2) -0.04004(2) 0.98723(3)
Cu1G Cu 0.17687(2) 0.04004(2) 1.01277(3)
Cu1H Cu -0.32313(2) -0.04004(2) 0.51277(3)
Cu1J Cu -0.32313(2) 0.04004(2) 0.48723(3)
Cu1K Cu 0.32313(2) 0.45996(2) 0.48723(3)
Cu1M Cu -0.17687(2) 0.04004(2) 1.01277(3)
Cu1O Cu -0.17687(2) -0.04004(2) 0.98723(3)
O1B O 0.25796(12) -0.03949(11) 0.44666(17)
O2E O 0.37340(12) -0.04028(10) 0.42037(17)
O2G O 0.37340(12) 0.04028(10) 0.57963(17)
O3E O 0.38893(11) 0.02471(10) 0.42761(16)
O3G O 0.38893(11) -0.02471(10) 0.57239(16)
O4B O 0.27234(13) 0.02144(12) 0.40380(17)
N1B N 0.32897(15) -0.09822(12) 0.5394(2)
loop_
_geom_bond_atom_site_label_1
_geom_bond_atom_site_label_2
_geom_bond_site_symmetry_1
_geom_bond_site_symmetry_2
Cu1 O1 1_555 1_555
O1 C4 1_555 1_555
O2 C3 1_555 1_555
O3 C3 1_555 1_555
C1 C3 1_555 1_555
O4 C4 1_555 1_555
C2 C4 1_555 1_555
N1 Cu1 1_555 1_555
C5 H1 1_555 1_555
C6 C1 1_555 1_555
H2 C6 1_555 1_555
C7 C2 1_555 1_555
H3 C7 1_555 1_555
C8 C7 1_555 1_555
H4 C8 1_555 1_555
C9 C2 1_555 1_555
H5 C9 1_555 1_555
C10 C9 1_555 1_555
H6 C10 1_555 1_555
C11 C1 1_555 1_555
C12 C8 1_555 1_555
C13 C14 1_555 1_555
N2 N3 1_555 1_555
N3 C14 1_555 1_555
N4 C14 1_555 1_555
C15 N1 1_555 1_555
H7 C15 1_555 1_555
C16 C13 1_555 1_555
H8 C16 1_555 1_555
C17 N1 1_555 1_555
H9 C17 1_555 1_555
C18 C13 1_555 1_555
H10 C18 1_555 1_555
O1J C4J 1_555 1_555
O2J C3J 1_555 1_555
O3J C3J 1_555 1_555
C1J C6 1_555 1_555
O4J C4J 1_555 1_555
C2J C4J 1_555 1_555
C3J C1J 1_555 1_555
C7J C2J 1_555 1_555
H3J C7J 1_555 1_555
C8J C7J 1_555 1_555
H4J C8J 1_555 1_555
C9J C2J 1_555 1_555
H5J C9J 1_555 1_555
C10J C9J 1_555 1_555
H6J C10J 1_555 1_555
C11J C5 1_555 1_555
C12J C8J 1_555 1_555
N1K C15K 1_555 1_555
C13K C14K 1_555 1_555
N4K N4 1_555 1_555
C14K N3 1_555 1_555
C15K H7K 1_555 1_555
C16K C13K 1_555 1_555
H8K C16K 1_555 1_555
C17K N1K 1_555 1_555
H9K C17K 1_555 1_555
C18K C13K 1_555 1_555
H10K C18K 1_555 1_555
Cu1B O4 1_555 1_555
Cu1E O3 1_555 1_555
Cu1G O2 1_555 1_555
Cu1H O4J 1_555 1_555
Cu1J O1J 1_555 1_555
Cu1K N1K 1_555 1_555
Cu1M O2J 1_555 1_555
Cu1O O3J 1_555 1_555
O1B Cu1B 1_555 1_555
O2E Cu1B 1_555 1_555
O2G Cu1 1_555 1_555
O3E Cu1 1_555 1_555
O3G Cu1B 1_555 1_555
O4B Cu1 1_555 1_555
N1B Cu1B 1_555 1_555
C5 C11 1_555 1_555
C10 C12 1_555 1_555
C11 C12 1_555 1_555
C15 C16 1_555 1_555
C17 C18 1_555 1_555
C1J C11J 1_555 1_555
C10J C12J 1_555 1_555
C11J C12J 1_555 1_555
N4K C14K 1_555 1_555
C15K C16K 1_555 1_555
C17K C18K 1_555 1_555

#END
