
#######################################################################
#
#                 Cambridge Crystallographic Data Centre
#                                CCDC 
#
#######################################################################
#
# If this CIF has been generated from an entry in the Cambridge 
# Structural Database, then it will include bibliographic, chemical, 
# crystal, experimental, refinement or atomic coordinate data resulting 
# from the CCDC's data processing and validation procedures.
#
#######################################################################

data_LABJUV
_symmetry_cell_setting           triclinic
_symmetry_space_group_name_H-M   'P -1'
_symmetry_Int_Tables_number      2
_space_group_name_Hall           '-P 1'
loop_
_symmetry_equiv_pos_site_id
_symmetry_equiv_pos_as_xyz
1 x,y,z
2 -x,-y,-z
_cell_length_a                   10.1652(8)
_cell_length_b                   14.6342(12)
_cell_length_c                   15.2829(12)
_cell_angle_alpha                117.5380(10)
_cell_angle_beta                 96.1410(10)
_cell_angle_gamma                104.3380(10)
_cell_volume                     1887.09
loop_
_atom_site_label
_atom_site_type_symbol
_atom_site_fract_x
_atom_site_fract_y
_atom_site_fract_z
Cu1 Cu 1.06010(11) 0.42453(9) 0.46631(8)
Cu2 Cu 1.05841(12) 0.38349(9) 0.25476(8)
Cu3 Cu 1.26431(13) 0.27354(11) 0.21815(10)
Cu4 Cu 1.32794(11) 0.48919(9) 0.24570(9)
Cu5 Cu 1.15207(12) 0.31448(8) 0.08543(7)
I1 I 1.29036(5) 0.46144(4) 0.40899(4)
I2 I 0.84529(5) 0.41237(4) 0.33542(4)
I3 I 0.99483(6) 0.16719(4) 0.12842(4)
I4 I 1.10266(6) 0.50209(4) 0.15727(4)
I5 I 1.43175(6) 0.33781(5) 0.12593(5)
N1 N 0.9577(6) 0.2905(5) 0.4735(5)
N2 N 0.3434(8) 0.1892(6) 0.2730(6)
N3 N 1.8967(7) 0.7663(5) 0.0683(4)
N4 N 1.5009(7) 0.6272(5) 0.3118(5)
C1 C 0.8711(8) 0.1996(6) 0.3894(6)
H1 H 0.8876 0.1863 0.3266
C2 C 0.7602(8) 0.1254(6) 0.3902(6)
H2 H 0.7026 0.0641 0.3293
C3 C 0.7339(7) 0.1429(6) 0.4843(6)
C4 C 0.8253(8) 0.2340(6) 0.5703(6)
H3 H 0.8128 0.2481 0.6342
C5 C 0.9356(8) 0.3052(7) 0.5635(6)
H4 H 0.9969 0.3656 0.6234
C6 C 0.6105(8) 0.0711(6) 0.4911(6)
C7 C 0.6343(8) 0.0334(6) 0.5576(6)
H5 H 0.7246 0.0577 0.5979
C8 C 0.4750(7) 0.0403(6) 0.4350(6)
C9 C 0.4360(7) 0.0896(6) 0.3730(6)
C10 C 0.4951(8) 0.2000(7) 0.4099(6)
H6 H 0.5675 0.2431 0.4695
C11 C 0.4470(9) 0.2474(7) 0.3585(7)
H7 H 0.4883 0.3221 0.3845
C12 C 0.2910(9) 0.0826(7) 0.2351(7)
H8 H 0.2219 0.0407 0.1736
C13 C 0.3335(8) 0.0308(7) 0.2819(6)
H9 H 0.2930 -0.0446 0.2520
C14 C 1.9110(9) 0.8710(7) 0.1204(6)
H10 H 1.9091 0.9073 0.0841
C15 C 1.9285(9) 0.9302(6) 0.2234(5)
H11 H 1.9376 1.0040 0.2553
C16 C 1.9323(7) 0.8784(6) 0.2792(5)
C17 C 1.9156(8) 0.7683(6) 0.2268(5)
H12 H 1.9152 0.7298 0.2611
C18 C 1.8996(9) 0.7166(7) 0.1224(6)
H13 H 1.8904 0.6428 0.0879
C19 C 1.9596(7) 0.9415(6) 0.3939(5)
C20 C 2.0709(7) 1.0385(6) 0.4466(5)
H14 H 2.1179 1.0655 0.4099
C21 C 1.8845(7) 0.9028(6) 0.4479(5)
C22 C 1.7525(7) 0.8040(6) 0.3970(5)
C23 C 1.7331(8) 0.7242(6) 0.4237(6)
H15 H 1.8035 0.7285 0.4712
C24 C 1.6079(8) 0.6381(6) 0.3790(6)
H16 H 1.5972 0.5843 0.3967
C25 C 1.5208(8) 0.7050(7) 0.2895(6)
H17 H 1.4471 0.7007 0.2444
C26 C 1.6419(8) 0.7920(6) 0.3275(6)
H18 H 1.6499 0.8430 0.3065
Cu1A Cu 0.93990(11) 0.57547(9) 0.53369(8)
Cu1A_2 Cu -0.06010(11) -0.42453(9) 0.53369(8)
Cu2A Cu 0.94159(12) 0.61651(9) 0.74524(8)
Cu3_2 Cu 0.26431(13) 0.27354(11) 0.21815(10)
Cu3A Cu 0.73569(13) -0.27354(11) 0.78185(10)
Cu3A_2 Cu 0.73569(13) 0.72646(11) 0.78185(10)
Cu4A Cu 0.67206(11) 0.51081(9) 0.75430(9)
Cu4A_2 Cu 2.67206(11) 1.51081(9) 0.75430(9)
Cu4_2 Cu 0.32794(11) 0.48919(9) 0.24570(9)
Cu5A Cu 0.84793(12) 0.68552(8) 0.91457(7)
Cu5A_2 Cu 1.84793(12) 0.68552(8) -0.08543(7)
Cu5_2 Cu 2.15207(12) 1.31448(8) 1.08543(7)
Cu5_3 Cu 0.15207(12) 0.31448(8) 0.08543(7)
I1A I 0.70964(5) 0.53856(4) 0.59101(4)
I1_2 I 0.29036(5) 0.46144(4) 0.40899(4)
I2A I 1.15471(5) 0.58763(4) 0.66458(4)
I3A I 1.00517(6) 0.83281(4) 0.87158(4)
I3_2 I -0.00517(6) 0.16719(4) 0.12842(4)
I4A I 0.89734(6) 0.49791(4) 0.84273(4)
I5_2 I 0.43175(6) 0.33781(5) 0.12593(5)
I5A I 0.56825(6) 0.66219(5) 0.87407(5)
N1A N 0.0423(6) -0.2905(5) 0.5265(5)
N1A_2 N 1.0423(6) 0.7095(5) 0.5265(5)
N2A N 0.6566(8) -0.1892(6) 0.7270(6)
N2_2 N 1.3434(8) 0.1892(6) 0.2730(6)
N3A N 2.1033(7) 1.2337(5) 0.9317(4)
N3A_2 N 1.1033(7) 0.2337(5) -0.0683(4)
N3_2 N 0.8967(7) 0.7663(5) 1.0683(4)
N4A N 2.4991(7) 1.3728(5) 0.6882(5)
N4A_2 N 0.4991(7) 0.3728(5) 0.6882(5)
C1A C 0.1289(8) -0.1996(6) 0.6106(6)
H1A H 0.1124 -0.1863 0.6734
C2A C 0.2398(8) -0.1254(6) 0.6098(6)
H2A H 0.2974 -0.0641 0.6707
C3A C 0.2661(7) -0.1429(6) 0.5157(6)
C4A C 0.1747(8) -0.2340(6) 0.4297(6)
H3A H 0.1872 -0.2481 0.3658
C5A C 0.0644(8) -0.3052(7) 0.4365(6)
H4A H 0.0031 -0.3656 0.3766
C6A C 0.3895(8) -0.0711(6) 0.5089(6)
C7A C 0.3657(8) -0.0334(6) 0.4424(6)
H5A H 0.2754 -0.0577 0.4021
C8A C 0.5250(7) -0.0403(6) 0.5650(6)
C9A C 0.5640(7) -0.0896(6) 0.6270(6)
C10A C 0.5049(8) -0.2000(7) 0.5901(6)
H6A H 0.4325 -0.2431 0.5305
C11A C 0.5530(9) -0.2474(7) 0.6415(7)
H7A H 0.5117 -0.3221 0.6155
C12A C 0.7090(9) -0.0826(7) 0.7649(7)
H8A H 0.7781 -0.0407 0.8264
C13A C 0.6665(8) -0.0308(7) 0.7181(6)
H9A H 0.7070 0.0446 0.7480
C14A C 2.0890(9) 1.1290(7) 0.8796(6)
H10A H 2.0909 1.0927 0.9159
C15A C 2.0715(9) 1.0698(6) 0.7766(5)
H11A H 2.0624 0.9960 0.7447
C16A C 2.0677(7) 1.1216(6) 0.7208(5)
C17A C 2.0844(8) 1.2317(6) 0.7732(5)
H12A H 2.0848 1.2702 0.7389
C18A C 2.1004(9) 1.2834(7) 0.8776(6)
H13A H 2.1096 1.3572 0.9121
C19A C 2.0404(7) 1.0585(6) 0.6061(5)
C20A C 1.9291(7) 0.9615(6) 0.5534(5)
H14A H 1.8821 0.9345 0.5901
C21A C 2.1155(7) 1.0972(6) 0.5521(5)
C22A C 2.2475(7) 1.1960(6) 0.6030(5)
C23A C 2.2669(8) 1.2758(6) 0.5763(6)
H15A H 2.1965 1.2715 0.5288
C24A C 2.3921(8) 1.3619(6) 0.6210(6)
H16A H 2.4028 1.4157 0.6033
C25A C 2.4792(8) 1.2950(7) 0.7105(6)
H17A H 2.5529 1.2993 0.7556
C26A C 2.3581(8) 1.2080(6) 0.6725(6)
H18A H 2.3501 1.1570 0.6935
O1 O 1.481(2) 0.0967(16) 0.0360(17)
O2? O 1.621(3) 0.050(3) 0.045(3)
loop_
_geom_bond_atom_site_label_1
_geom_bond_atom_site_label_2
_geom_bond_site_symmetry_1
_geom_bond_site_symmetry_2
Cu1 I1 1_555 1_555
Cu2 I1 1_555 1_555
Cu3 I1 1_555 1_555
Cu4 I1 1_555 1_555
Cu5 I3 1_555 1_555
I2 Cu1 1_555 1_555
I3 Cu2 1_555 1_555
I4 Cu2 1_555 1_555
I5 Cu3 1_555 1_555
N1 Cu1 1_555 1_555
N2 C11 1_555 1_555
N3 C14 1_555 1_555
N4 Cu4 1_555 1_555
C1 N1 1_555 1_555
H1 C1 1_555 1_555
C2 C1 1_555 1_555
H2 C2 1_555 1_555
C3 C2 1_555 1_555
C4 C3 1_555 1_555
H3 C4 1_555 1_555
C5 N1 1_555 1_555
H4 C5 1_555 1_555
C6 C3 1_555 1_555
C7 C6 1_555 1_555
H5 C7 1_555 1_555
C8 C6 1_555 1_555
C9 C8 1_555 1_555
C10 C9 1_555 1_555
H6 C10 1_555 1_555
C11 C10 1_555 1_555
H7 C11 1_555 1_555
C12 N2 1_555 1_555
H8 C12 1_555 1_555
C13 C9 1_555 1_555
H9 C13 1_555 1_555
C14 H10 1_555 1_555
C15 C14 1_555 1_555
H11 C15 1_555 1_555
C16 C15 1_555 1_555
C17 C16 1_555 1_555
H12 C17 1_555 1_555
C18 N3 1_555 1_555
H13 C18 1_555 1_555
C19 C16 1_555 1_555
C20 C19 1_555 1_555
H14 C20 1_555 1_555
C21 C19 1_555 1_555
C22 C21 1_555 1_555
C23 C22 1_555 1_555
H15 C23 1_555 1_555
C24 N4 1_555 1_555
H16 C24 1_555 1_555
C25 N4 1_555 1_555
H17 C25 1_555 1_555
C26 C22 1_555 1_555
H18 C26 1_555 1_555
Cu1A I2 1_555 1_555
Cu1A_2 N1A 1_555 1_555
Cu2A I1A 1_555 1_555
Cu3_2 N2 1_555 1_555
Cu3A N2A 1_555 1_555
Cu3A_2 I1A 1_555 1_555
Cu4A I1A 1_555 1_555
Cu4A_2 N4A 1_555 1_555
Cu4_2 I1_2 1_555 1_555
Cu5A I3A 1_555 1_555
Cu5A_2 N3 1_555 1_555
Cu5_2 N3A 1_555 1_555
Cu5_3 I3_2 1_555 1_555
I1A Cu1A 1_555 1_555
I1_2 Cu3_2 1_555 1_555
I2A Cu1 1_555 1_555
I3A Cu2A 1_555 1_555
I3_2 Cu3_2 1_555 1_555
I4A Cu2A 1_555 1_555
I5_2 Cu3_2 1_555 1_555
I5A Cu3A_2 1_555 1_555
N1A C1A 1_555 1_555
N1A_2 Cu1A 1_555 1_555
N2A C11A 1_555 1_555
N2_2 Cu3 1_555 1_555
N3A C14A 1_555 1_555
N3A_2 Cu5 1_555 1_555
N3_2 Cu5A 1_555 1_555
N4A C24A 1_555 1_555
N4A_2 Cu4A 1_555 1_555
C1A H1A 1_555 1_555
C2A C1A 1_555 1_555
H2A C2A 1_555 1_555
C3A C2A 1_555 1_555
C4A C3A 1_555 1_555
H3A C4A 1_555 1_555
C5A N1A 1_555 1_555
H4A C5A 1_555 1_555
C6A C3A 1_555 1_555
C7A C8 1_555 1_555
H5A C7A 1_555 1_555
C8A C7 1_555 1_555
C9A C8A 1_555 1_555
C10A C9A 1_555 1_555
H6A C10A 1_555 1_555
C11A C10A 1_555 1_555
H7A C11A 1_555 1_555
C12A N2A 1_555 1_555
H8A C12A 1_555 1_555
C13A C9A 1_555 1_555
H9A C13A 1_555 1_555
C14A H10A 1_555 1_555
C15A C14A 1_555 1_555
H11A C15A 1_555 1_555
C16A C15A 1_555 1_555
C17A C16A 1_555 1_555
H12A C17A 1_555 1_555
C18A N3A 1_555 1_555
H13A C18A 1_555 1_555
C19A C16A 1_555 1_555
C20A C21 1_555 1_555
H14A C20A 1_555 1_555
C21A C20 1_555 1_555
C22A C21A 1_555 1_555
C23A C22A 1_555 1_555
H15A C23A 1_555 1_555
C24A C23A 1_555 1_555
H16A C24A 1_555 1_555
C25A N4A 1_555 1_555
H17A C25A 1_555 1_555
C26A C22A 1_555 1_555
H18A C26A 1_555 1_555
Cu2 I2 1_555 1_555
Cu3 I3 1_555 1_555
Cu4 I4 1_555 1_555
Cu4 I5 1_555 1_555
Cu5 I4 1_555 1_555
Cu5 I5 1_555 1_555
C4 C5 1_555 1_555
C12 C13 1_555 1_555
C17 C18 1_555 1_555
C23 C24 1_555 1_555
C25 C26 1_555 1_555
Cu1A I2A 1_555 1_555
Cu2A I2A 1_555 1_555
Cu3A_2 I3A 1_555 1_555
Cu4A I4A 1_555 1_555
Cu4A I5A 1_555 1_555
Cu4_2 I5_2 1_555 1_555
Cu5A I4A 1_555 1_555
Cu5A I5A 1_555 1_555
Cu5_3 I5_2 1_555 1_555
C4A C5A 1_555 1_555
C6A C7A 1_555 1_555
C6A C8A 1_555 1_555
C12A C13A 1_555 1_555
C17A C18A 1_555 1_555
C19A C20A 1_555 1_555
C19A C21A 1_555 1_555
C25A C26A 1_555 1_555

#END
