
#######################################################################
#
#                 Cambridge Crystallographic Data Centre
#                                CCDC 
#
#######################################################################
#
# If this CIF has been generated from an entry in the Cambridge 
# Structural Database, then it will include bibliographic, chemical, 
# crystal, experimental, refinement or atomic coordinate data resulting 
# from the CCDC's data processing and validation procedures.
#
#######################################################################

data_LAGWUN
_symmetry_cell_setting           orthorhombic
_symmetry_space_group_name_H-M   'P 21 21 21'
_symmetry_Int_Tables_number      19
_space_group_name_Hall           'P 2ac 2ab'
loop_
_symmetry_equiv_pos_site_id
_symmetry_equiv_pos_as_xyz
1 x,y,z
2 1/2-x,-y,1/2+z
3 -x,1/2+y,1/2-z
4 1/2+x,1/2-y,-z
_cell_length_a                   10.830(4)
_cell_length_b                   17.049(6)
_cell_length_c                   17.293(7)
_cell_angle_alpha                90
_cell_angle_beta                 90
_cell_angle_gamma                90
_cell_volume                     3192.99
loop_
_atom_site_label
_atom_site_type_symbol
_atom_site_fract_x
_atom_site_fract_y
_atom_site_fract_z
Zn1 Zn 0.32429(9) 1.21729(5) -0.49535(7)
Zn2 Zn 0.28635(9) 1.39849(6) -0.51127(7)
Zn3 Zn 0.55691(10) 1.35187(7) -0.43190(8)
Zn4 Zn 0.16919(11) 1.09753(8) -0.39254(8)
O1 O 0.2170(6) 1.2940(4) -0.5800(4)
O2 O 0.4303(5) 1.3222(3) -0.5041(4)
O3 O 0.2302(7) 1.2857(5) -0.4199(5)
O4 O 0.1658(7) 1.5238(4) -0.0925(4)
O5 O 0.1859(7) 1.5360(4) -0.9211(5)
O6 O -0.0592(6) 1.3247(4) -0.4235(4)
C1 C 0.1492(11) 1.2679(7) -0.3707(7)
O7 O 0.1996(5) 1.1243(3) -0.5009(4)
O8 O -0.1621(9) 1.4224(6) -0.3730(6)
O9 O -0.0710(6) 1.3386(4) -0.5939(5)
C2 C 0.0166(8) 1.3813(6) -0.3104(7)
C3 C -0.0877(9) 1.3748(6) -0.6558(6)
O10 O 0.0943(7) 1.2214(4) -0.6516(4)
C4 C 0.1310(8) 1.3486(5) -0.7001(6)
C5 C 0.2323(10) 1.3662(6) -0.7453(7)
H1 H 0.3070 1.3408 -0.7362
C6 C 0.1468(8) 1.2847(6) -0.6406(5)
O11 O 0.0987(6) 1.2029(4) -0.3593(5)
C7 C 0.0207(9) 1.3890(7) -0.7065(7)
C8 C -0.0809(10) 1.3689(7) -0.3704(8)
O12 O 0.1093(6) 1.4329(3) -0.5083(4)
O13 O -0.0069(7) 1.5564(4) -0.8746(5)
C9 C 0.2187(10) 1.3467(7) -0.2591(7)
H2 H 0.2954 1.3229 -0.2648
O14 O -0.1916(6) 1.4014(5) -0.6733(4)
C10 C 0.1242(10) 1.3294(6) -0.3091(6)
C11 C 0.0939(9) 1.4473(6) -0.1973(7)
C12 C 0.1987(10) 1.4002(7) -0.2000(8)
H3 H 0.2572 1.4048 -0.1609
C13 C 0.1101(10) 1.4606(6) -0.8121(7)
C14 C 0.2240(9) 1.4200(6) -0.8029(7)
H4 H 0.2907 1.4301 -0.8353
C15 C 0.0753(11) 1.5084(7) -0.1391(7)
C16 C 0.0126(9) 1.4453(6) -0.7675(7)
H5 H -0.0614 1.4714 -0.7763
O15 O -0.0229(9) 1.5456(5) -0.1379(5)
C17 C 0.0040(10) 1.4352(7) -0.2537(7)
H6 H -0.0674 1.4654 -0.2522
C18 C 0.1004(10) 1.5227(6) -0.8773(6)
O16 O 0.2305(17) 0.9761(10) -0.4164(12)
Zn1C Zn -0.17571(9) 1.28271(5) -0.50465(7)
Zn2A Zn 0.21365(9) 1.60151(6) -0.01127(7)
Zn2A_2 Zn 0.21365(9) 1.60151(6) -1.01127(7)
Zn3C Zn 0.05691(10) 1.14813(7) -0.56810(8)
Zn3A Zn -0.05691(10) 1.64813(7) -0.93190(8)
Zn4C Zn -0.33081(11) 1.40247(8) -0.60746(8)
Zn4B Zn -0.16919(11) 1.59753(8) -0.10746(8)
O4A O 0.3342(7) 1.4762(4) -0.5925(4)
O5A O 0.3141(7) 1.4640(4) -0.4211(5)
O6C O 0.4408(6) 1.1753(4) -0.5765(4)
O7C O 0.6996(5) 1.3757(3) -0.4991(4)
O9C O 0.4290(6) 1.1614(4) -0.4061(5)
O10C O 0.5943(7) 1.2786(4) -0.3484(4)
O13A O 0.5069(7) 1.4436(4) -0.3746(5)
O14C O 0.3084(6) 1.0986(5) -0.3267(4)
O15B O 0.0229(9) 1.0456(5) -0.3621(5)
loop_
_geom_bond_atom_site_label_1
_geom_bond_atom_site_label_2
_geom_bond_site_symmetry_1
_geom_bond_site_symmetry_2
Zn1 O1 1_555 1_555
Zn2 O1 1_555 1_555
Zn3 O2 1_555 1_555
Zn4 O7 1_555 1_555
O1 C6 1_555 1_555
O2 Zn1 1_555 1_555
O3 Zn1 1_555 1_555
O4 C15 1_555 1_555
O5 C18 1_555 1_555
O6 C8 1_555 1_555
C1 O3 1_555 1_555
O7 Zn1 1_555 1_555
O8 C8 1_555 1_555
O9 C3 1_555 1_555
C2 C8 1_555 1_555
C3 C7 1_555 1_555
O10 C6 1_555 1_555
C4 C5 1_555 1_555
C5 H1 1_555 1_555
C6 C4 1_555 1_555
O11 Zn4 1_555 1_555
C7 C4 1_555 1_555
O12 Zn2 1_555 1_555
O13 C18 1_555 1_555
C9 H2 1_555 1_555
O14 C3 1_555 1_555
C10 C1 1_555 1_555
C11 C12 1_555 1_555
C12 C9 1_555 1_555
H3 C12 1_555 1_555
C13 C14 1_555 1_555
C14 C5 1_555 1_555
H4 C14 1_555 1_555
C15 C11 1_555 1_555
C16 C7 1_555 1_555
H5 C16 1_555 1_555
O15 C15 1_555 1_555
C17 C2 1_555 1_555
H6 C17 1_555 1_555
C18 C13 1_555 1_555
O16 Zn4 1_555 1_555
Zn1C O6 1_555 1_555
Zn2A O4 1_555 1_555
Zn2A_2 O5 1_555 1_555
Zn3C O7 1_555 1_555
Zn3A O13 1_555 1_555
Zn4C O14 1_555 1_555
Zn4B O15 1_555 1_555
O4A Zn2 1_555 1_555
O5A Zn2 1_555 1_555
O6C Zn1 1_555 1_555
O7C Zn3 1_555 1_555
O9C Zn1 1_555 1_555
O10C Zn3 1_555 1_555
O13A Zn3 1_555 1_555
O14C Zn4 1_555 1_555
O15B Zn4 1_555 1_555
Zn2 O2 1_555 1_555
C1 O11 1_555 1_555
O9 Zn1C 1_555 1_555
C2 C10 1_555 1_555
O10 Zn3C 1_555 1_555
C9 C10 1_555 1_555
C11 C17 1_555 1_555
C13 C16 1_555 1_555

#END
