
#######################################################################
#
#                 Cambridge Crystallographic Data Centre
#                                CCDC 
#
#######################################################################
#
# If this CIF has been generated from an entry in the Cambridge 
# Structural Database, then it will include bibliographic, chemical, 
# crystal, experimental, refinement or atomic coordinate data resulting 
# from the CCDC's data processing and validation procedures.
#
#######################################################################

data_LALFUB
_symmetry_cell_setting           triclinic
_symmetry_space_group_name_H-M   'P -1'
_symmetry_Int_Tables_number      2
_space_group_name_Hall           '-P 1'
loop_
_symmetry_equiv_pos_site_id
_symmetry_equiv_pos_as_xyz
1 x,y,z
2 -x,-y,-z
_cell_length_a                   6.0915(12)
_cell_length_b                   9.961(2)
_cell_length_c                   13.361(3)
_cell_angle_alpha                68.87(3)
_cell_angle_beta                 81.01(3)
_cell_angle_gamma                76.72(3)
_cell_volume                     733.568
loop_
_atom_site_label
_atom_site_type_symbol
_atom_site_fract_x
_atom_site_fract_y
_atom_site_fract_z
C1 C 0.7893(16) 0.7672(12) 0.1418(8)
C2 C 0.6331(15) 0.8955(11) 0.0686(8)
C3 C 0.3088(17) 0.9711(11) -0.0149(8)
H1 H 0.1723 0.9548 -0.0268
C4 C 0.4498(18) 0.3827(12) 0.4396(9)
C5 C 0.2114(18) 0.4448(12) 0.4726(8)
C6 C -0.115(2) 0.6014(12) 0.4217(9)
H2 H -0.2019 0.6735 0.3692
Eu1 Eu 0.33172(9) 0.61438(6) 0.19609(4)
N1 N 0.4391(14) 0.8648(9) 0.0532(7)
N2 N 0.0938(15) 0.5467(9) 0.3935(7)
O1 O 0.7148(12) 0.6484(8) 0.1849(6)
O2 O 0.9795(12) 0.7844(8) 0.1523(6)
O3 O 0.5136(13) 0.4310(9) 0.3427(6)
O4 O 0.5679(14) 0.2901(10) 0.5102(6)
O9 O 0.7245(12) 0.3627(8) -0.0135(6)
O10 O 0.5849(13) 0.4307(8) 0.1293(6)
C7 C 0.5911(18) 0.4395(11) 0.0335(8)
O11 O 0.3322(13) 0.7860(8) 0.2849(6)
H11 H 0.2287 0.8609 0.2698
H12 H 0.3886 0.7732 0.3421
O12 O 0.0929(13) 0.4341(8) 0.2209(6)
H13 H -0.0102 0.5011 0.2312
H14 H 0.0820 0.4209 0.1632
C1A C 0.2107(16) 1.2328(12) -0.1418(8)
C2A C 0.3669(15) 1.1045(11) -0.0686(8)
C3A C 0.6912(17) 1.0289(11) 0.0149(8)
H1A H 0.8277 1.0452 0.0268
C4A C -0.4498(18) 0.6173(12) 0.5604(9)
C5A C -0.2114(18) 0.5552(12) 0.5274(8)
C6A C 0.115(2) 0.3986(12) 0.5783(9)
H2A H 0.2019 0.3265 0.6308
Eu1A Eu -0.33172(9) 0.38562(6) 0.80391(4)
Eu1_2 Eu 1.33172(9) 0.61438(6) 0.19609(4)
Eu1A_2 Eu -0.33172(9) 1.38562(6) -0.19609(4)
Eu1A_3 Eu 0.66828(9) 0.38562(6) -0.19609(4)
Eu1A_4 Eu 0.66828(9) 1.38562(6) -0.19609(4)
N1A N 0.5609(14) 1.1352(9) -0.0532(7)
N1A_2 N -0.4391(14) 0.1352(9) 0.9468(7)
N2A N -0.0938(15) 0.4533(9) 0.6065(7)
O1A O 0.2852(12) 1.3516(8) -0.1849(6)
O1A_2 O -0.7148(12) 0.3516(8) 0.8151(6)
O2A O 0.0205(12) 1.2156(8) -0.1523(6)
O2_2 O -0.0205(12) 0.7844(8) 0.1523(6)
O2A_2 O 0.0205(12) 0.2156(8) 0.8477(6)
O3A O -0.5136(13) 0.5690(9) 0.6573(6)
O4A O -0.5679(14) 0.7099(10) 0.4898(6)
O9A O 0.2755(12) 0.6373(8) 0.0135(6)
O9_2 O -0.2755(12) 0.3627(8) 0.9865(6)
O10A O 0.4151(13) 0.5693(8) -0.1293(6)
O10A_2 O -0.5849(13) 0.5693(8) 0.8707(6)
C7A C 0.4089(18) 0.5605(11) -0.0335(8)
O11A O -0.3322(13) 0.2140(8) 0.7151(6)
H11A H -0.2287 0.1391 0.7302
H12A H -0.3886 0.2268 0.6579
O12A O -0.0929(13) 0.5659(8) 0.7791(6)
H13A H 0.0102 0.4989 0.7688
H14A H -0.0820 0.5791 0.8368
O5 O 0.532(3) 0.130(2) 0.2566(18)
H3 H 0.7009 0.1330 0.2270
H4 H 0.4944 0.0580 0.2431
O6 O 1.015(3) 0.2024(18) 0.4115(12)
H5 H 0.9488 0.1242 0.4442
H6 H 1.0142 0.2292 0.3440
O7 O 1.024(3) 0.0424(14) 0.2628(15)
H7 H 0.9432 -0.0053 0.3170
H8 H 1.0128 0.0145 0.2020
O8 O 0.1375(19) 0.2760(14) 0.0867(10)
H9 H 0.0036 0.3176 0.0686
H10 H 0.1335 0.2108 0.1493
loop_
_geom_bond_atom_site_label_1
_geom_bond_atom_site_label_2
_geom_bond_site_symmetry_1
_geom_bond_site_symmetry_2
C1 C2 1_555 1_555
C2 N1 1_555 1_555
C3 H1 1_555 1_555
C4 C5 1_555 1_555
C5 N2 1_555 1_555
C6 H2 1_555 1_555
Eu1 N1 1_555 1_555
N1 C3 1_555 1_555
N2 C6 1_555 1_555
O1 C1 1_555 1_555
O2 C1 1_555 1_555
O3 C4 1_555 1_555
O4 C4 1_555 1_555
O5 H3 1_555 1_555
H4 O5 1_555 1_555
O6 H5 1_555 1_555
H6 O6 1_555 1_555
O7 H7 1_555 1_555
H8 O7 1_555 1_555
O8 H9 1_555 1_555
H10 O8 1_555 1_555
O9 C7 1_555 1_555
O10 Eu1 1_555 1_555
C7 O10 1_555 1_555
O11 Eu1 1_555 1_555
H11 O11 1_555 1_555
H12 O11 1_555 1_555
O12 Eu1 1_555 1_555
H13 O12 1_555 1_555
H14 O12 1_555 1_555
C1A C2A 1_555 1_555
C2A C3 1_555 1_555
C3A C2 1_555 1_555
H1A C3A 1_555 1_555
C4A C5A 1_555 1_555
C5A C6 1_555 1_555
C6A C5 1_555 1_555
H2A C6A 1_555 1_555
Eu1A N1A_2 1_555 1_555
Eu1_2 O2 1_555 1_555
Eu1A_2 O2A 1_555 1_555
Eu1A_3 O9 1_555 1_555
Eu1A_4 N1A 1_555 1_555
N1A C2A 1_555 1_555
N2A C5A 1_555 1_555
O1A C1A 1_555 1_555
O1A_2 Eu1A 1_555 1_555
O2A C1A 1_555 1_555
O2_2 Eu1 1_555 1_555
O2A_2 Eu1A 1_555 1_555
O3A C4A 1_555 1_555
O4A C4A 1_555 1_555
O9A Eu1 1_555 1_555
O9_2 Eu1A 1_555 1_555
O10A Eu1A_3 1_555 1_555
O10A_2 Eu1A 1_555 1_555
C7A C7 1_555 1_555
O11A Eu1A 1_555 1_555
H11A O11A 1_555 1_555
H12A O11A 1_555 1_555
O12A Eu1A 1_555 1_555
H13A O12A 1_555 1_555
H14A O12A 1_555 1_555
Eu1 N2 1_555 1_555
Eu1 O1 1_555 1_555
Eu1 O3 1_555 1_555
C3A N1A 1_555 1_555
C6A N2A 1_555 1_555
Eu1A N2A 1_555 1_555
Eu1A O3A 1_555 1_555
Eu1A_4 O1A 1_555 1_555
O9A C7A 1_555 1_555
O10A C7A 1_555 1_555

#END
