
#######################################################################
#
#                 Cambridge Crystallographic Data Centre
#                                CCDC 
#
#######################################################################
#
# If this CIF has been generated from an entry in the Cambridge 
# Structural Database, then it will include bibliographic, chemical, 
# crystal, experimental, refinement or atomic coordinate data resulting 
# from the CCDC's data processing and validation procedures.
#
#######################################################################

data_LALFEL
_symmetry_cell_setting           monoclinic
_symmetry_space_group_name_H-M   'P 21/c'
_symmetry_Int_Tables_number      14
_space_group_name_Hall           '-P 2ybc'
loop_
_symmetry_equiv_pos_site_id
_symmetry_equiv_pos_as_xyz
1 x,y,z
2 -x,1/2+y,1/2-z
3 -x,-y,-z
4 x,1/2-y,1/2+z
_cell_length_a                   16.955(3)
_cell_length_b                   9.5430(19)
_cell_length_c                   18.549(4)
_cell_angle_alpha                90
_cell_angle_beta                 90.01(3)
_cell_angle_gamma                90
_cell_volume                     3001.26
loop_
_atom_site_label
_atom_site_type_symbol
_atom_site_fract_x
_atom_site_fract_y
_atom_site_fract_z
Cd1 Cd 0.41415(4) 0.91346(8) -0.36861(4)
Cd2 Cd 0.08065(4) 0.75183(8) -0.43168(5)
O1 O 0.4921(4) 0.7578(8) -0.3069(4)
O2 O 0.3804(4) 0.7662(7) -0.2428(4)
O3 O 0.5551(4) 0.5790(7) -0.2137(4)
O4 O 0.4443(4) 0.5822(8) -0.1482(4)
O5 O 0.4112(4) 1.0666(7) -0.4651(4)
O6 O 0.4901(4) 1.1585(7) -0.5467(4)
O7 O 0.2819(4) 0.9777(7) -0.3431(4)
O8 O 0.1582(4) 0.9227(8) -0.3700(4)
O9 O 0.3337(4) 0.7667(7) -0.4295(4)
O10 O 0.2110(4) 0.7187(9) -0.4579(5)
O11 O 0.0673(4) 0.8803(8) -0.5367(4)
O12 O 0.0130(4) 1.0686(8) -0.5868(4)
O13 O -0.0402(4) 0.6395(8) -0.4508(4)
O14 O -0.0997(4) 0.4652(8) -0.5100(5)
O15 O 0.0779(5) 0.6628(11) -0.3155(5)
C9 C 0.4497(6) 0.7228(11) -0.2547(6)
C10 C 0.4859(6) 0.6193(10) -0.1998(6)
C11 C 0.4720(6) 1.0666(10) -0.5042(5)
C12 C 0.2304(6) 0.9056(11) -0.3748(6)
C13 C 0.2602(6) 0.7861(10) -0.4246(5)
C14 C 0.0228(6) 0.9876(12) -0.5358(6)
C15 C -0.0412(6) 0.5318(13) -0.4882(6)
Cd1A Cd 0.58585(4) 1.41346(8) -0.13139(4)
Cd1A_2 Cd 0.58585(4) 0.41346(8) -0.13139(4)
Cd1B Cd 0.58585(4) 1.08654(8) -0.63139(4)
Cd2A Cd 0.91935(4) 1.25183(8) -0.06832(5)
Cd2B Cd -0.08065(4) 1.24817(8) -0.56832(5)
Cd2B_2 Cd -0.08065(4) 0.24817(8) -0.56832(5)
O1A O 0.5079(4) 1.2578(8) -0.1931(4)
O2A O 0.6196(4) 1.2662(7) -0.2572(4)
O3A O 0.4449(4) 1.0790(7) -0.2863(4)
O3_2 O 0.5551(4) 1.5790(7) -0.2137(4)
O4A O 0.5557(4) 1.0822(8) -0.3518(4)
O5B O 0.5888(4) 0.9334(7) -0.5349(4)
O5A O 0.5888(4) 1.5666(7) -0.0349(4)
O6B O 0.5099(4) 0.8415(7) -0.4533(4)
O6C O 0.4901(4) 1.3415(7) -0.0467(4)
O7A O 0.7181(4) 1.4777(7) -0.1569(4)
O8A O 0.8418(4) 1.4227(8) -0.1300(4)
O9A O 0.6663(4) 1.2667(7) -0.0705(4)
O10A O 0.7890(4) 1.2187(9) -0.0421(5)
O11B O -0.0673(4) 1.1197(8) -0.4633(4)
O11A O 0.9327(4) 1.3803(8) 0.0367(4)
O12B O -0.0130(4) 0.9314(8) -0.4132(4)
O12C O 1.0130(4) 1.4314(8) -0.0868(4)
O13B O 0.0402(4) 0.3605(8) -0.5492(4)
O13A O 1.0402(4) 1.1395(8) -0.0492(4)
O14B O 0.0997(4) 0.5348(8) -0.4900(5)
O14C O 0.9003(4) 1.0348(8) -0.0100(5)
O15A O 0.9221(5) 1.1628(11) -0.1845(5)
C9A C 0.5503(6) 1.2228(11) -0.2453(6)
C10A C 0.5141(6) 1.1193(10) -0.3002(6)
C11B C 0.5280(6) 0.9334(10) -0.4958(5)
C12A C 0.7696(6) 1.4056(11) -0.1252(6)
C13A C 0.7398(6) 1.2861(10) -0.0754(5)
C14B C -0.0228(6) 1.0124(12) -0.4642(6)
C15B C 0.0412(6) 0.4682(13) -0.5118(6)
Co1 Co 0.28391(7) 1.14867(13) -0.11745(7)
N1 N 0.3368(5) 1.3186(9) -0.1551(5)
H1 H 0.3213 1.3942 -0.1297
H2 H 0.3894 1.3099 -0.1506
N2 N 0.2341(5) 1.1408(9) -0.2118(5)
H3 H 0.2653 1.0855 -0.2397
N3 N 0.2233(5) 0.9782(8) -0.0948(5)
H4 H 0.2565 0.9076 -0.0842
H5 H 0.1923 0.9936 -0.0562
N4 N 0.2012(4) 1.2656(8) -0.0714(4)
H6 H 0.1940 1.3445 -0.0972
H7 H 0.1553 1.2183 -0.0704
N5 N 0.3367(5) 1.1610(9) -0.0243(5)
H8 H 0.3694 1.2366 -0.0259
N6 N 0.3727(5) 1.0291(8) -0.1467(5)
H9 H 0.3548 0.9437 -0.1590
H10 H 0.3968 1.0667 -0.1854
C1 C 0.3156(7) 1.3365(13) -0.2320(7)
H11 H 0.3178 1.4350 -0.2447
H12 H 0.3531 1.2865 -0.2620
C2 C 0.2353(8) 1.2819(13) -0.2450(7)
H13 H 0.2246 1.2761 -0.2963
H14 H 0.1962 1.3422 -0.2228
C3 C 0.1577(8) 1.0661(14) -0.2042(6)
H15 H 0.1377 1.0389 -0.2512
H16 H 0.1190 1.1261 -0.1811
C4 C 0.1730(7) 0.9388(12) -0.1589(7)
H17 H 0.1999 0.8683 -0.1874
H18 H 0.1234 0.8997 -0.1424
C5 C 0.2259(7) 1.3020(13) 0.0037(6)
H19 H 0.2543 1.3902 0.0037
H20 H 0.1797 1.3122 0.0342
C6 C 0.2776(7) 1.1881(14) 0.0321(6)
H21 H 0.3030 1.2174 0.0765
H22 H 0.2469 1.1043 0.0417
C7 C 0.3869(6) 1.0345(11) -0.0160(6)
H23 H 0.3547 0.9529 -0.0057
H24 H 0.4243 1.0472 0.0231
C8 C 0.4296(6) 1.0163(11) -0.0867(6)
H25 H 0.4703 1.0871 -0.0914
H26 H 0.4547 0.9249 -0.0882
O16 O 0.2006(4) 0.9369(7) -0.6186(4)
O17 O 0.3294(4) 0.7195(8) -0.0825(4)
O18 O -0.0291(7) 0.5828(14) 0.2468(7)
O19 O 0.2267(5) 0.6481(9) -0.2623(5)
O20 O -0.0621(18) 0.784(3) 0.3565(15)
loop_
_geom_bond_atom_site_label_1
_geom_bond_atom_site_label_2
_geom_bond_site_symmetry_1
_geom_bond_site_symmetry_2
Cd1 O1 1_555 1_555
Cd2 O8 1_555 1_555
Co1 N1 1_555 1_555
O1 C9 1_555 1_555
O2 C9 1_555 1_555
O3 C10 1_555 1_555
O4 C10 1_555 1_555
O5 Cd1 1_555 1_555
O6 C11 1_555 1_555
O7 Cd1 1_555 1_555
O8 C12 1_555 1_555
O9 Cd1 1_555 1_555
O10 Cd2 1_555 1_555
O11 Cd2 1_555 1_555
O12 C14 1_555 1_555
O13 Cd2 1_555 1_555
O14 C15 1_555 1_555
O15 Cd2 1_555 1_555
N1 H1 1_555 1_555
H2 N1 1_555 1_555
N2 Co1 1_555 1_555
H3 N2 1_555 1_555
N3 Co1 1_555 1_555
H4 N3 1_555 1_555
H5 N3 1_555 1_555
N4 Co1 1_555 1_555
H6 N4 1_555 1_555
H7 N4 1_555 1_555
N5 Co1 1_555 1_555
H8 N5 1_555 1_555
N6 Co1 1_555 1_555
H9 N6 1_555 1_555
H10 N6 1_555 1_555
C1 N1 1_555 1_555
H11 C1 1_555 1_555
H12 C1 1_555 1_555
C2 N2 1_555 1_555
H13 C2 1_555 1_555
H14 C2 1_555 1_555
C3 N2 1_555 1_555
H15 C3 1_555 1_555
H16 C3 1_555 1_555
C4 N3 1_555 1_555
H17 C4 1_555 1_555
H18 C4 1_555 1_555
C5 N4 1_555 1_555
H19 C5 1_555 1_555
H20 C5 1_555 1_555
C6 N5 1_555 1_555
H21 C6 1_555 1_555
H22 C6 1_555 1_555
C7 N5 1_555 1_555
H23 C7 1_555 1_555
H24 C7 1_555 1_555
C8 N6 1_555 1_555
H25 C8 1_555 1_555
H26 C8 1_555 1_555
C9 C10 1_555 1_555
C11 O5 1_555 1_555
C12 O7 1_555 1_555
C13 O9 1_555 1_555
C14 O11 1_555 1_555
C15 O13 1_555 1_555
Cd1A O1A 1_555 1_555
Cd1A_2 O3 1_555 1_555
Cd1B O6 1_555 1_555
Cd2A O8A 1_555 1_555
Cd2B O12 1_555 1_555
Cd2B_2 O14 1_555 1_555
O1A C9A 1_555 1_555
O2A C9A 1_555 1_555
O3A Cd1 1_555 1_555
O3_2 Cd1A 1_555 1_555
O4A C10A 1_555 1_555
O5B Cd1B 1_555 1_555
O5A Cd1A 1_555 1_555
O6B Cd1 1_555 1_555
O6C Cd1A 1_555 1_555
O7A Cd1A 1_555 1_555
O8A C12A 1_555 1_555
O9A Cd1A 1_555 1_555
O10A Cd2A 1_555 1_555
O11B Cd2B 1_555 1_555
O11A Cd2A 1_555 1_555
O12B Cd2 1_555 1_555
O12C Cd2A 1_555 1_555
O13B Cd2B_2 1_555 1_555
O13A Cd2A 1_555 1_555
O14B Cd2 1_555 1_555
O14C Cd2A 1_555 1_555
O15A Cd2A 1_555 1_555
C9A C10A 1_555 1_555
C10A O3A 1_555 1_555
C11B C11 1_555 1_555
C12A O7A 1_555 1_555
C13A O9A 1_555 1_555
C14B C14 1_555 1_555
C15B C15 1_555 1_555
O10 C13 1_555 1_555
C1 C2 1_555 1_555
C3 C4 1_555 1_555
C5 C6 1_555 1_555
C7 C8 1_555 1_555
C12 C13 1_555 1_555
O5B C11B 1_555 1_555
O6B C11B 1_555 1_555
O10A C13A 1_555 1_555
O11B C14B 1_555 1_555
O12B C14B 1_555 1_555
O13B C15B 1_555 1_555
O14B C15B 1_555 1_555
C12A C13A 1_555 1_555

#END
