
#######################################################################
#
#                 Cambridge Crystallographic Data Centre
#                                CCDC 
#
#######################################################################
#
# If this CIF has been generated from an entry in the Cambridge 
# Structural Database, then it will include bibliographic, chemical, 
# crystal, experimental, refinement or atomic coordinate data resulting 
# from the CCDC's data processing and validation procedures.
#
#######################################################################

data_LAVTAF
_symmetry_cell_setting           tetragonal
_symmetry_space_group_name_H-M   'P 43 2 2'
_symmetry_Int_Tables_number      95
_space_group_name_Hall           'P 4cw 2c'
loop_
_symmetry_equiv_pos_site_id
_symmetry_equiv_pos_as_xyz
1 x,y,z
2 -x,-y,1/2+z
3 -y,x,3/4+z
4 y,-x,1/4+z
5 -x,y,-z
6 x,-y,1/2-z
7 y,x,1/4-z
8 -y,-x,3/4-z
_cell_length_a                   10.3300(15)
_cell_length_b                   10.3300(15)
_cell_length_c                   14.510(3)
_cell_angle_alpha                90
_cell_angle_beta                 90
_cell_angle_gamma                90
_cell_volume                     1548.35
loop_
_atom_site_label
_atom_site_type_symbol
_atom_site_fract_x
_atom_site_fract_y
_atom_site_fract_z
Tb1 Tb 0.147021(14) 0.147021(14) 0.1250
C1 C 0.0430(4) 0.6038(3) 0.0773(2)
H1 H 0.0719 0.5587 0.1288
C2 C 0.0000 0.5360(5) 0.0000
C3 C 0.0000 0.3906(5) 0.0000
O1 O 0.0924(4) 0.7560(3) 0.23611(18)
C4 C 0.0428(4) 0.7384(3) 0.0777(2)
C5 C 0.0856(4) 0.8138(4) 0.1604(3)
O2 O 0.0695(3) 0.3359(3) 0.0588(2)
O3 O 0.1090(3) 0.9291(3) 0.1521(2)
C6 C 0.0000 0.8055(5) 0.0000
H2 H 0.0000 0.8956 0.0000
O4 O 0.3132(3) 0.3132(3) 0.1250
Tb1_2 Tb 0.147021(14) 1.147021(14) 0.1250
Tb1A Tb -0.147021(14) 0.852979(14) -0.3750
Tb1B Tb -0.147021(14) 0.147021(14) -0.1250
Tb1B_2 Tb -0.147021(14) 1.147021(14) -0.1250
Tb1C Tb 0.147021(14) 0.852979(14) 0.3750
C1D C -0.0430(4) 0.6038(3) -0.0773(2)
H1D H -0.0719 0.5587 -0.1288
O1D O -0.0924(4) 0.7560(3) -0.23611(18)
O1B O 0.2440(3) 0.0924(4) -0.01389(18)
O1E O 0.0924(4) 0.2440(3) 0.26389(18)
C4D C -0.0428(4) 0.7384(3) -0.0777(2)
C5D C -0.0856(4) 0.8138(4) -0.1604(3)
O2D O -0.0695(3) 0.3359(3) -0.0588(2)
O2F O 0.3359(3) 0.0695(3) 0.1912(2)
O3D O -0.1090(3) 0.9291(3) -0.1521(2)
O3_2 O 0.1090(3) -0.0709(3) 0.1521(2)
O3F O -0.0709(3) 0.1090(3) 0.0979(2)
loop_
_geom_bond_atom_site_label_1
_geom_bond_atom_site_label_2
_geom_bond_site_symmetry_1
_geom_bond_site_symmetry_2
Tb1 O2 1_555 1_555
C1 H1 1_555 1_555
C2 C1 1_555 1_555
C3 C2 1_555 1_555
O1 C5 1_555 1_555
C4 C1 1_555 1_555
C5 C4 1_555 1_555
O2 C3 1_555 1_555
O3 C5 1_555 1_555
C6 C4 1_555 1_555
H2 C6 1_555 1_555
O4 Tb1 1_555 1_555
Tb1_2 O3 1_555 1_555
Tb1A O1D 1_555 1_555
Tb1B O2D 1_555 1_555
Tb1B_2 O3D 1_555 1_555
Tb1C O1 1_555 1_555
C1D C2 1_555 1_555
H1D C1D 1_555 1_555
O1D C5D 1_555 1_555
O1B Tb1 1_555 1_555
O1E Tb1 1_555 1_555
C4D C6 1_555 1_555
C5D C4D 1_555 1_555
O2D C3 1_555 1_555
O2F Tb1 1_555 1_555
O3D C5D 1_555 1_555
O3_2 Tb1 1_555 1_555
O3F Tb1 1_555 1_555
C1D C4D 1_555 1_555

#END
