
#######################################################################
#
#                 Cambridge Crystallographic Data Centre
#                                CCDC 
#
#######################################################################
#
# If this CIF has been generated from an entry in the Cambridge 
# Structural Database, then it will include bibliographic, chemical, 
# crystal, experimental, refinement or atomic coordinate data resulting 
# from the CCDC's data processing and validation procedures.
#
#######################################################################

data_LAZJIH
_symmetry_cell_setting           tetragonal
_symmetry_space_group_name_H-M   'I 41/a c d'
_symmetry_Int_Tables_number      142
_space_group_name_Hall           '-I 4bd 2c'
loop_
_symmetry_equiv_pos_site_id
_symmetry_equiv_pos_as_xyz
1 x,y,z
2 1/2-x,-y,1/2+z
3 1/4-y,3/4+x,1/4+z
4 1/4+y,1/4-x,3/4+z
5 1/2-x,y,-z
6 x,-y,1/2-z
7 1/4+y,3/4+x,3/4-z
8 1/4-y,1/4-x,1/4-z
9 1/2+x,1/2+y,1/2+z
10 -x,1/2-y,z
11 3/4-y,1/4+x,3/4+z
12 3/4+y,3/4-x,1/4+z
13 -x,1/2+y,1/2-z
14 1/2+x,1/2-y,-z
15 3/4+y,1/4+x,1/4-z
16 3/4-y,3/4-x,3/4-z
17 -x,-y,-z
18 1/2+x,y,1/2-z
19 3/4+y,1/4-x,3/4-z
20 3/4-y,3/4+x,1/4-z
21 1/2+x,-y,z
22 -x,y,1/2+z
23 3/4-y,1/4-x,1/4+z
24 3/4+y,3/4+x,3/4+z
25 1/2-x,1/2-y,1/2-z
26 x,1/2+y,-z
27 1/4+y,3/4-x,1/4-z
28 1/4-y,1/4+x,3/4-z
29 x,1/2-y,1/2+z
30 1/2-x,1/2+y,z
31 1/4-y,3/4-x,3/4+z
32 1/4+y,1/4+x,1/4+z
_cell_length_a                   16.1936(9)
_cell_length_b                   16.1936(9)
_cell_length_c                   29.884(3)
_cell_angle_alpha                90
_cell_angle_beta                 90
_cell_angle_gamma                90
_cell_volume                     7836.56
loop_
_atom_site_label
_atom_site_type_symbol
_atom_site_fract_x
_atom_site_fract_y
_atom_site_fract_z
C1 C 0.2500 0.3049(3) 0.0000
H1 H 0.2500 0.3623 0.0000
C2 C 0.2579(2) 0.2630(2) 0.04035(11)
C3 C 0.2570(2) 0.1766(2) 0.04037(12)
C4 C 0.2500 0.1375(3) 0.0000
H2 H 0.2500 0.0801 0.0000
C5 C 0.2749(2) 0.3165(2) 0.08104(11)
C6 C 0.25849(19) 0.12604(19) 0.08238(11)
O1 O 0.22018(14) 0.37120(14) 0.08873(8)
O2 O 0.33923(14) 0.30651(15) 0.10205(8)
O3 O 0.27539(14) 0.05000(15) 0.07609(8)
O4 O 0.24344(15) 0.15697(15) 0.11884(8)
Zn1 Zn 0.22251(2) 0.47251(2) 0.1250
C2D C 0.2421(2) 0.2630(2) -0.04035(11)
C3D C 0.2430(2) 0.1766(2) -0.04037(12)
C5D C 0.2251(2) 0.3165(2) -0.08104(11)
C6D C 0.24151(19) 0.12604(19) -0.08238(11)
O1D O 0.27982(14) 0.37120(14) -0.08873(8)
O1N O 0.12120(14) 0.47018(14) 0.16127(8)
O2D O 0.16077(14) 0.30651(15) -0.10205(8)
O3D O 0.22461(14) 0.05000(15) -0.07609(8)
O3Z O 0.30000(15) 0.47461(14) 0.17391(8)
O3CA O 0.22461(14) 0.55000(15) 0.07609(8)
O4D O 0.25656(15) 0.15697(15) -0.11884(8)
Zn1D Zn 0.27749(2) 0.47251(2) -0.1250
Zn1S Zn 0.27749(2) -0.02749(2) 0.1250
Zn1W Zn 0.22251(2) -0.02749(2) -0.1250
C7 C 0.0000 0.2500 0.1250
C8 C 0.0681(2) 0.2335(3) 0.15920(12)
H3 H 0.1229 0.2454 0.1478
H4 H 0.0660 0.1781 0.1715
C9 C 0.0835(3) 0.2933(3) 0.23327(14)
C10 C 0.1415(2) 0.3507(2) 0.24318(12)
H5 H 0.1528 0.3937 0.2235
C11 C 0.1836(2) 0.3437(2) 0.28328(12)
H6 H 0.2228 0.3832 0.2910
C12 C 0.1120(2) 0.2263(2) 0.30215(12)
H7 H 0.1016 0.1847 0.3228
C13 C 0.0686(2) 0.2297(3) 0.26339(12)
H8 H 0.0291 0.1897 0.2570
N1 N 0.16887(19) 0.28242(17) 0.31035(10)
H9 H 0.1974 0.2784 0.3345
O5 O 0.03618(16) 0.29922(16) 0.19157(8)
C8G C 0.0165(3) 0.1819(2) 0.09080(12)
C8I C -0.0681(2) 0.2665(3) 0.15920(12)
C8N C -0.0165(3) 0.3181(2) 0.09080(12)
H3G H 0.0046 0.1271 0.1022
H3I H -0.1229 0.2546 0.1478
H3N H -0.0046 0.3729 0.1022
H4G H 0.0719 0.1840 0.0785
H4I H -0.0660 0.3219 0.1715
H4N H -0.0719 0.3160 0.0785
C9G C -0.0433(3) 0.1665(3) 0.01673(14)
C9I C -0.0835(3) 0.2067(3) 0.23327(14)
C9N C 0.0433(3) 0.3335(3) 0.01673(14)
C10G C -0.1007(2) 0.1085(2) 0.00682(12)
C10I C -0.1415(2) 0.1493(2) 0.24318(12)
C10N C 0.1007(2) 0.3915(2) 0.00682(12)
H5G H -0.1437 0.0972 0.0265
H5I H -0.1528 0.1063 0.2235
H5N H 0.1437 0.4028 0.0265
C11G C -0.0937(2) 0.0664(2) -0.03328(12)
C11I C -0.1836(2) 0.1563(2) 0.28328(12)
C11N C 0.0937(2) 0.4336(2) -0.03328(12)
H6G H -0.1332 0.0272 -0.0410
H6I H -0.2228 0.1168 0.2910
H6N H 0.1332 0.4728 -0.0410
C12G C 0.0237(2) 0.1380(2) -0.05215(12)
C12I C -0.1120(2) 0.2737(2) 0.30215(12)
C12N C -0.0237(2) 0.3620(2) -0.05215(12)
H7G H 0.0653 0.1484 -0.0728
H7I H -0.1016 0.3153 0.3228
H7N H -0.0653 0.3516 -0.0728
C13G C 0.0203(3) 0.1814(2) -0.01339(12)
C13I C -0.0686(2) 0.2703(3) 0.26339(12)
C13N C -0.0203(3) 0.3186(2) -0.01339(12)
H8G H 0.0603 0.2209 -0.0070
H8I H -0.0291 0.3103 0.2570
H8N H -0.0603 0.2791 -0.0070
N1G N -0.03242(17) 0.08113(19) -0.06035(10)
N1I N -0.16887(19) 0.21758(17) 0.31035(10)
N1N N 0.03242(17) 0.41887(19) -0.06035(10)
H9G H -0.0284 0.0526 -0.0845
H9I H -0.1974 0.2216 0.3345
H9N H 0.0284 0.4474 -0.0845
O5G O -0.04922(16) 0.21382(16) 0.05843(8)
O5I O -0.03618(16) 0.20078(16) 0.19157(8)
O5N O 0.04922(16) 0.28618(16) 0.05843(8)
loop_
_geom_bond_atom_site_label_1
_geom_bond_atom_site_label_2
_geom_bond_site_symmetry_1
_geom_bond_site_symmetry_2
C1 H1 1_555 1_555
C2 C1 1_555 1_555
C3 C2 1_555 1_555
C4 C3 1_555 1_555
H2 C4 1_555 1_555
C5 C2 1_555 1_555
C6 C3 1_555 1_555
C7 C8 1_555 1_555
C8 H3 1_555 1_555
H4 C8 1_555 1_555
C9 C10 1_555 1_555
C10 H5 1_555 1_555
C11 C10 1_555 1_555
H6 C11 1_555 1_555
C12 H7 1_555 1_555
C13 C9 1_555 1_555
H8 C13 1_555 1_555
N1 C11 1_555 1_555
H9 N1 1_555 1_555
O1 C5 1_555 1_555
O2 C5 1_555 1_555
O3 C6 1_555 1_555
O4 C6 1_555 1_555
O5 C8 1_555 1_555
Zn1 O1 1_555 1_555
C2D C1 1_555 1_555
C3D C4 1_555 1_555
C5D C2D 1_555 1_555
C6D C3D 1_555 1_555
C8G C7 1_555 1_555
C8I C7 1_555 1_555
C8N C7 1_555 1_555
H3G C8G 1_555 1_555
H3I C8I 1_555 1_555
H3N C8N 1_555 1_555
H4G C8G 1_555 1_555
H4I C8I 1_555 1_555
H4N C8N 1_555 1_555
C9G C10G 1_555 1_555
C9I C10I 1_555 1_555
C9N C10N 1_555 1_555
C10G H5G 1_555 1_555
C10I H5I 1_555 1_555
C10N H5N 1_555 1_555
C11G C10G 1_555 1_555
C11I C10I 1_555 1_555
C11N C10N 1_555 1_555
H6G C11G 1_555 1_555
H6I C11I 1_555 1_555
H6N C11N 1_555 1_555
C12G H7G 1_555 1_555
C12I H7I 1_555 1_555
C12N H7N 1_555 1_555
C13G C9G 1_555 1_555
C13I C9I 1_555 1_555
C13N C9N 1_555 1_555
H8G C13G 1_555 1_555
H8I C13I 1_555 1_555
H8N C13N 1_555 1_555
N1G C11G 1_555 1_555
N1I C11I 1_555 1_555
N1N C11N 1_555 1_555
H9G N1G 1_555 1_555
H9I N1I 1_555 1_555
H9N N1N 1_555 1_555
O1D C5D 1_555 1_555
O1N Zn1 1_555 1_555
O2D C5D 1_555 1_555
O3D C6D 1_555 1_555
O3Z Zn1 1_555 1_555
O3CA Zn1 1_555 1_555
O4D C6D 1_555 1_555
O5G C8G 1_555 1_555
O5I C8I 1_555 1_555
O5N C8N 1_555 1_555
Zn1D O1D 1_555 1_555
Zn1S O3 1_555 1_555
Zn1W O3D 1_555 1_555
C9 O5 1_555 1_555
C12 C13 1_555 1_555
C12 N1 1_555 1_555
C2D C3D 1_555 1_555
C9G O5G 1_555 1_555
C9I O5I 1_555 1_555
C9N O5N 1_555 1_555
C12G C13G 1_555 1_555
C12G N1G 1_555 1_555
C12I C13I 1_555 1_555
C12I N1I 1_555 1_555
C12N C13N 1_555 1_555
C12N N1N 1_555 1_555

#END
