
#######################################################################
#
#                 Cambridge Crystallographic Data Centre
#                                CCDC 
#
#######################################################################
#
# If this CIF has been generated from an entry in the Cambridge 
# Structural Database, then it will include bibliographic, chemical, 
# crystal, experimental, refinement or atomic coordinate data resulting 
# from the CCDC's data processing and validation procedures.
#
#######################################################################

data_LECGAD
_symmetry_cell_setting           triclinic
_symmetry_space_group_name_H-M   'P -1'
_symmetry_Int_Tables_number      2
_space_group_name_Hall           '-P 1'
loop_
_symmetry_equiv_pos_site_id
_symmetry_equiv_pos_as_xyz
1 x,y,z
2 -x,-y,-z
_cell_length_a                   7.8292(11)
_cell_length_b                   9.3621(13)
_cell_length_c                   15.1467(19)
_cell_angle_alpha                94.703(11)
_cell_angle_beta                 102.889(10)
_cell_angle_gamma                101.231(11)
_cell_volume                     1052.35
loop_
_atom_site_label
_atom_site_type_symbol
_atom_site_fract_x
_atom_site_fract_y
_atom_site_fract_z
C1 C 0.6747(5) 0.5709(4) -0.1043(3)
C2 C 0.5213(5) 0.5391(4) -0.1887(3)
C3 C 0.4254(5) 0.6480(4) -0.2116(2)
H1 H 0.4606 0.7419 -0.1759
C4 C 0.2790(5) 0.6182(4) -0.2865(2)
C5 C 0.2217(5) 0.4811(4) -0.3391(2)
H2 H 0.1171 0.4611 -0.3881
C6 C 0.3193(5) 0.3733(4) -0.3192(3)
C7 C 0.4698(5) 0.4028(4) -0.2444(3)
H3 H 0.5374 0.3298 -0.2314
C8 C 0.2652(5) 0.2260(4) -0.3782(3)
C9 C 0.1408(5) 0.7719(4) -0.3982(2)
H4 H 0.1563 0.7208 -0.4516
C10 C 0.1388(5) 0.8371(4) -0.2569(2)
C11 C 0.1534(5) 0.8362(4) -0.1585(3)
C12 C 0.2275(6) 0.9635(4) -0.0961(3)
H5 H 0.2690 1.0543 -0.1164
C13 C 0.2396(6) 0.9550(5) -0.0035(3)
H6 H 0.2879 1.0399 0.0405
C14 C 0.1786(5) 0.8181(4) 0.0230(3)
H7 H 0.1902 0.8111 0.0862
C15 C 0.0922(5) 0.7059(4) -0.1261(3)
H8 H 0.0395 0.6199 -0.1688
Cu1 Cu 0.0000 0.5000 0.0000
Cu2 Cu 0.0000 1.0000 -0.5000
N1 N 0.1854(4) 0.7347(3) -0.3129(2)
N2 N 0.0732(4) 0.8889(3) -0.3958(2)
N3 N 0.0716(4) 0.9323(3) -0.3064(2)
N4 N 0.1045(4) 0.6965(3) -0.0372(2)
O1 O 0.6930(4) 0.6833(3) -0.0497(2)
O2 O 0.7770(3) 0.4781(3) -0.09706(18)
O3 O 0.3804(4) 0.1500(3) -0.3804(2)
O4 O 0.1003(3) 0.1897(3) -0.42316(18)
O5 O -0.2878(9) 1.0158(9) -0.4622(5)
C1A C -0.6747(5) 0.4291(4) 0.1043(3)
C2A C -0.5213(5) 0.4609(4) 0.1887(3)
C3A C -0.4254(5) 0.3520(4) 0.2116(2)
H1A H -0.4606 0.2581 0.1759
C4A C -0.2790(5) 0.3818(4) 0.2865(2)
C5A C -0.2217(5) 0.5189(4) 0.3391(2)
H2A H -0.1171 0.5389 0.3881
C6A C -0.3193(5) 0.6267(4) 0.3192(3)
C7A C -0.4698(5) 0.5972(4) 0.2444(3)
H3A H -0.5374 0.6702 0.2314
C8A C -0.2652(5) 0.7740(4) 0.3782(3)
C9A C -0.1408(5) 0.2281(4) 0.3982(2)
H4A H -0.1563 0.2792 0.4516
C10A C -0.1388(5) 0.1629(4) 0.2569(2)
C11A C -0.1534(5) 0.1638(4) 0.1585(3)
C12A C -0.2275(6) 0.0365(4) 0.0961(3)
H5A H -0.2690 -0.0543 0.1164
C13A C -0.2396(6) 0.0450(5) 0.0035(3)
H6A H -0.2879 -0.0399 -0.0405
C14A C -0.1786(5) 0.1819(4) -0.0230(3)
H7A H -0.1902 0.1889 -0.0862
C15A C -0.0922(5) 0.2941(4) 0.1261(3)
H8A H -0.0395 0.3801 0.1688
Cu1_2 Cu 1.0000 0.5000 0.0000
Cu1_3 Cu -1.0000 0.5000 0.0000
Cu2_2 Cu 0.0000 0.0000 -0.5000
Cu2_3 Cu 0.0000 0.0000 0.5000
Cu2_4 Cu 0.0000 1.0000 0.5000
N1A N -0.1854(4) 0.2653(3) 0.3129(2)
N2A N -0.0732(4) 0.1111(3) 0.3958(2)
N2A_2 N -0.0732(4) 1.1111(3) -0.6042(2)
N3A N -0.0716(4) 0.0677(3) 0.3064(2)
N4A N -0.1045(4) 0.3035(3) 0.0372(2)
O1A O -0.6930(4) 0.3167(3) 0.0497(2)
O2A O -0.7770(3) 0.5219(3) 0.09706(18)
O2_2 O -0.2230(3) 0.4781(3) -0.09706(18)
O2A_2 O 0.2230(3) 0.5219(3) 0.09706(18)
O3A O -0.3804(4) 0.8500(3) 0.3804(2)
O4A O -0.1003(3) 0.8103(3) 0.42316(18)
O4_2 O 0.1003(3) 1.1897(3) -0.42316(18)
O4A_2 O -0.1003(3) 0.8103(3) -0.57684(18)
O5A O 0.2878(9) 0.9842(9) -0.5378(5)
C16 C 0.675(2) 0.6674(15) 0.5992(11)
C17 C 0.598(2) 0.7937(17) 0.6023(11)
H9 H 0.6858 0.8800 0.5955
H10 H 0.5673 0.8092 0.6610
H11 H 0.4900 0.7786 0.5525
N5 N 0.7415(18) 0.5663(15) 0.5898(10)
O6 O 0.1313(4) 0.3772(3) -0.1137(2)
O7 O 0.1021(4) 0.8375(4) 0.2514(2)
O8 O 0.4516(7) 0.9985(6) 0.2383(4)
O9 O 0.7233(7) 0.2821(8) 0.6014(4)
loop_
_geom_bond_atom_site_label_1
_geom_bond_atom_site_label_2
_geom_bond_site_symmetry_1
_geom_bond_site_symmetry_2
C1 C2 1_555 1_555
C2 C3 1_555 1_555
C3 H1 1_555 1_555
C4 C3 1_555 1_555
C5 C4 1_555 1_555
H2 C5 1_555 1_555
C6 C5 1_555 1_555
C7 C2 1_555 1_555
H3 C7 1_555 1_555
C8 C6 1_555 1_555
C9 H4 1_555 1_555
C10 C11 1_555 1_555
C11 C12 1_555 1_555
C12 H5 1_555 1_555
C13 C12 1_555 1_555
H6 C13 1_555 1_555
C14 C13 1_555 1_555
H7 C14 1_555 1_555
C15 C11 1_555 1_555
H8 C15 1_555 1_555
Cu1 N4 1_555 1_555
Cu2 N2 1_555 1_555
N1 C4 1_555 1_555
N2 C9 1_555 1_555
N3 C10 1_555 1_555
N4 C14 1_555 1_555
O1 C1 1_555 1_555
O2 C1 1_555 1_555
O3 C8 1_555 1_555
O4 C8 1_555 1_555
O5 Cu2 1_555 1_555
C16 C17 1_555 1_555
C17 H9 1_555 1_555
H10 C17 1_555 1_555
H11 C17 1_555 1_555
N5 C16 1_555 1_555
C1A C2A 1_555 1_555
C2A C3A 1_555 1_555
C3A H1A 1_555 1_555
C4A C3A 1_555 1_555
C5A C4A 1_555 1_555
H2A C5A 1_555 1_555
C6A C5A 1_555 1_555
C7A C2A 1_555 1_555
H3A C7A 1_555 1_555
C8A C6A 1_555 1_555
C9A H4A 1_555 1_555
C10A C11A 1_555 1_555
C11A C12A 1_555 1_555
C12A H5A 1_555 1_555
C13A C12A 1_555 1_555
H6A C13A 1_555 1_555
C14A C13A 1_555 1_555
H7A C14A 1_555 1_555
C15A C11A 1_555 1_555
H8A C15A 1_555 1_555
Cu1_2 O2 1_555 1_555
Cu1_3 O2A 1_555 1_555
Cu2_2 O4 1_555 1_555
Cu2_3 N2A 1_555 1_555
Cu2_4 O4A 1_555 1_555
N1A C4A 1_555 1_555
N2A C9A 1_555 1_555
N2A_2 Cu2 1_555 1_555
N3A C10A 1_555 1_555
N4A Cu1 1_555 1_555
O1A C1A 1_555 1_555
O2A C1A 1_555 1_555
O2_2 Cu1 1_555 1_555
O2A_2 Cu1 1_555 1_555
O3A C8A 1_555 1_555
O4A C8A 1_555 1_555
O4_2 Cu2 1_555 1_555
O4A_2 Cu2 1_555 1_555
O5A Cu2 1_555 1_555
C6 C7 1_555 1_555
C9 N1 1_555 1_555
C10 N1 1_555 1_555
C15 N4 1_555 1_555
N2 N3 1_555 1_555
C6A C7A 1_555 1_555
C9A N1A 1_555 1_555
C10A N1A 1_555 1_555
C14A N4A 1_555 1_555
C15A N4A 1_555 1_555
N2A N3A 1_555 1_555

#END
