
#######################################################################
#
#                 Cambridge Crystallographic Data Centre
#                                CCDC 
#
#######################################################################
#
# If this CIF has been generated from an entry in the Cambridge 
# Structural Database, then it will include bibliographic, chemical, 
# crystal, experimental, refinement or atomic coordinate data resulting 
# from the CCDC's data processing and validation procedures.
#
#######################################################################

data_LECGEH
_symmetry_cell_setting           triclinic
_symmetry_space_group_name_H-M   'P -1'
_symmetry_Int_Tables_number      2
_space_group_name_Hall           '-P 1'
loop_
_symmetry_equiv_pos_site_id
_symmetry_equiv_pos_as_xyz
1 x,y,z
2 -x,-y,-z
_cell_length_a                   8.0231(9)
_cell_length_b                   9.5304(10)
_cell_length_c                   15.4714(18)
_cell_angle_alpha                96.709(9)
_cell_angle_beta                 103.637(9)
_cell_angle_gamma                99.063(9)
_cell_volume                     1120.59
loop_
_atom_site_label
_atom_site_type_symbol
_atom_site_fract_x
_atom_site_fract_y
_atom_site_fract_z
C1 C 0.3405(5) 0.4278(4) 0.0969(2)
C2 C 0.4952(5) 0.4570(4) 0.1802(2)
C3 C 0.5885(5) 0.3490(4) 0.2019(2)
H1 H 0.5550 0.2561 0.1661
C4 C 0.7323(4) 0.3792(4) 0.2771(2)
C5 C 0.7855(5) 0.5141(4) 0.3296(2)
H2 H 0.8869 0.5335 0.3788
C6 C 0.6889(5) 0.6215(4) 0.3096(2)
C7 C 0.5431(5) 0.5916(4) 0.2353(2)
H3 H 0.4757 0.6636 0.2221
C8 C 0.7393(5) 0.7663(4) 0.3685(2)
C9 C 0.8619(5) 0.2285(4) 0.3887(2)
H4 H 0.8435 0.2810 0.4406
C10 C 0.8718(5) 0.1607(4) 0.2509(2)
C11 C 0.8617(5) 0.1591(4) 0.1546(2)
C12 C 0.7961(10) 0.0322(5) 0.0925(3)
H5 H 0.7618 -0.0570 0.1111
C13 C 0.7830(14) 0.0423(6) 0.0009(4)
H6 H 0.7357 -0.0405 -0.0440
C14 C 0.8386(11) 0.1715(6) -0.0227(3)
H7 H 0.8281 0.1756 -0.0848
C15 C 0.9182(5) 0.2859(4) 0.1241(2)
H8 H 0.9663 0.3708 0.1673
Co1 Co 1.0000 0.5000 0.0000
Co2 Co 1.0000 0.0000 0.5000
N1 N 0.8227(4) 0.2646(3) 0.30392(18)
N2 N 0.9279(4) 0.1123(3) 0.38796(19)
N3 N 0.9359(4) 0.0675(3) 0.30041(19)
N4 N 0.9081(5) 0.2944(3) 0.0371(2)
O1 O 0.3264(4) 0.3204(3) 0.03862(19)
O2 O 0.2385(3) 0.5184(3) 0.09318(17)
O3 O 0.6222(3) 0.8421(3) 0.36728(18)
O4 O 0.8953(3) 0.8024(3) 0.41741(16)
O5 O 0.8989(4) 0.6061(3) 0.10158(17)
O6 O 1.2453(3) -0.0128(3) 0.47262(17)
H9 H 0.966(9) 0.671(6) 0.141(4)
H10 H 0.820(8) 0.642(8) 0.072(5)
H11 H 1.317(9) 0.031(8) 0.521(4)
H12 H 1.269(10) -0.094(4) 0.463(5)
C1A C 0.6595(5) 0.5722(4) -0.0969(2)
C2A C 0.5048(5) 0.5430(4) -0.1802(2)
C3A C 0.4115(5) 0.6510(4) -0.2019(2)
H1A H 0.4450 0.7439 -0.1661
C4A C 0.2677(4) 0.6208(4) -0.2771(2)
C5A C 0.2145(5) 0.4859(4) -0.3296(2)
H2A H 0.1131 0.4665 -0.3788
C6A C 0.3111(5) 0.3785(4) -0.3096(2)
C7A C 0.4569(5) 0.4084(4) -0.2353(2)
H3A H 0.5243 0.3364 -0.2221
C8A C 0.2607(5) 0.2337(4) -0.3685(2)
C9A C 0.1381(5) 0.7715(4) -0.3887(2)
H4A H 0.1565 0.7190 -0.4406
C10A C 0.1282(5) 0.8393(4) -0.2509(2)
C11A C 0.1383(5) 0.8409(4) -0.1546(2)
C12A C 0.2039(10) 0.9678(5) -0.0925(3)
H5A H 0.2382 1.0570 -0.1111
C13A C 0.2170(14) 0.9577(6) -0.0009(4)
H6A H 0.2643 1.0405 0.0440
C14A C 0.1614(11) 0.8285(6) 0.0227(3)
H7A H 0.1719 0.8244 0.0848
C15A C 0.0818(5) 0.7141(4) -0.1241(2)
H8A H 0.0337 0.6292 -0.1673
Co1_2 Co 0.0000 0.5000 0.0000
Co2_2 Co 0.0000 0.0000 -0.5000
Co2_3 Co 0.0000 1.0000 -0.5000
Co2_4 Co 1.0000 1.0000 0.5000
N1A N 0.1773(4) 0.7354(3) -0.30392(18)
N2A N 0.0721(4) 0.8877(3) -0.38796(19)
N2A_2 N 1.0721(4) -0.1123(3) 0.61204(19)
N3A N 0.0641(4) 0.9325(3) -0.30041(19)
N4A N 0.0919(5) 0.7056(3) -0.0371(2)
N4A_2 N 1.0919(5) 0.7056(3) -0.0371(2)
O1A O 0.6736(4) 0.6796(3) -0.03862(19)
O2A O 0.7615(3) 0.4816(3) -0.09318(17)
O2_2 O 1.2385(3) 0.5184(3) 0.09318(17)
O3A O 0.3778(3) 0.1579(3) -0.36728(18)
O4A O 0.1047(3) 0.1976(3) -0.41741(16)
O4_2 O 0.8953(3) -0.1976(3) 0.41741(16)
O4A_2 O 1.1047(3) 0.1976(3) 0.58259(16)
O5A O 1.1011(4) 0.3939(3) -0.10158(17)
O6A O 0.7547(3) 0.0128(3) 0.52738(17)
H9A H 1.034(9) 0.329(6) -0.141(4)
H10A H 1.180(8) 0.358(8) -0.072(5)
H11A H 0.683(9) -0.031(8) 0.479(4)
H12A H 0.731(10) 0.094(4) 0.537(5)
C16 C 1.2963(12) 0.3850(10) 0.4156(6)
C17 C 1.3834(12) 0.2606(10) 0.3853(6)
H13 H 1.5108 0.2900 0.4066
H14 H 1.3494 0.2374 0.3194
H15 H 1.3452 0.1755 0.4108
N5 N 1.2354(12) 0.4706(10) 0.4432(6)
O7 O 0.9007(4) 0.1625(4) -0.23803(19)
O8 O 0.7013(4) 0.2583(4) 0.6133(2)
O9 O 0.4600(7) -0.0029(6) 0.2317(4)
O10 O 0.4734(15) -0.2199(13) 0.0651(8)
loop_
_geom_bond_atom_site_label_1
_geom_bond_atom_site_label_2
_geom_bond_site_symmetry_1
_geom_bond_site_symmetry_2
C1 C2 1_555 1_555
C2 C3 1_555 1_555
C3 H1 1_555 1_555
C4 C3 1_555 1_555
C5 C4 1_555 1_555
H2 C5 1_555 1_555
C6 C5 1_555 1_555
C7 C2 1_555 1_555
H3 C7 1_555 1_555
C8 C6 1_555 1_555
C9 H4 1_555 1_555
C10 C11 1_555 1_555
C11 C12 1_555 1_555
C12 H5 1_555 1_555
C13 C12 1_555 1_555
H6 C13 1_555 1_555
C14 C13 1_555 1_555
H7 C14 1_555 1_555
C15 C11 1_555 1_555
H8 C15 1_555 1_555
Co1 N4 1_555 1_555
Co2 N2 1_555 1_555
N1 C4 1_555 1_555
N2 C9 1_555 1_555
N3 C10 1_555 1_555
N4 C14 1_555 1_555
O1 C1 1_555 1_555
O2 C1 1_555 1_555
O3 C8 1_555 1_555
O4 C8 1_555 1_555
O5 Co1 1_555 1_555
O6 Co2 1_555 1_555
H9 O5 1_555 1_555
H10 O5 1_555 1_555
H11 O6 1_555 1_555
H12 O6 1_555 1_555
C16 C17 1_555 1_555
C17 H13 1_555 1_555
H14 C17 1_555 1_555
H15 C17 1_555 1_555
N5 C16 1_555 1_555
C1A C2A 1_555 1_555
C2A C3A 1_555 1_555
C3A H1A 1_555 1_555
C4A C3A 1_555 1_555
C5A C4A 1_555 1_555
H2A C5A 1_555 1_555
C6A C5A 1_555 1_555
C7A C2A 1_555 1_555
H3A C7A 1_555 1_555
C8A C6A 1_555 1_555
C9A H4A 1_555 1_555
C10A C11A 1_555 1_555
C11A C12A 1_555 1_555
C12A H5A 1_555 1_555
C13A C12A 1_555 1_555
H6A C13A 1_555 1_555
C14A C13A 1_555 1_555
H7A C14A 1_555 1_555
C15A C11A 1_555 1_555
H8A C15A 1_555 1_555
Co1_2 O2 1_555 1_555
Co2_2 O4A 1_555 1_555
Co2_3 N2A 1_555 1_555
Co2_4 O4 1_555 1_555
N1A C4A 1_555 1_555
N2A C9A 1_555 1_555
N2A_2 Co2 1_555 1_555
N3A C10A 1_555 1_555
N4A C14A 1_555 1_555
N4A_2 Co1 1_555 1_555
O1A C1A 1_555 1_555
O2A Co1 1_555 1_555
O2_2 Co1 1_555 1_555
O3A C8A 1_555 1_555
O4A C8A 1_555 1_555
O4_2 Co2 1_555 1_555
O4A_2 Co2 1_555 1_555
O5A Co1 1_555 1_555
O6A Co2 1_555 1_555
H9A O5A 1_555 1_555
H10A O5A 1_555 1_555
H11A O6A 1_555 1_555
H12A O6A 1_555 1_555
C6 C7 1_555 1_555
C9 N1 1_555 1_555
C10 N1 1_555 1_555
C15 N4 1_555 1_555
N2 N3 1_555 1_555
C1A O2A 1_555 1_555
C6A C7A 1_555 1_555
C9A N1A 1_555 1_555
C10A N1A 1_555 1_555
C15A N4A 1_555 1_555
Co1_2 N4A 1_555 1_555
N2A N3A 1_555 1_555

#END
