
#######################################################################
#
#                 Cambridge Crystallographic Data Centre
#                                CCDC 
#
#######################################################################
#
# If this CIF has been generated from an entry in the Cambridge 
# Structural Database, then it will include bibliographic, chemical, 
# crystal, experimental, refinement or atomic coordinate data resulting 
# from the CCDC's data processing and validation procedures.
#
#######################################################################

data_LETDEU
_symmetry_cell_setting           tetragonal
_symmetry_space_group_name_H-M   'I 41/a c d'
_symmetry_Int_Tables_number      142
_space_group_name_Hall           '-I 4bd 2c'
loop_
_symmetry_equiv_pos_site_id
_symmetry_equiv_pos_as_xyz
1 x,y,z
2 1/4-y,3/4+x,1/4+z
3 x,-y,1/2-z
4 1/2-x,-y,1/2+z
5 1/4+y,3/4+x,3/4-z
6 1/4+y,1/4-x,3/4+z
7 1/2-x,y,-z
8 1/4-y,1/4-x,1/4-z
9 1/2+x,1/2+y,1/2+z
10 3/4-y,1/4+x,3/4+z
11 1/2+x,1/2-y,-z
12 -x,1/2-y,z
13 3/4+y,1/4+x,1/4-z
14 3/4+y,3/4-x,1/4+z
15 -x,1/2+y,1/2-z
16 3/4-y,3/4-x,3/4-z
17 -x,-y,-z
18 3/4+y,1/4-x,3/4-z
19 -x,y,1/2+z
20 1/2+x,y,1/2-z
21 3/4-y,1/4-x,1/4+z
22 3/4-y,3/4+x,1/4-z
23 1/2+x,-y,z
24 3/4+y,3/4+x,3/4+z
25 1/2-x,1/2-y,1/2-z
26 1/4+y,3/4-x,1/4-z
27 1/2-x,1/2+y,z
28 x,1/2+y,-z
29 1/4-y,3/4-x,3/4+z
30 1/4-y,1/4+x,3/4-z
31 x,1/2-y,1/2+z
32 1/4+y,1/4+x,1/4+z
_cell_length_a                   28.6782(14)
_cell_length_b                   28.6782(14)
_cell_length_c                   6.5270(6)
_cell_angle_alpha                90
_cell_angle_beta                 90
_cell_angle_gamma                90
_cell_volume                     5368.06
loop_
_atom_site_label
_atom_site_type_symbol
_atom_site_fract_x
_atom_site_fract_y
_atom_site_fract_z
Br1 Br 0.0000 0.7500 0.8750
Cu1 Cu 1.05280(3) 0.31845(2) 0.36733(12)
Cu2 Cu 0.96884(4) 0.5000 0.2500
N1 N 1.00940(16) 0.36733(17) 0.3411(7)
N2 N 0.96095(17) 0.36111(18) 0.3484(7)
N3 N 0.97534(18) 0.43602(17) 0.2979(8)
C1 C 1.0147(2) 0.4117(2) 0.3113(8)
H1 H 1.0446 0.4258 0.2998
C2 C 0.9425(2) 0.4019(2) 0.3215(9)
H2 H 0.9099 0.4075 0.3185
Cu1B Cu 1.05280(3) 0.68155(2) 0.13267(12)
Cu1CA Cu 0.93155(2) 0.30280(3) 0.38267(12)
Cu1BA Cu 0.93155(2) 0.69720(3) 0.11733(12)
Cu1Q Cu 1.06845(2) 0.19720(3) 0.38267(12)
Cu1W Cu 1.06845(2) 0.80280(3) 0.11733(12)
Cu2Q Cu 1.2500 0.28116(4) 0.5000
Cu2U Cu 1.2500 0.71884(4) 0.0000
N1B N 1.00940(16) 0.63267(17) 0.1589(7)
N1Q N 1.11733(17) 0.24060(16) 0.4089(7)
N1W N 1.11733(17) 0.75940(16) 0.0911(7)
N1CA N 0.88267(17) 0.25940(16) 0.4089(7)
N1BA N 0.88267(17) 0.74060(16) 0.0911(7)
N2B N 0.96095(17) 0.63889(18) 0.1516(7)
N2Q N 1.11111(18) 0.28905(17) 0.4016(7)
N2W N 1.11111(18) 0.71095(17) 0.0984(7)
N3B N 0.97534(18) 0.56398(17) 0.2021(8)
N3Q N 1.18602(17) 0.27466(18) 0.4521(8)
N3W N 1.18602(17) 0.72534(18) 0.0479(8)
N3T N 1.31398(17) 0.27466(18) 0.5479(8)
C1B C 1.0147(2) 0.5883(2) 0.1887(8)
C1Q C 1.1617(2) 0.2353(2) 0.4387(8)
C1W C 1.1617(2) 0.7647(2) 0.0613(8)
H1B H 1.0446 0.5742 0.2002
H1Q H 1.1758 0.2054 0.4502
H1W H 1.1758 0.7946 0.0498
C2B C 0.9425(2) 0.5981(2) 0.1785(9)
C2Q C 1.1519(2) 0.3075(2) 0.4285(9)
C2W C 1.1519(2) 0.6925(2) 0.0715(9)
H2B H 0.9099 0.5925 0.1815
H2Q H 1.1575 0.3401 0.4315
H2W H 1.1575 0.6599 0.0685
loop_
_geom_bond_atom_site_label_1
_geom_bond_atom_site_label_2
_geom_bond_site_symmetry_1
_geom_bond_site_symmetry_2
Cu1 N1 1_555 1_555
Cu2 N3 1_555 1_555
N1 N2 1_555 1_555
N2 C2 1_555 1_555
N3 C1 1_555 1_555
C1 N1 1_555 1_555
H1 C1 1_555 1_555
C2 N3 1_555 1_555
H2 C2 1_555 1_555
Cu1B N1B 1_555 1_555
Cu1CA N2 1_555 1_555
Cu1BA N1BA 1_555 1_555
Cu1Q N1Q 1_555 1_555
Cu1W N1W 1_555 1_555
Cu2Q N3Q 1_555 1_555
Cu2U N3W 1_555 1_555
N1B N2B 1_555 1_555
N1Q N2Q 1_555 1_555
N1W N2W 1_555 1_555
N1CA Cu1CA 1_555 1_555
N2B Cu1BA 1_555 1_555
N2Q Cu1 1_555 1_555
N2W Cu1B 1_555 1_555
N3B Cu2 1_555 1_555
N3Q C1Q 1_555 1_555
N3W C1W 1_555 1_555
N3T Cu2Q 1_555 1_555
C1B N1B 1_555 1_555
C1Q N1Q 1_555 1_555
C1W N1W 1_555 1_555
H1B C1B 1_555 1_555
H1Q C1Q 1_555 1_555
H1W C1W 1_555 1_555
C2B N2B 1_555 1_555
C2Q N2Q 1_555 1_555
C2W N2W 1_555 1_555
H2B C2B 1_555 1_555
H2Q C2Q 1_555 1_555
H2W C2W 1_555 1_555
N3B C1B 1_555 1_555
N3B C2B 1_555 1_555
N3Q C2Q 1_555 1_555
N3W C2W 1_555 1_555

#END
