
#######################################################################
#
#                 Cambridge Crystallographic Data Centre
#                                CCDC 
#
#######################################################################
#
# If this CIF has been generated from an entry in the Cambridge 
# Structural Database, then it will include bibliographic, chemical, 
# crystal, experimental, refinement or atomic coordinate data resulting 
# from the CCDC's data processing and validation procedures.
#
#######################################################################

data_LETROT
_symmetry_cell_setting           monoclinic
_symmetry_space_group_name_H-M   'C 2/c'
_symmetry_Int_Tables_number      15
_space_group_name_Hall           '-C 2yn'
loop_
_symmetry_equiv_pos_site_id
_symmetry_equiv_pos_as_xyz
1 x,y,z
2 -x,y,1/2-z
3 1/2+x,1/2+y,z
4 1/2-x,1/2+y,1/2-z
5 -x,-y,-z
6 x,-y,1/2+z
7 1/2-x,1/2-y,-z
8 1/2+x,1/2-y,1/2+z
_cell_length_a                   19.092(3)
_cell_length_b                   10.3933(16)
_cell_length_c                   11.0647(17)
_cell_angle_alpha                90
_cell_angle_beta                 90.418(2)
_cell_angle_gamma                90
_cell_volume                     2195.5
loop_
_atom_site_label
_atom_site_type_symbol
_atom_site_fract_x
_atom_site_fract_y
_atom_site_fract_z
Zn1 Zn 0.5000 0.12220(8) 0.2500
Zn2 Zn 0.57716(3) 0.05949(6) -0.00382(4)
O1 O 0.63320(18) 0.2243(4) 0.0582(3)
O2 O 0.57893(18) 0.2543(4) 0.2352(3)
O3 O 0.48529(16) 0.1067(3) 0.0656(3)
H1 H 0.4554 0.0482 0.0502
N1 N 0.8792(2) 0.4619(4) 0.3633(3)
N2 N 0.91558(19) 0.4702(4) 0.2615(3)
N3 N 0.8781(2) 0.4295(4) 0.1670(3)
C1 C 0.8149(3) 0.4140(5) 0.3337(4)
C2 C 0.8142(2) 0.3926(5) 0.2097(4)
C3 C 0.7534(3) 0.3447(5) 0.1510(4)
H2 H 0.7523 0.3304 0.0681
C4 C 0.6965(3) 0.3204(5) 0.2216(4)
C5 C 0.6972(3) 0.3438(6) 0.3472(4)
H3 H 0.6570 0.3275 0.3916
C6 C 0.7559(3) 0.3902(6) 0.4058(4)
H4 H 0.7566 0.4049 0.4887
C7 C 0.6307(3) 0.2631(5) 0.1660(4)
Zn1B Zn 1.0000 0.62220(8) 0.2500
Zn1B_2 Zn 0.0000 -0.37780(8) 0.2500
Zn2D Zn 0.42284(3) -0.05949(6) 0.00382(4)
Zn2C Zn 0.92284(3) 0.55949(6) 0.50382(4)
Zn2F Zn 0.92284(3) 0.44051(6) 0.00382(4)
Zn2E Zn 0.57716(3) -0.05949(6) 0.49618(4)
Zn2A Zn 0.42284(3) 0.05949(6) 0.50382(4)
Zn2B Zn 0.07716(3) -0.44051(6) -0.00382(4)
O1A O 0.36680(18) 0.2243(4) 0.4418(3)
O1B O 0.13320(18) -0.2757(4) 0.0582(3)
O2A O 0.42107(18) 0.2543(4) 0.2648(3)
O2B O 0.07893(18) -0.2457(4) 0.2352(3)
O3A O 0.51471(16) 0.1067(3) 0.4344(3)
O3D O 0.51471(16) -0.1067(3) -0.0656(3)
O3E O 0.48529(16) -0.1067(3) 0.5656(3)
H1A H 0.5446 0.0482 0.4498
H1D H 0.5446 -0.0482 -0.0502
H1E H 0.4554 -0.0482 0.5502
N1C N 0.6208(2) -0.0381(4) 0.1367(3)
N1B N 0.3792(2) -0.0381(4) 0.3633(3)
N2C N 0.58442(19) -0.0298(4) 0.2385(3)
N2B N 0.41558(19) -0.0298(4) 0.2615(3)
N3F N 0.6219(2) 0.0705(4) -0.1670(3)
N3B N 0.3781(2) -0.0705(4) 0.1670(3)
N3G N 0.3781(2) 0.0705(4) 0.6670(3)
C1B C 0.3149(3) -0.0860(5) 0.3337(4)
C2B C 0.3142(2) -0.1074(5) 0.2097(4)
C3B C 0.2534(3) -0.1553(5) 0.1510(4)
H2B H 0.2523 -0.1696 0.0681
C4B C 0.1965(3) -0.1796(5) 0.2216(4)
C5B C 0.1972(3) -0.1562(6) 0.3472(4)
H3B H 0.1570 -0.1725 0.3916
C6B C 0.2559(3) -0.1098(6) 0.4058(4)
H4B H 0.2566 -0.0951 0.4887
C7B C 0.1307(3) -0.2369(5) 0.1660(4)
loop_
_geom_bond_atom_site_label_1
_geom_bond_atom_site_label_2
_geom_bond_site_symmetry_1
_geom_bond_site_symmetry_2
Zn1 O2 1_555 1_555
Zn2 O1 1_555 1_555
O1 C7 1_555 1_555
O2 C7 1_555 1_555
O3 Zn1 1_555 1_555
H1 O3 1_555 1_555
N1 N2 1_555 1_555
N2 N3 1_555 1_555
N3 C2 1_555 1_555
C1 N1 1_555 1_555
C2 C1 1_555 1_555
C3 C2 1_555 1_555
H2 C3 1_555 1_555
C4 C3 1_555 1_555
C5 C4 1_555 1_555
H3 C5 1_555 1_555
C6 C1 1_555 1_555
H4 C6 1_555 1_555
C7 C4 1_555 1_555
Zn1B N2 1_555 1_555
Zn1B_2 O2B 1_555 1_555
Zn2D O3 1_555 1_555
Zn2C N1 1_555 1_555
Zn2F N3 1_555 1_555
Zn2E O3A 1_555 1_555
Zn2A O1A 1_555 1_555
Zn2B O1B 1_555 1_555
O1B C7B 1_555 1_555
O2A Zn1 1_555 1_555
O2B C7B 1_555 1_555
O3A Zn1 1_555 1_555
O3D Zn2 1_555 1_555
O3E Zn2E 1_555 1_555
H1A O3A 1_555 1_555
H1D O3D 1_555 1_555
H1E O3E 1_555 1_555
N1C Zn2 1_555 1_555
N1B Zn2A 1_555 1_555
N2C Zn1 1_555 1_555
N2B Zn1 1_555 1_555
N3F Zn2 1_555 1_555
N3B Zn2D 1_555 1_555
N3G Zn2A 1_555 1_555
C1B N1B 1_555 1_555
C2B N3B 1_555 1_555
C3B C2B 1_555 1_555
H2B C3B 1_555 1_555
C4B C3B 1_555 1_555
C5B C4B 1_555 1_555
H3B C5B 1_555 1_555
C6B C1B 1_555 1_555
H4B C6B 1_555 1_555
C7B C4B 1_555 1_555
Zn2 O3 1_555 1_555
C5 C6 1_555 1_555
Zn2D O3D 1_555 1_555
Zn2A O3A 1_555 1_555
Zn2A O3E 1_555 1_555
N1C N2C 1_555 1_555
N1B N2B 1_555 1_555
N2B N3B 1_555 1_555
C1B C2B 1_555 1_555
C5B C6B 1_555 1_555

#END
