
#######################################################################
#
#                 Cambridge Crystallographic Data Centre
#                                CCDC 
#
#######################################################################
#
# If this CIF has been generated from an entry in the Cambridge 
# Structural Database, then it will include bibliographic, chemical, 
# crystal, experimental, refinement or atomic coordinate data resulting 
# from the CCDC's data processing and validation procedures.
#
#######################################################################

data_LEYMIL
_symmetry_cell_setting           monoclinic
_symmetry_space_group_name_H-M   'P 21/c'
_symmetry_Int_Tables_number      14
_space_group_name_Hall           '-P 2ybc'
loop_
_symmetry_equiv_pos_site_id
_symmetry_equiv_pos_as_xyz
1 x,y,z
2 -x,1/2+y,1/2-z
3 -x,-y,-z
4 x,1/2-y,1/2+z
_cell_length_a                   9.944(3)
_cell_length_b                   13.928(6)
_cell_length_c                   26.275(6)
_cell_angle_alpha                90
_cell_angle_beta                 99.59(2)
_cell_angle_gamma                90
_cell_volume                     3588.23
loop_
_atom_site_label
_atom_site_type_symbol
_atom_site_fract_x
_atom_site_fract_y
_atom_site_fract_z
Cu1 Cu 0.5658(1) 0.3591(1) 0.3361(1)
Cu2 Cu 1.0635(1) 0.1783(1) 0.3527(1)
S1 S 0.3408(1) 0.4268(1) 0.2422(1)
O1 O 0.3040(4) 0.5208(3) 0.2170(2)
O2 O 0.4642(4) 0.4451(3) 0.2819(2)
O3 O 0.2301(4) 0.3916(3) 0.2669(2)
O4 O 0.3744(5) 0.3571(3) 0.2044(2)
S2 S 0.7954(1) 0.5030(1) 0.4063(1)
O5 O 0.6619(4) 0.4975(3) 0.3705(2)
O6 O 0.8347(4) 0.6051(3) 0.4114(2)
O7 O 0.7764(5) 0.4650(3) 0.4560(2)
O8 O 0.8964(4) 0.4486(3) 0.3844(2)
S3 S 1.2973(2) 0.0519(1) 0.4185(1)
O9 O 1.1594(4) 0.0957(3) 0.4105(2)
O10 O 1.3070(4) -0.0109(3) 0.4637(2)
O11 O 1.3168(5) -0.0029(3) 0.3733(2)
O12 O 1.3998(5) 0.1276(4) 0.4270(2)
N1 N 0.6989(4) 0.2763(3) 0.3888(2)
C1 C 0.6941(6) 0.2492(4) 0.4369(2)
C2 C 0.7967(6) 0.1959(4) 0.4649(2)
C3 C 0.9067(6) 0.1713(4) 0.4423(2)
N2 N 0.9133(4) 0.2002(3) 0.3939(2)
C4 C 0.8085(5) 0.2505(4) 0.3696(2)
C5 C 0.8188(5) 0.2837(4) 0.3173(2)
N3 N 0.7140(5) 0.3352(3) 0.2933(2)
C6 C 0.7249(6) 0.3685(4) 0.2462(2)
C7 C 0.8391(6) 0.3506(5) 0.2246(2)
C8 C 0.9414(6) 0.2949(5) 0.2519(2)
N4 N 0.9309(5) 0.2609(3) 0.2989(2)
N5 N 0.2117(4) 0.1756(3) 0.3102(2)
C9 C 0.2160(6) 0.1158(4) 0.2708(2)
C10 C 0.3281(6) 0.1121(5) 0.2465(2)
C11 C 0.4371(6) 0.1693(5) 0.2657(3)
N6 N 0.4328(5) 0.2295(3) 0.3052(2)
C12 C 0.3183(5) 0.2316(4) 0.3249(2)
C13 C 0.3108(5) 0.3031(4) 0.3664(2)
N7 N 0.4177(4) 0.3612(3) 0.3800(2)
C14 C 0.4114(6) 0.4226(4) 0.4190(2)
C15 C 0.2993(6) 0.4260(5) 0.4433(3)
C16 C 0.1913(6) 0.3669(5) 0.4248(2)
N8 N 0.1970(5) 0.3042(3) 0.3863(2)
O13 O 0.9755(4) 0.0384(3) 0.3202(2)
H1 H 0.617 0.267 0.452
H2 H 0.792 0.176 0.500
H3 H 0.979 0.133 0.461
H4 H 0.652 0.405 0.227
H5 H 0.847 0.376 0.191
H6 H 1.021 0.280 0.237
H7 H 0.140 0.075 0.259
H8 H 0.330 0.071 0.217
H9 H 0.518 0.166 0.250
H10 H 0.487 0.465 0.430
H11 H 0.296 0.468 0.472
H12 H 0.110 0.371 0.440
H13 H 0.996(5) -0.009(4) 0.347(2)
H14 H 0.879(1) 0.032(4) 0.310(2)
N5_2 N 1.2117(4) 0.1756(3) 0.3102(2)
N8_2 N 1.1970(5) 0.3042(3) 0.3863(2)
Cu2_2 Cu 0.0635(1) 0.1783(1) 0.3527(1)
V1 V 0.5238(1) 0.2295(1) 0.0695(1)
O14 O 0.5355(4) 0.1475(3) 0.0291(2)
O15 O 0.7322(4) 0.2392(3) 0.0907(2)
O16 O 0.5247(4) 0.3430(3) 0.0225(2)
O17 O 0.3194(4) 0.2432(3) 0.0579(2)
O18 O 0.5337(5) 0.3406(3) 0.1283(2)
O19 O 0.5111(5) 0.1473(3) 0.1320(2)
H15 H 0.794(5) 0.203(4) 0.074(2)
H16 H 0.786(5) 0.293(3) 0.105(2)
H17 H 0.475(5) 0.352(4) -0.012(1)
H18 H 0.580(5) 0.400(3) 0.027(2)
H19 H 0.277(6) 0.197(3) 0.077(2)
H20 H 0.258(5) 0.296(3) 0.055(3)
H21 H 0.474(5) 0.357(4) 0.152(2)
H22 H 0.588(5) 0.397(3) 0.128(2)
H23 H 0.586(4) 0.132(4) 0.158(2)
H24 H 0.455(5) 0.091(3) 0.128(2)
O20 O 0.1358(5) 0.2502(4) 0.1625(2)
H25 H 0.223(3) 0.280(4) 0.171(2)
H26 H 0.156(6) 0.196(3) 0.143(2)
O21 O 0.7298(5) 0.1396(3) 0.2015(2)
H27 H 0.804(5) 0.111(4) 0.188(2)
H28 H 0.723(6) 0.097(4) 0.230(2)
O22 O 0.3497(5) 0.5468(4) 0.1169(2)
H29 H 0.343(6) 0.531(5) 0.152(1)
H30 H 0.446(2) 0.545(5) 0.117(2)
O23 O 0.8912(5) 0.1362(4) 0.0437(2)
H31 H 0.983(3) 0.117(4) 0.057(2)
H32 H 0.869(6) 0.092(4) 0.015(2)
O24 O 0.2041(6) 0.4181(3) 0.0475(2)
H33 H 0.212(6) 0.466(3) 0.022(2)
H34 H 0.259(6) 0.445(4) 0.077(1)
O25 O -0.0409(6) 0.3744(4) 0.1090(2)
H35 H 0.014(5) 0.410(4) 0.089(2)
H36 H 0.026(4) 0.338(4) 0.132(2)
O26 O 0.9496(6) 0.0226(4) 0.1877(2)
H37 H 0.888(5) -0.025(3) 0.196(2)
H38 H 0.989(6) -0.007(4) 0.161(2)
loop_
_geom_bond_atom_site_label_1
_geom_bond_atom_site_label_2
_geom_bond_site_symmetry_1
_geom_bond_site_symmetry_2
Cu1 O2 1_555 1_555
Cu2 O9 1_555 1_555
S1 O1 1_555 1_555
O2 S1 1_555 1_555
O3 S1 1_555 1_555
O4 S1 1_555 1_555
S2 O5 1_555 1_555
O5 Cu1 1_555 1_555
O6 S2 1_555 1_555
O7 S2 1_555 1_555
O8 S2 1_555 1_555
S3 O9 1_555 1_555
O10 S3 1_555 1_555
O11 S3 1_555 1_555
O12 S3 1_555 1_555
N1 Cu1 1_555 1_555
C1 N1 1_555 1_555
C2 C1 1_555 1_555
C3 C2 1_555 1_555
N2 Cu2 1_555 1_555
C4 N1 1_555 1_555
C5 C4 1_555 1_555
N3 Cu1 1_555 1_555
C6 N3 1_555 1_555
C7 C6 1_555 1_555
C8 C7 1_555 1_555
N4 Cu2 1_555 1_555
N5 C9 1_555 1_555
C9 C10 1_555 1_555
C10 C11 1_555 1_555
C11 N6 1_555 1_555
N6 Cu1 1_555 1_555
C12 N5 1_555 1_555
C13 C12 1_555 1_555
N7 Cu1 1_555 1_555
C14 N7 1_555 1_555
C15 C14 1_555 1_555
C16 C15 1_555 1_555
N8 C13 1_555 1_555
O13 Cu2 1_555 1_555
H1 C1 1_555 1_555
H2 C2 1_555 1_555
H3 C3 1_555 1_555
H4 C6 1_555 1_555
H5 C7 1_555 1_555
H6 C8 1_555 1_555
H7 C9 1_555 1_555
H8 C10 1_555 1_555
H9 C11 1_555 1_555
H10 C14 1_555 1_555
H11 C15 1_555 1_555
H12 C16 1_555 1_555
H13 O13 1_555 1_555
H14 O13 1_555 1_555
V1 O14 1_555 1_555
O15 V1 1_555 1_555
O16 V1 1_555 1_555
O17 V1 1_555 1_555
O18 V1 1_555 1_555
O19 V1 1_555 1_555
H15 O15 1_555 1_555
H16 O15 1_555 1_555
H17 O16 1_555 1_555
H18 O16 1_555 1_555
H19 O17 1_555 1_555
H20 O17 1_555 1_555
H21 O18 1_555 1_555
H22 O18 1_555 1_555
H23 O19 1_555 1_555
H24 O19 1_555 1_555
O20 H25 1_555 1_555
H26 O20 1_555 1_555
O21 H27 1_555 1_555
H28 O21 1_555 1_555
O22 H29 1_555 1_555
H30 O22 1_555 1_555
O23 H31 1_555 1_555
H32 O23 1_555 1_555
O24 H33 1_555 1_555
H34 O24 1_555 1_555
O25 H35 1_555 1_555
H36 O25 1_555 1_555
O26 H37 1_555 1_555
H38 O26 1_555 1_555
N5_2 Cu2 1_555 1_555
N8_2 Cu2 1_555 1_555
Cu2_2 N5 1_555 1_555
C3 N2 1_555 1_555
N2 C4 1_555 1_555
C5 N3 1_555 1_555
C5 N4 1_555 1_555
C8 N4 1_555 1_555
N6 C12 1_555 1_555
C13 N7 1_555 1_555
C16 N8 1_555 1_555
N8 Cu2_2 1_555 1_555

#END
