
#######################################################################
#
#                 Cambridge Crystallographic Data Centre
#                                CCDC 
#
#######################################################################
#
# If this CIF has been generated from an entry in the Cambridge 
# Structural Database, then it will include bibliographic, chemical, 
# crystal, experimental, refinement or atomic coordinate data resulting 
# from the CCDC's data processing and validation procedures.
#
#######################################################################

data_LIHKAQ
_symmetry_cell_setting           orthorhombic
_symmetry_space_group_name_H-M   'C m c m'
_symmetry_Int_Tables_number      63
_space_group_name_Hall           '-C 2n 2'
loop_
_symmetry_equiv_pos_site_id
_symmetry_equiv_pos_as_xyz
1 x,y,z
2 -x,-y,1/2+z
3 -x,y,1/2-z
4 x,-y,-z
5 1/2+x,1/2+y,z
6 1/2-x,1/2-y,1/2+z
7 1/2-x,1/2+y,1/2-z
8 1/2+x,1/2-y,-z
9 -x,-y,-z
10 x,y,1/2-z
11 x,-y,1/2+z
12 -x,y,z
13 1/2-x,1/2-y,-z
14 1/2+x,1/2+y,1/2-z
15 1/2+x,1/2-y,1/2+z
16 1/2-x,1/2+y,z
_cell_length_a                   6.5554(13)
_cell_length_b                   15.384(3)
_cell_length_c                   18.135(4)
_cell_angle_alpha                90
_cell_angle_beta                 90
_cell_angle_gamma                90
_cell_volume                     1828.88
loop_
_atom_site_label
_atom_site_type_symbol
_atom_site_fract_x
_atom_site_fract_y
_atom_site_fract_z
N1 N 0.724(6) 0.564(2) 0.2500
H3 H 0.8269 0.6029 0.2500
H4 H 0.7812 0.5112 0.2500
C2 C 0.602(4) 0.5727(18) 0.1744(13)
H5 H 0.6469 0.5262 0.1430
H6 H 0.6469 0.6261 0.1524
C2I C 0.602(4) 0.5727(18) 0.3256(13)
H5I H 0.6469 0.5262 0.3570
H6I H 0.6469 0.6261 0.3476
N1B N 0.276(6) 0.564(2) 0.2500
H3B H 0.1731 0.6029 0.2500
H4B H 0.2188 0.5112 0.2500
C2K C 0.398(4) 0.5727(18) 0.1744(13)
H5K H 0.3531 0.5262 0.1430
H6K H 0.3531 0.6261 0.1524
C2B C 0.398(4) 0.5727(18) 0.3256(13)
H5B H 0.3531 0.5262 0.3570
H6B H 0.3531 0.6261 0.3476
In1 In 0.5000 0.83529(4) 0.42689(3)
P1 P 0.5000 0.6641(2) 0.54248(17)
H1 H 0.5000 0.7395 0.5847
O1 O 0.5000 0.7095(5) 0.4690(4)
O2 O 0.6868(16) 0.6307(7) 0.5696(6)
P2 P 0.6081(11) 0.8372(4) 0.2500
H2 H 0.8264 0.8475 0.2500
O3 O 0.5000 0.7945(6) 0.3172(4)
O4 O 0.574(3) 0.9326(12) 0.2500
O5 O 0.5000 0.9785(5) 0.4054(3)
O6 O 0.5000 1.1055(5) 0.4623(3)
C1 C 0.5000 1.0239(6) 0.4618(4)
O2K O 0.3132(16) 0.6307(7) 0.5696(6)
P2B P 0.3919(11) 0.8372(4) 0.2500
H2B H 0.1736 0.8475 0.2500
O3B O 0.5000 0.7945(6) 0.1828(4)
O4B O 0.426(3) 0.9326(12) 0.2500
O5C O 0.5000 1.0215(5) 0.5946(3)
O6C O 0.5000 0.8945(5) 0.5377(3)
C1C C 0.5000 0.9761(6) 0.5382(4)
In1B In 0.5000 0.83529(4) 0.07311(3)
P1B P 0.5000 0.6641(2) -0.04248(17)
H1B H 0.5000 0.7395 -0.0847
O1B O 0.5000 0.7095(5) 0.0310(4)
O2B O 0.3132(16) 0.6307(7) -0.0696(6)
O2I O 0.6868(16) 0.6307(7) -0.0696(6)
In1C In 0.5000 1.16471(4) 0.57311(3)
In1E In 0.0000 0.66471(4) -0.07311(3)
In1E_2 In 1.0000 0.66471(4) -0.07311(3)
In1G In 0.0000 0.66471(4) 0.57311(3)
In1G_2 In 1.0000 0.66471(4) 0.57311(3)
O2E O 0.8132(16) 0.8693(7) 0.0696(6)
O2G O 0.1868(16) 0.8693(7) 0.4304(6)
O2L O 0.8132(16) 0.8693(7) 0.4304(6)
O2N O 0.1868(16) 0.8693(7) 0.0696(6)
O5B O 0.5000 0.9785(5) 0.0946(3)
O6A O 0.5000 0.8945(5) -0.0377(3)
H7? H 0.5000 0.5762 0.5247
O7? O 0.6862(16) 0.6747(7) 0.5866(7)
loop_
_geom_bond_atom_site_label_1
_geom_bond_atom_site_label_2
_geom_bond_site_symmetry_1
_geom_bond_site_symmetry_2
In1 O1 1_555 1_555
P1 H1 1_555 1_555
O1 P1 1_555 1_555
O2 P1 1_555 1_555
P2 H2 1_555 1_555
O3 In1 1_555 1_555
O4 P2 1_555 1_555
O5 In1 1_555 1_555
O6 C1 1_555 1_555
C1 O5 1_555 1_555
N1 H3 1_555 1_555
H4 N1 1_555 1_555
C2 N1 1_555 1_555
H5 C2 1_555 1_555
H6 C2 1_555 1_555
O2K P1 1_555 1_555
P2B P2 1_555 1_555
H2B P2B 1_555 1_555
O3B P2 1_555 1_555
O4B P2 1_555 1_555
O5C C1C 1_555 1_555
O6C In1 1_555 1_555
C1C C1 1_555 1_555
In1B O3B 1_555 1_555
P1B H1B 1_555 1_555
O1B In1B 1_555 1_555
O2B P1B 1_555 1_555
O2I P1B 1_555 1_555
In1C O6 1_555 1_555
In1E O2B 1_555 1_555
In1E_2 O2I 1_555 1_555
In1G O2K 1_555 1_555
In1G_2 O2 1_555 1_555
O2E In1B 1_555 1_555
O2G In1 1_555 1_555
O2L In1 1_555 1_555
O2N In1B 1_555 1_555
O5B In1B 1_555 1_555
O6A In1B 1_555 1_555
C2I N1 1_555 1_555
H5I C2I 1_555 1_555
H6I C2I 1_555 1_555
N1B H3B 1_555 1_555
H4B N1B 1_555 1_555
C2K C2 1_555 1_555
H5K C2K 1_555 1_555
H6K C2K 1_555 1_555
C2B C2I 1_555 1_555
H5B C2B 1_555 1_555
H6B C2B 1_555 1_555
P2 O3 1_555 1_555
O3 P2B 1_555 1_555
O4 P2B 1_555 1_555
O4 O4B 1_555 1_555
P2B O3B 1_555 1_555
P2B O4B 1_555 1_555
O5C In1C 1_555 1_555
O6C C1C 1_555 1_555
P1B O1B 1_555 1_555
N1B C2K 1_555 1_555
N1B C2B 1_555 1_555

#END
