
#######################################################################
#
#                 Cambridge Crystallographic Data Centre
#                                CCDC 
#
#######################################################################
#
# If this CIF has been generated from an entry in the Cambridge 
# Structural Database, then it will include bibliographic, chemical, 
# crystal, experimental, refinement or atomic coordinate data resulting 
# from the CCDC's data processing and validation procedures.
#
#######################################################################

data_LITCUO
_symmetry_cell_setting           monoclinic
_symmetry_space_group_name_H-M   'P 21/c'
_symmetry_Int_Tables_number      14
_space_group_name_Hall           '-P 2ybc'
loop_
_symmetry_equiv_pos_site_id
_symmetry_equiv_pos_as_xyz
1 x,y,z
2 -x,1/2+y,1/2-z
3 -x,-y,-z
4 x,1/2-y,1/2+z
_cell_length_a                   10.168(3)
_cell_length_b                   18.035(5)
_cell_length_c                   27.054(8)
_cell_angle_alpha                90
_cell_angle_beta                 99.321(5)
_cell_angle_gamma                90
_cell_volume                     4895.65
loop_
_atom_site_label
_atom_site_type_symbol
_atom_site_fract_x
_atom_site_fract_y
_atom_site_fract_z
Co1 Co 0.46930(4) 0.69084(2) 0.309507(15)
Co2 Co 0.64085(5) 0.76571(3) 0.216911(17)
O1 O 1.3550(2) 0.64781(15) 0.35658(9)
O2 O 1.2418(2) 0.70493(16) 0.29330(10)
O3 O 0.6549(2) 0.66851(17) 0.33874(10)
O4 O 0.5626(3) 0.84480(15) 0.25399(10)
C1 C 0.7520(3) 0.6833(2) 0.31815(12)
C2 C 1.2454(3) 0.6676(2) 0.33175(13)
O5 O 0.7483(2) 0.71696(19) 0.27867(10)
C3 C 1.1200(3) 0.6474(2) 0.35020(12)
C4 C 1.1237(3) 0.6027(2) 0.39145(13)
H1 H 1.2049 0.5835 0.4069
C5 C 0.5041(4) 0.9971(2) 0.44849(13)
O6 O 0.4817(3) 0.79715(15) 0.31803(12)
C6 C 0.8839(3) 0.6571(2) 0.34405(12)
O7 O 0.5451(3) 1.11749(17) 0.24296(11)
C7 C 0.5233(3) 0.92265(19) 0.31980(12)
C8 C 0.8902(3) 0.6143(2) 0.38656(12)
H2 H 0.8126 0.6045 0.3994
C9 C 0.5194(3) 1.05416(19) 0.31537(12)
C10 C 1.0808(3) 0.5632(2) 0.50189(12)
C11 C 1.0097(3) 0.5400(2) 0.45619(12)
C12 C 0.9991(3) 0.6739(2) 0.32605(12)
H3 H 0.9956 0.7033 0.2976
C13 C 1.0096(3) 0.5857(2) 0.41031(12)
C14 C 0.5093(4) 0.9939(2) 0.39397(12)
C15 C 0.5278(3) 0.98710(19) 0.29275(13)
H4 H 0.5366 0.9849 0.2591
C16 C 0.5158(4) 0.92679(19) 0.36990(13)
H5 H 0.5150 0.8832 0.3882
C17 C 0.5243(3) 0.8489(2) 0.29543(13)
C18 C 1.0691(3) 0.5229(2) 0.54650(13)
C19 C 0.5100(4) 1.0583(2) 0.36574(13)
H6 H 0.5040 1.1043 0.3808
O8 O 0.0614(4) 0.8890(2) 0.42421(12)
O9 O 1.3088(3) 0.7111(2) 0.55812(13)
C20 C 0.6139(4) 1.0242(2) 0.48113(13)
O10 O 1.2858(4) 0.6408(3) 0.63694(13)
C21 C 1.1605(4) 0.6288(2) 0.50628(14)
H7 H 1.1654 0.6571 0.4779
C22 C 0.3917(4) 0.97220(19) 0.46628(13)
C23 C 1.1376(4) 0.5508(3) 0.59238(14)
H8 H 1.1289 0.5266 0.6220
C24 C 0.2810(5) 0.9431(2) 0.43445(15)
H9 H 0.2841 0.9393 0.4004
C25 C 1.2281(4) 0.6502(3) 0.55033(16)
O11 O 0.9545(3) 1.0935(2) 0.48449(12)
C26 C 0.7327(5) 1.0458(2) 0.46473(15)
H10 H 0.7380 1.0418 0.4308
O12 O 0.4837(4) 1.18283(16) 0.30331(12)
C27 C 0.1690(5) 0.9201(3) 0.45175(16)
C28 C 1.2150(4) 0.6112(3) 0.59418(15)
C29 C 0.8391(5) 1.0721(3) 0.49601(16)
C30 C 1.3257(6) 0.7527(3) 0.5152(2)
H11 H 1.3764 0.7243 0.4949
H12 H 1.3722 0.7979 0.5255
H13 H 1.2400 0.7642 0.4962
C31 C 0.9695(6) 1.0865(4) 0.4328(2)
H14 H 0.9084 1.1197 0.4130
H15 H 1.0592 1.0998 0.4297
H16 H 0.9521 1.0366 0.4213
C32 C 0.0692(8) 0.8712(5) 0.3729(2)
H17 H 0.1165 0.9098 0.3588
H18 H -0.0191 0.8670 0.3542
H19 H 0.1155 0.8250 0.3716
C33 C 1.2748(8) 0.6026(5) 0.6828(2)
H20 H 1.3164 0.5548 0.6828
H21 H 1.1824 0.5964 0.6854
H22 H 1.3181 0.6310 0.7107
C34 C 0.5142(4) 1.1243(2) 0.28512(15)
O13 O 0.5570(3) 0.81652(19) 0.14882(11)
H23 H 0.5288 0.7830 0.1277
H24 H 0.4888 0.8470 0.1527
O14 O 0.8053(7) 0.8062(4) 0.2023(3)
H25 H 0.8060 0.8317 0.1759
H26 H 0.8770 0.7997 0.2228
O15 O 0.7778(12) 0.7255(7) 0.1774(5)
H27 H 0.8335 0.6849 0.1920
H28 H 0.7532 0.7232 0.1412
O1B O 0.6450(2) 0.35219(15) 0.64342(9)
O2B O 0.7582(2) 0.29507(16) 0.70670(10)
O3B O 1.3451(2) 0.33149(17) 0.66126(10)
C1B C 1.2480(3) 0.3167(2) 0.68185(12)
C2B C 0.7546(3) 0.3324(2) 0.66825(13)
O5B O 1.2517(2) 0.28304(19) 0.72133(10)
C3B C 0.8800(3) 0.3526(2) 0.64980(12)
C4B C 0.8763(3) 0.3973(2) 0.60855(13)
H1B H 0.7951 0.4165 0.5931
C6B C 1.1161(3) 0.3429(2) 0.65595(12)
C8B C 1.1098(3) 0.3857(2) 0.61344(12)
H2B H 1.1874 0.3955 0.6006
C10B C 0.9192(3) 0.4368(2) 0.49811(12)
C11B C 0.9903(3) 0.4600(2) 0.54381(12)
C12B C 1.0009(3) 0.3261(2) 0.67395(12)
H3B H 1.0044 0.2967 0.7024
C13B C 0.9904(3) 0.4143(2) 0.58969(12)
C18B C 0.9309(3) 0.4771(2) 0.45350(13)
O9B O 0.6912(3) 0.2889(2) 0.44188(13)
O10B O 0.7142(4) 0.3592(3) 0.36306(13)
C21B C 0.8395(4) 0.3712(2) 0.49372(14)
H7B H 0.8346 0.3429 0.5221
C23B C 0.8624(4) 0.4492(3) 0.40762(14)
H8B H 0.8711 0.4734 0.3780
C25B C 0.7719(4) 0.3498(3) 0.44967(16)
C28B C 0.7850(4) 0.3888(3) 0.40582(15)
C30B C 0.6743(6) 0.2473(3) 0.4848(2)
H11B H 0.6236 0.2757 0.5051
H12B H 0.6278 0.2021 0.4745
H13B H 0.7600 0.2358 0.5038
C33B C 0.7252(8) 0.3974(5) 0.3172(2)
H20B H 0.6836 0.4452 0.3172
H21B H 0.8176 0.4036 0.3146
H22B H 0.6819 0.3690 0.2893
O4B O 0.4374(3) 1.15520(15) 0.74601(10)
C5B C 0.4959(4) 1.0029(2) 0.55151(13)
O6B O 0.5183(3) 1.20285(15) 0.68197(12)
O7B O 0.4549(3) 0.88251(17) 0.75704(11)
C7B C 0.4767(3) 1.07735(19) 0.68020(12)
C9B C 0.4806(3) 0.94584(19) 0.68463(12)
C14B C 0.4907(4) 1.0061(2) 0.60603(12)
C15B C 0.4722(3) 1.01290(19) 0.70725(13)
H4B H 0.4634 1.0151 0.7409
C16B C 0.4842(4) 1.07321(19) 0.63010(13)
H5B H 0.4850 1.1168 0.6118
C17B C 0.4757(3) 1.1511(2) 0.70457(13)
C19B C 0.4900(4) 0.9417(2) 0.63426(13)
H6B H 0.4960 0.8957 0.6192
O8B O 0.9386(4) 1.1110(2) 0.57579(12)
C20B C 0.3861(4) 0.9758(2) 0.51887(13)
C22B C 0.6083(4) 1.02780(19) 0.53372(13)
C24B C 0.7190(5) 1.0569(2) 0.56555(15)
H9B H 0.7159 1.0607 0.5996
O11B O 0.0455(3) 0.9065(2) 0.51551(12)
C26B C 0.2673(5) 0.9542(2) 0.53527(15)
H10B H 0.2620 0.9582 0.5692
O12B O 0.5163(4) 0.81717(16) 0.69669(12)
C27B C 0.8310(5) 1.0799(3) 0.54825(16)
C29B C 0.1609(5) 0.9279(3) 0.50399(16)
C31B C 0.0305(6) 0.9135(4) 0.5672(2)
H14B H 0.0916 0.8803 0.5870
H15B H -0.0592 0.9002 0.5703
H16B H 0.0479 0.9634 0.5787
C32B C 0.9308(8) 1.1288(5) 0.6271(2)
H17B H 0.8835 1.0902 0.6412
H18B H 1.0191 1.1330 0.6458
H19B H 0.8845 1.1750 0.6284
C34B C 0.4858(4) 0.8757(2) 0.71488(15)
Co1B Co 0.53070(4) 0.30916(2) 0.690493(15)
Co2A Co 0.35915(5) 1.26571(3) 0.283089(17)
O13A O 0.4430(3) 1.31652(19) 0.35118(11)
H23A H 0.4712 1.2830 0.3723
H24A H 0.5112 1.3470 0.3473
O14A O 0.1947(7) 1.3062(4) 0.2977(3)
H25A H 0.1940 1.3317 0.3241
H26A H 0.1230 1.2997 0.2772
O15A O 0.2222(12) 1.2255(7) 0.3226(5)
H27A H 0.1665 1.1849 0.3080
H28A H 0.2468 1.2232 0.3588
Co1_2 Co 1.46930(4) 0.69084(2) 0.309507(15)
Co1A Co 0.53070(4) 1.19084(2) 0.190493(15)
Co1B_2 Co 0.53070(4) 1.30916(2) 0.690493(15)
Co1B_3 Co 1.53070(4) 0.30916(2) 0.690493(15)
Co1C Co 0.46930(4) 0.80916(2) 0.809507(15)
Co2B Co 0.35915(5) 1.23429(3) 0.783089(17)
Co2B_2 Co 1.35915(5) 0.23429(3) 0.783089(17)
Co2C Co 0.64085(5) 0.73429(3) 0.716911(17)
O1_2 O 0.3550(2) 0.64781(15) 0.35658(9)
O2_2 O 0.2418(2) 0.70493(16) 0.29330(10)
O3B_2 O 0.3451(2) 0.33149(17) 0.66126(10)
O4A O 0.4374(3) 1.34480(15) 0.24601(10)
O5A O 0.2517(2) 1.21696(19) 0.22133(10)
O6B_2 O 0.5183(3) 0.20285(15) 0.68197(12)
O7A O 0.4549(3) 0.61749(17) 0.25704(11)
O7C O 0.5451(3) 0.38251(17) 0.74296(11)
O12A O 0.5163(4) 0.68283(16) 0.19669(12)
loop_
_geom_bond_atom_site_label_1
_geom_bond_atom_site_label_2
_geom_bond_site_symmetry_1
_geom_bond_site_symmetry_2
Co1 O3 1_555 1_555
Co2 O4 1_555 1_555
O1 C2 1_555 1_555
O2 C2 1_555 1_555
O3 C1 1_555 1_555
O4 C17 1_555 1_555
C1 O5 1_555 1_555
C2 C3 1_555 1_555
O5 Co2 1_555 1_555
C3 C4 1_555 1_555
C4 H1 1_555 1_555
C5 C14 1_555 1_555
O6 Co1 1_555 1_555
C6 C1 1_555 1_555
O7 C34 1_555 1_555
C7 C15 1_555 1_555
C8 C6 1_555 1_555
H2 C8 1_555 1_555
C9 C15 1_555 1_555
C10 C11 1_555 1_555
C11 C13 1_555 1_555
C12 C3 1_555 1_555
H3 C12 1_555 1_555
C13 C4 1_555 1_555
C14 C16 1_555 1_555
C15 H4 1_555 1_555
C16 C7 1_555 1_555
H5 C16 1_555 1_555
C17 O6 1_555 1_555
C18 C10 1_555 1_555
C19 C9 1_555 1_555
H6 C19 1_555 1_555
O8 C27 1_555 1_555
O9 C25 1_555 1_555
C20 C5 1_555 1_555
O10 C28 1_555 1_555
C21 C10 1_555 1_555
H7 C21 1_555 1_555
C22 C5 1_555 1_555
C23 C18 1_555 1_555
H8 C23 1_555 1_555
C24 C22 1_555 1_555
H9 C24 1_555 1_555
C25 C21 1_555 1_555
O11 C29 1_555 1_555
C26 C20 1_555 1_555
H10 C26 1_555 1_555
O12 C34 1_555 1_555
C27 C24 1_555 1_555
C28 C23 1_555 1_555
C29 C26 1_555 1_555
C30 O9 1_555 1_555
H11 C30 1_555 1_555
H12 C30 1_555 1_555
H13 C30 1_555 1_555
C31 O11 1_555 1_555
H14 C31 1_555 1_555
H15 C31 1_555 1_555
H16 C31 1_555 1_555
C32 O8 1_555 1_555
H17 C32 1_555 1_555
H18 C32 1_555 1_555
H19 C32 1_555 1_555
C33 O10 1_555 1_555
H20 C33 1_555 1_555
H21 C33 1_555 1_555
H22 C33 1_555 1_555
C34 C9 1_555 1_555
O13 Co2 1_555 1_555
H23 O13 1_555 1_555
H24 O13 1_555 1_555
O14 Co2 1_555 1_555
H25 O14 1_555 1_555
H26 O14 1_555 1_555
O15 Co2 1_555 1_555
H27 O15 1_555 1_555
H28 O15 1_555 1_555
O1B C2B 1_555 1_555
O2B C2B 1_555 1_555
O3B C1B 1_555 1_555
C1B O5B 1_555 1_555
C2B C3B 1_555 1_555
O5B Co2B_2 1_555 1_555
C3B C4B 1_555 1_555
C4B H1B 1_555 1_555
C6B C1B 1_555 1_555
C8B C6B 1_555 1_555
H2B C8B 1_555 1_555
C10B C11B 1_555 1_555
C11B C18 1_555 1_555
C12B C3B 1_555 1_555
H3B C12B 1_555 1_555
C13B C4B 1_555 1_555
C18B C11 1_555 1_555
O9B C25B 1_555 1_555
O10B C28B 1_555 1_555
C21B C10B 1_555 1_555
H7B C21B 1_555 1_555
C23B C18B 1_555 1_555
H8B C23B 1_555 1_555
C25B C21B 1_555 1_555
C28B C23B 1_555 1_555
C30B O9B 1_555 1_555
H11B C30B 1_555 1_555
H12B C30B 1_555 1_555
H13B C30B 1_555 1_555
C33B O10B 1_555 1_555
H20B C33B 1_555 1_555
H21B C33B 1_555 1_555
H22B C33B 1_555 1_555
O4B C17B 1_555 1_555
C5B C14B 1_555 1_555
O6B C17B 1_555 1_555
O7B C34B 1_555 1_555
C7B C15B 1_555 1_555
C9B C15B 1_555 1_555
C14B C16B 1_555 1_555
C15B H4B 1_555 1_555
C16B C7B 1_555 1_555
H5B C16B 1_555 1_555
C17B C7B 1_555 1_555
C19B C9B 1_555 1_555
H6B C19B 1_555 1_555
O8B C27B 1_555 1_555
C20B C22 1_555 1_555
C22B C20 1_555 1_555
C24B C22B 1_555 1_555
H9B C24B 1_555 1_555
O11B C29B 1_555 1_555
C26B C20B 1_555 1_555
H10B C26B 1_555 1_555
O12B C34B 1_555 1_555
C27B C29 1_555 1_555
C29B C27 1_555 1_555
C31B O11B 1_555 1_555
H14B C31B 1_555 1_555
H15B C31B 1_555 1_555
H16B C31B 1_555 1_555
C32B O8B 1_555 1_555
H17B C32B 1_555 1_555
H18B C32B 1_555 1_555
H19B C32B 1_555 1_555
C34B C9B 1_555 1_555
Co1B O1B 1_555 1_555
Co2A O12 1_555 1_555
O13A Co2A 1_555 1_555
H23A O13A 1_555 1_555
H24A O13A 1_555 1_555
O14A Co2A 1_555 1_555
H25A O14A 1_555 1_555
H26A O14A 1_555 1_555
O15A Co2A 1_555 1_555
H27A O15A 1_555 1_555
H28A O15A 1_555 1_555
Co1_2 O1 1_555 1_555
Co1A O7 1_555 1_555
Co1B_2 O6B 1_555 1_555
Co1B_3 O3B 1_555 1_555
Co1C O7B 1_555 1_555
Co2B O4B 1_555 1_555
Co2C O12B 1_555 1_555
O1_2 Co1 1_555 1_555
O2_2 Co1 1_555 1_555
O3B_2 Co1B 1_555 1_555
O4A Co2A 1_555 1_555
O5A Co2A 1_555 1_555
O6B_2 Co1B 1_555 1_555
O7A Co1 1_555 1_555
O7C Co1B 1_555 1_555
O12A Co2 1_555 1_555
O2 Co1_2 1_555 1_555
C6 C12 1_555 1_555
C7 C17 1_555 1_555
C8 C13 1_555 1_555
C14 C19 1_555 1_555
C25 C28 1_555 1_555
O2B Co1B 1_555 1_555
C6B C12B 1_555 1_555
C8B C13B 1_555 1_555
C10B C18B 1_555 1_555
C11B C13B 1_555 1_555
C25B C28B 1_555 1_555
C5B C20B 1_555 1_555
C5B C22B 1_555 1_555
C14B C19B 1_555 1_555
C24B C27B 1_555 1_555
C26B C29B 1_555 1_555

#END
