
#######################################################################
#
#                 Cambridge Crystallographic Data Centre
#                                CCDC 
#
#######################################################################
#
# If this CIF has been generated from an entry in the Cambridge 
# Structural Database, then it will include bibliographic, chemical, 
# crystal, experimental, refinement or atomic coordinate data resulting 
# from the CCDC's data processing and validation procedures.
#
#######################################################################

data_LIWBIE
_symmetry_cell_setting           triclinic
_symmetry_space_group_name_H-M   'P -1'
_symmetry_Int_Tables_number      2
_space_group_name_Hall           '-P 1'
loop_
_symmetry_equiv_pos_site_id
_symmetry_equiv_pos_as_xyz
1 x,y,z
2 -x,-y,-z
_cell_length_a                   9.8692(4)
_cell_length_b                   11.0682(3)
_cell_length_c                   10.7563(4)
_cell_angle_alpha                79.836(4)
_cell_angle_beta                 106.536(5)
_cell_angle_gamma                86.339(5)
_cell_volume                     1100.55
loop_
_atom_site_label
_atom_site_type_symbol
_atom_site_fract_x
_atom_site_fract_y
_atom_site_fract_z
N1 N 0.853(6) 0.491(8) 0.971(7)
C1 C 0.90(1) 0.588(8) 0.908(8)
C2 C 0.805(8) 0.681(8) 0.810(7)
C3 C 0.851(8) 0.781(7) 0.743(6)
C4 C 1.00(1) 0.795(6) 0.772(7)
C5 C 1.094(7) 0.704(7) 0.868(8)
C6 C 1.05(1) 0.598(8) 0.938(8)
Ru1 Ru 0.6067(7) 0.5018(8) 0.9772(9)
H1 H 0.70818 0.67561 0.78977
H2 H 0.78448 0.83981 0.67881
H3 H 1.03187 0.86164 0.72736
H4 H 1.19110 0.71084 0.88776
C7 C 0.373(8) 0.582(8) 0.744(7)
C8 C 0.294(9) 0.619(8) 0.601(8)
C9 C 0.369(8) 0.643(8) 0.508(9)
C10 C 0.577(6) 0.678(6) 0.441(7)
C11 C 0.293(9) 0.680(7) 0.372(8)
C12 C 0.143(8) 0.690(7) 0.337(6)
C13 C 0.074(8) 0.662(8) 0.435(8)
C14 C 0.15(1) 0.628(8) 0.565(8)
Cl1 Cl 0.044(2) 0.736(2) 0.169(2)
O1 O 0.505(5) 0.577(4) 0.781(5)
O2 O 0.302(5) 0.558(4) 0.821(5)
O3 O 0.516(6) 0.632(5) 0.546(5)
H5 H 0.54812 0.63336 0.37096
H6 H 0.67918 0.66644 0.47592
H7 H 0.54472 0.76435 0.40726
H8 H 0.34011 0.69760 0.30882
H9 H -0.02509 0.66875 0.40824
H10 H 0.09753 0.61041 0.62813
C15 C 0.532(9) 0.717(6) 1.065(7)
C16 C 0.567(9) 0.819(6) 1.140(8)
C17 C 0.466(7) 0.914(7) 1.125(7)
C18 C 0.221(6) 0.994(6) 1.058(7)
C19 C 0.497(8) 1.009(7) 1.196(8)
C20 C 0.634(9) 1.005(7) 1.285(8)
C21 C 0.738(9) 0.913(8) 1.302(7)
C22 C 0.704(9) 0.820(6) 1.228(7)
Cl2 Cl 0.677(2) 1.117(2) 1.376(2)
O4 O 0.616(5) 0.678(4) 1.010(5)
O5 O 0.417(5) 0.675(4) 1.060(5)
O6 O 0.333(5) 0.915(4) 1.037(5)
H11 H 0.24269 1.07759 1.04822
H12 H 0.13128 0.98991 0.99455
H13 H 0.21429 0.96632 1.14603
H14 H 0.42705 1.07460 1.18422
H15 H 0.82838 0.91067 1.35950
H16 H 0.77459 0.75573 1.23782
C1A C 1.10(1) 0.412(8) 1.092(8)
C2A C 1.195(8) 0.319(8) 1.190(7)
C3A C 1.149(8) 0.219(7) 1.257(6)
H1A H 1.29182 0.32439 1.21023
H2A H 1.21552 0.16019 1.32119
C5A C 0.906(7) 0.296(7) 1.132(8)
C6A C 0.95(1) 0.402(8) 1.062(8)
H4A H 0.80890 0.28916 1.11224
N1A N 1.147(6) 0.509(8) 1.029(7)
C4A C 1.00(1) 0.205(6) 1.228(7)
H3A H 0.96813 0.13836 1.27264
Ru1A Ru 0.3933(7) 0.4982(8) 1.0228(9)
C7A C 0.627(8) 0.418(8) 1.256(7)
C8A C 0.706(9) 0.381(8) 1.399(8)
C9A C 0.631(8) 0.357(8) 1.492(9)
C10A C 0.423(6) 0.322(6) 1.559(7)
C11A C 0.707(9) 0.320(7) 1.628(8)
C12A C 0.857(8) 0.310(7) 1.663(6)
C13A C 0.926(8) 0.338(8) 1.565(8)
C14A C 0.85(1) 0.372(8) 1.435(8)
Cl1A Cl 0.956(2) 0.264(2) 1.831(2)
O1A O 0.495(5) 0.423(4) 1.219(5)
O2A O 0.698(5) 0.442(4) 1.179(5)
O3A O 0.484(6) 0.368(5) 1.454(5)
H5A H 0.45188 0.36664 1.62904
H6A H 0.32082 0.33356 1.52408
H7A H 0.45528 0.23565 1.59274
H8A H 0.65989 0.30240 1.69118
H9A H 1.02509 0.33125 1.59176
H10A H 0.90247 0.38959 1.37187
C15A C 0.468(9) 0.283(6) 0.935(7)
C16A C 0.433(9) 0.181(6) 0.860(8)
C17A C 0.534(7) 0.086(7) 0.875(7)
C18A C 0.779(6) 0.006(6) 0.942(7)
C19A C 0.503(8) -0.009(7) 0.804(8)
C20A C 0.366(9) -0.005(7) 0.715(8)
C21A C 0.262(9) 0.087(8) 0.698(7)
C22A C 0.296(9) 0.180(6) 0.772(7)
Cl2A Cl 0.323(2) -0.117(2) 0.624(2)
O4A O 0.384(5) 0.322(4) 0.990(5)
O5A O 0.583(5) 0.325(4) 0.940(5)
O6A O 0.667(5) 0.085(4) 0.963(5)
H11A H 0.75731 -0.07759 0.95178
H12A H 0.86872 0.01009 1.00545
H13A H 0.78571 0.03368 0.85397
H14A H 0.57295 -0.07460 0.81578
H15A H 0.17162 0.08933 0.64050
H16A H 0.22541 0.24427 0.76218
N1A_2 N 0.147(6) 0.509(8) 1.029(7)
Ru1A_2 Ru 1.3933(7) 0.4982(8) 1.0228(9)
loop_
_geom_bond_atom_site_label_1
_geom_bond_atom_site_label_2
_geom_bond_site_symmetry_1
_geom_bond_site_symmetry_2
N1 C1 1_555 1_555
C1 C2 1_555 1_555
C2 C3 1_555 1_555
C3 C4 1_555 1_555
C4 C5 1_555 1_555
C5 C6 1_555 1_555
C6 C1 1_555 1_555
Ru1 N1 1_555 1_555
H1 C2 1_555 1_555
H2 C3 1_555 1_555
H3 C4 1_555 1_555
H4 C5 1_555 1_555
C7 C8 1_555 1_555
C8 C9 1_555 1_555
C9 C11 1_555 1_555
C10 O3 1_555 1_555
C11 C12 1_555 1_555
C12 C13 1_555 1_555
C13 C14 1_555 1_555
C14 C8 1_555 1_555
Cl1 C12 1_555 1_555
O1 Ru1 1_555 1_555
O2 C7 1_555 1_555
O3 C9 1_555 1_555
H5 C10 1_555 1_555
H6 C10 1_555 1_555
H7 C10 1_555 1_555
H8 C11 1_555 1_555
H9 C13 1_555 1_555
H10 C14 1_555 1_555
C15 C16 1_555 1_555
C16 C17 1_555 1_555
C17 C19 1_555 1_555
C18 O6 1_555 1_555
C19 C20 1_555 1_555
C20 C21 1_555 1_555
C21 C22 1_555 1_555
C22 C16 1_555 1_555
Cl2 C20 1_555 1_555
O4 Ru1 1_555 1_555
O5 C15 1_555 1_555
O6 C17 1_555 1_555
H11 C18 1_555 1_555
H12 C18 1_555 1_555
H13 C18 1_555 1_555
H14 C19 1_555 1_555
H15 C21 1_555 1_555
H16 C22 1_555 1_555
C1A C2A 1_555 1_555
C2A C3A 1_555 1_555
C3A H2A 1_555 1_555
H1A C2A 1_555 1_555
C5A C6A 1_555 1_555
C6A N1 1_555 1_555
H4A C5A 1_555 1_555
N1A C6 1_555 1_555
C4A C3A 1_555 1_555
H3A C4A 1_555 1_555
Ru1A Ru1 1_555 1_555
C7A C8A 1_555 1_555
C8A C9A 1_555 1_555
C9A C11A 1_555 1_555
C10A O3A 1_555 1_555
C11A C12A 1_555 1_555
C12A C13A 1_555 1_555
C13A C14A 1_555 1_555
C14A C8A 1_555 1_555
Cl1A C12A 1_555 1_555
O1A Ru1A 1_555 1_555
O2A Ru1 1_555 1_555
O3A C9A 1_555 1_555
H5A C10A 1_555 1_555
H6A C10A 1_555 1_555
H7A C10A 1_555 1_555
H8A C11A 1_555 1_555
H9A C13A 1_555 1_555
H10A C14A 1_555 1_555
C15A C16A 1_555 1_555
C16A C17A 1_555 1_555
C17A C19A 1_555 1_555
C18A O6A 1_555 1_555
C19A C20A 1_555 1_555
C20A C21A 1_555 1_555
C21A C22A 1_555 1_555
C22A C16A 1_555 1_555
Cl2A C20A 1_555 1_555
O4A Ru1A 1_555 1_555
O5A Ru1 1_555 1_555
O6A C17A 1_555 1_555
H11A C18A 1_555 1_555
H12A C18A 1_555 1_555
H13A C18A 1_555 1_555
H14A C19A 1_555 1_555
H15A C21A 1_555 1_555
H16A C22A 1_555 1_555
N1A_2 Ru1A 1_555 1_555
Ru1A_2 N1A 1_555 1_555
C7 O1 1_555 1_555
O2 Ru1A 1_555 1_555
C15 O4 1_555 1_555
O5 Ru1A 1_555 1_555
C1A C6A 1_555 1_555
C1A N1A 1_555 1_555
C5A C4A 1_555 1_555
C7A O1A 1_555 1_555
C7A O2A 1_555 1_555
C15A O4A 1_555 1_555
C15A O5A 1_555 1_555

#END
