
#######################################################################
#
#                 Cambridge Crystallographic Data Centre
#                                CCDC 
#
#######################################################################
#
# If this CIF has been generated from an entry in the Cambridge 
# Structural Database, then it will include bibliographic, chemical, 
# crystal, experimental, refinement or atomic coordinate data resulting 
# from the CCDC's data processing and validation procedures.
#
#######################################################################

data_LIWCEB
_symmetry_cell_setting           triclinic
_symmetry_space_group_name_H-M   'P -1'
_symmetry_Int_Tables_number      2
_space_group_name_Hall           '-P 1'
loop_
_symmetry_equiv_pos_site_id
_symmetry_equiv_pos_as_xyz
1 x,y,z
2 -x,-y,-z
_cell_length_a                   9.6402(11)
_cell_length_b                   12.0011(16)
_cell_length_c                   12.5432(16)
_cell_angle_alpha                87.884(5)
_cell_angle_beta                 77.956(4)
_cell_angle_gamma                83.753(5)
_cell_volume                     1410.64
loop_
_atom_site_label
_atom_site_type_symbol
_atom_site_fract_x
_atom_site_fract_y
_atom_site_fract_z
Rh1 Rh 0.37222(4) 0.51038(3) 0.01601(3)
Cl1 Cl 0.5037(3) 0.28609(17) 0.66204(14)
Cl2 Cl 0.46352(18) -0.16750(13) -0.21039(15)
O1 O 0.3711(4) 0.4728(4) 0.1757(3)
O2 O 0.6112(4) 0.4513(3) 0.1456(3)
O3 O 0.2333(5) 0.4027(4) 0.3616(4)
O4 O 0.3815(4) 0.3462(3) -0.0230(3)
O5 O 0.6220(4) 0.3269(3) -0.0554(3)
O6 O 0.7430(5) 0.1224(4) -0.0847(4)
N1 N 0.1291(5) 0.5194(4) 0.0304(4)
C1 C 0.4874(6) 0.4489(5) 0.2066(5)
C2 C 0.4849(6) 0.4125(5) 0.3215(5)
C3 C 0.3600(7) 0.3871(6) 0.3959(5)
C4 C 0.1108(7) 0.3654(7) 0.4340(6)
C5 C 0.3692(7) 0.3481(6) 0.5003(5)
C6 C 0.4981(7) 0.3344(6) 0.5305(5)
C7 C 0.6245(7) 0.3592(6) 0.4597(5)
C8 C 0.6146(7) 0.3975(6) 0.3563(5)
C9 C 0.5028(6) 0.2910(5) -0.0532(5)
C10 C 0.5005(6) 0.1753(5) -0.0896(5)
C11 C 0.6184(6) 0.0946(5) -0.1076(5)
C12 C 0.8661(7) 0.0411(6) -0.1082(6)
C13 C 0.6069(7) -0.0112(5) -0.1441(5)
C14 C 0.4766(7) -0.0360(5) -0.1642(5)
C15 C 0.3582(7) 0.0433(5) -0.1492(5)
C16 C 0.3712(6) 0.1469(5) -0.1114(5)
C17 C 0.0621(6) 0.4275(5) 0.0661(5)
C18 C 0.1179(6) 0.3508(5) 0.1409(5)
C19 C 0.0515(6) 0.2579(5) 0.1766(5)
C20 C -0.0714(6) 0.2331(5) 0.1383(5)
C21 C -0.1294(6) 0.3051(5) 0.0702(5)
C22 C -0.0677(6) 0.4073(5) 0.0347(5)
H1 H 0.0932 0.4058 0.5027
H2 H 0.1279 0.2848 0.4483
H3 H 0.0274 0.3801 0.4003
H4 H 0.2857 0.3311 0.5506
H5 H 0.7133 0.3500 0.4822
H6 H 0.6989 0.4144 0.3069
H7 H 0.9475 0.0710 -0.0879
H8 H 0.8887 0.0249 -0.1863
H9 H 0.8461 -0.0280 -0.0664
H10 H 0.6870 -0.0662 -0.1553
H11 H 0.2706 0.0263 -0.1647
H12 H 0.2903 0.2011 -0.0995
H13 H 0.2010 0.3648 0.1655
H14 H 0.0873 0.2087 0.2279
H15 H -0.1126 0.1655 0.1609
H16 H -0.2114 0.2881 0.0457
N1A N -0.1291(5) 0.4806(4) -0.0304(4)
C17A C -0.0621(6) 0.5725(5) -0.0661(5)
C18A C -0.1179(6) 0.6492(5) -0.1409(5)
C19A C -0.0515(6) 0.7421(5) -0.1766(5)
C20A C 0.0714(6) 0.7669(5) -0.1383(5)
C21A C 0.1294(6) 0.6949(5) -0.0702(5)
C22A C 0.0677(6) 0.5927(5) -0.0347(5)
H13A H -0.2010 0.6352 -0.1655
H14A H -0.0873 0.7913 -0.2279
H15A H 0.1126 0.8345 -0.1609
H16A H 0.2114 0.7119 -0.0457
Rh1A Rh -0.37222(4) 0.48962(3) -0.01601(3)
Cl1A Cl -0.5037(3) 0.71391(17) -0.66204(14)
Cl2A Cl -0.46352(18) 1.16750(13) 0.21039(15)
O1A O -0.3711(4) 0.5272(4) -0.1757(3)
O2A O -0.6112(4) 0.5487(3) -0.1456(3)
O3A O -0.2333(5) 0.5973(4) -0.3616(4)
O4A O -0.3815(4) 0.6538(3) 0.0230(3)
O5A O -0.6220(4) 0.6731(3) 0.0554(3)
O6A O -0.7430(5) 0.8776(4) 0.0847(4)
C1A C -0.4874(6) 0.5511(5) -0.2066(5)
C2A C -0.4849(6) 0.5875(5) -0.3215(5)
C3A C -0.3600(7) 0.6129(6) -0.3959(5)
C4A C -0.1108(7) 0.6346(7) -0.4340(6)
C5A C -0.3692(7) 0.6519(6) -0.5003(5)
C6A C -0.4981(7) 0.6656(6) -0.5305(5)
C7A C -0.6245(7) 0.6408(6) -0.4597(5)
C8A C -0.6146(7) 0.6025(6) -0.3563(5)
C9A C -0.5028(6) 0.7090(5) 0.0532(5)
C10A C -0.5005(6) 0.8247(5) 0.0896(5)
C11A C -0.6184(6) 0.9054(5) 0.1076(5)
C12A C -0.8661(7) 0.9589(6) 0.1082(6)
C13A C -0.6069(7) 1.0112(5) 0.1441(5)
C14A C -0.4766(7) 1.0360(5) 0.1642(5)
C15A C -0.3582(7) 0.9567(5) 0.1492(5)
C16A C -0.3712(6) 0.8531(5) 0.1114(5)
H1A H -0.0932 0.5942 -0.5027
H2A H -0.1279 0.7152 -0.4483
H3A H -0.0274 0.6199 -0.4003
H4A H -0.2857 0.6689 -0.5506
H5A H -0.7133 0.6500 -0.4822
H6A H -0.6989 0.5856 -0.3069
H7A H -0.9475 0.9290 0.0879
H8A H -0.8887 0.9751 0.1863
H9A H -0.8461 1.0280 0.0664
H10A H -0.6870 1.0662 0.1553
H11A H -0.2706 0.9737 0.1647
H12A H -0.2903 0.7989 0.0995
Rh1_2 Rh -0.62778(4) 0.51038(3) 0.01601(3)
Rh1A_2 Rh 0.62778(4) 0.48962(3) -0.01601(3)
O2_2 O -0.3888(4) 0.4513(3) 0.1456(3)
O2A_2 O 0.3888(4) 0.5487(3) -0.1456(3)
O5_2 O -0.3780(4) 0.3269(3) -0.0554(3)
O5A_2 O 0.3780(4) 0.6731(3) 0.0554(3)
Cl3 Cl 0.8929(3) 0.2338(2) -0.34889(16)
Cl4 Cl 1.08323(19) 0.3403(3) -0.24145(16)
C23 C 0.9040(8) 0.3294(7) -0.2490(6)
H17 H 0.8511 0.3047 -0.1772
H18 H 0.8588 0.4040 -0.2665
Cl5 Cl 0.8767(4) 0.0771(4) -0.5989(3)
Cl6 Cl 0.6851(7) -0.0579(5) -0.4609(8)
C24 C 0.706(3) 0.0491(18) -0.546(3)
H19 H 0.6531 0.1169 -0.5087
H20 H 0.6600 0.0357 -0.6080
loop_
_geom_bond_atom_site_label_1
_geom_bond_atom_site_label_2
_geom_bond_site_symmetry_1
_geom_bond_site_symmetry_2
Rh1 O1 1_555 1_555
Cl1 C6 1_555 1_555
Cl2 C14 1_555 1_555
O1 C1 1_555 1_555
O2 C1 1_555 1_555
O3 C3 1_555 1_555
O4 Rh1 1_555 1_555
O5 C9 1_555 1_555
O6 C11 1_555 1_555
N1 Rh1 1_555 1_555
C1 C2 1_555 1_555
C2 C3 1_555 1_555
C3 C5 1_555 1_555
C4 O3 1_555 1_555
C5 C6 1_555 1_555
C6 C7 1_555 1_555
C7 C8 1_555 1_555
C8 C2 1_555 1_555
C9 O4 1_555 1_555
C10 C9 1_555 1_555
C11 C10 1_555 1_555
C12 O6 1_555 1_555
C13 C11 1_555 1_555
C14 C13 1_555 1_555
C15 C14 1_555 1_555
C16 C10 1_555 1_555
C17 N1 1_555 1_555
C18 C17 1_555 1_555
C19 C18 1_555 1_555
C20 C19 1_555 1_555
C21 C20 1_555 1_555
C22 C17 1_555 1_555
H1 C4 1_555 1_555
H2 C4 1_555 1_555
H3 C4 1_555 1_555
H4 C5 1_555 1_555
H5 C7 1_555 1_555
H6 C8 1_555 1_555
H7 C12 1_555 1_555
H8 C12 1_555 1_555
H9 C12 1_555 1_555
H10 C13 1_555 1_555
H11 C15 1_555 1_555
H12 C16 1_555 1_555
H13 C18 1_555 1_555
H14 C19 1_555 1_555
H15 C20 1_555 1_555
H16 C21 1_555 1_555
Cl3 C23 1_555 1_555
Cl4 C23 1_555 1_555
C23 H17 1_555 1_555
H18 C23 1_555 1_555
Cl5 C24 1_555 1_555
Cl6 C24 1_555 1_555
C24 H19 1_555 1_555
H20 C24 1_555 1_555
N1A C22 1_555 1_555
C17A N1A 1_555 1_555
C18A C17A 1_555 1_555
C19A C18A 1_555 1_555
C20A C19A 1_555 1_555
C21A C20A 1_555 1_555
C22A N1 1_555 1_555
H13A C18A 1_555 1_555
H14A C19A 1_555 1_555
H15A C20A 1_555 1_555
H16A C21A 1_555 1_555
Rh1A N1A 1_555 1_555
Cl1A C6A 1_555 1_555
Cl2A C14A 1_555 1_555
O1A Rh1A 1_555 1_555
O2A C1A 1_555 1_555
O3A C3A 1_555 1_555
O4A Rh1A 1_555 1_555
O5A C9A 1_555 1_555
O6A C11A 1_555 1_555
C1A O1A 1_555 1_555
C2A C1A 1_555 1_555
C3A C2A 1_555 1_555
C4A O3A 1_555 1_555
C5A C3A 1_555 1_555
C6A C5A 1_555 1_555
C7A C6A 1_555 1_555
C8A C2A 1_555 1_555
C9A O4A 1_555 1_555
C10A C9A 1_555 1_555
C11A C10A 1_555 1_555
C12A O6A 1_555 1_555
C13A C11A 1_555 1_555
C14A C13A 1_555 1_555
C15A C14A 1_555 1_555
C16A C10A 1_555 1_555
H1A C4A 1_555 1_555
H2A C4A 1_555 1_555
H3A C4A 1_555 1_555
H4A C5A 1_555 1_555
H5A C7A 1_555 1_555
H6A C8A 1_555 1_555
H7A C12A 1_555 1_555
H8A C12A 1_555 1_555
H9A C12A 1_555 1_555
H10A C13A 1_555 1_555
H11A C15A 1_555 1_555
H12A C16A 1_555 1_555
Rh1_2 Rh1A 1_555 1_555
Rh1A_2 Rh1 1_555 1_555
O2_2 Rh1A 1_555 1_555
O2A_2 Rh1 1_555 1_555
O5_2 Rh1A 1_555 1_555
O5A_2 Rh1 1_555 1_555
O2 Rh1A_2 1_555 1_555
O5 Rh1A_2 1_555 1_555
C15 C16 1_555 1_555
C21 C22 1_555 1_555
C17A C22A 1_555 1_555
C21A C22A 1_555 1_555
O2A Rh1_2 1_555 1_555
O5A Rh1_2 1_555 1_555
C7A C8A 1_555 1_555
C15A C16A 1_555 1_555

#END
