
#######################################################################
#
#                 Cambridge Crystallographic Data Centre
#                                CCDC 
#
#######################################################################
#
# If this CIF has been generated from an entry in the Cambridge 
# Structural Database, then it will include bibliographic, chemical, 
# crystal, experimental, refinement or atomic coordinate data resulting 
# from the CCDC's data processing and validation procedures.
#
#######################################################################

data_LOCZIO
_symmetry_cell_setting           monoclinic
_symmetry_space_group_name_H-M   'C 2/c'
_symmetry_Int_Tables_number      15
_space_group_name_Hall           '-C 2yn'
loop_
_symmetry_equiv_pos_site_id
_symmetry_equiv_pos_as_xyz
1 x,y,z
2 -x,y,1/2-z
3 1/2+x,1/2+y,z
4 1/2-x,1/2+y,1/2-z
5 -x,-y,-z
6 x,-y,1/2+z
7 1/2-x,1/2-y,-z
8 1/2+x,1/2-y,1/2+z
_cell_length_a                   15.8979(12)
_cell_length_b                   15.7892(12)
_cell_length_c                   20.3288(16)
_cell_angle_alpha                90
_cell_angle_beta                 106.324(8)
_cell_angle_gamma                90
_cell_volume                     4897.13
loop_
_atom_site_label
_atom_site_type_symbol
_atom_site_fract_x
_atom_site_fract_y
_atom_site_fract_z
O7 O 0.0000 0.6363(10) 0.2500
O8 O 0.2832(12) 0.8644(8) 0.1045(6)
O9 O 0.0393(13) 0.6217(14) 0.1165(12)
O10 O 0.2428(16) 0.6927(9) 0.0999(7)
O11 O 0.139(2) 0.878(2) 0.9921(14)
C17 C 0.5374(14) 0.9163(16) 0.4324(11)
O12 O 0.4799(18) 0.9621(17) 0.4584(11)
O13 O 0.5703(18) 0.772(2) 0.5148(15)
C18 C 0.6205(16) 0.8500(18) 0.4754(12)
Ni1 Ni 0.21744(11) 0.05982(10) 0.22301(9)
S1 S -0.1106(2) -0.2183(2) 0.13621(19)
S2 S -0.2250(2) -0.1577(2) 0.0932(2)
O1 O 0.2159(6) 0.2736(6) 0.2311(5)
O2 O 0.1335(5) 0.1568(6) 0.2223(5)
O3 O 0.1957(5) 0.4608(5) 0.2741(5)
O4 O 0.1360(6) 0.4455(6) 0.1613(5)
O5 O 0.3251(6) 0.1445(6) 0.2567(5)
O6 O 0.2240(6) 0.0431(6) 0.3266(5)
N1 N 0.1110(7) -0.0229(7) 0.1944(6)
N2 N -0.2196(8) -0.0860(7) -0.1229(6)
C1 C 0.0259(9) 0.0024(9) 0.1728(7)
H1 H 0.0149 0.0603 0.1708
C2 C -0.0446(9) -0.0508(9) 0.1538(7)
H2 H -0.1014 -0.0296 0.1391
C3 C -0.0292(9) -0.1374(9) 0.1569(7)
C4 C 0.0586(10) -0.1650(9) 0.1803(8)
H3 H 0.0717 -0.2225 0.1833
C5 C -0.2184(9) -0.1327(9) 0.0095(7)
C6 C 0.0000 0.4178(12) 0.2500
H4 H 0.0000 0.4767 0.2500
C7 C 0.0703(8) 0.3750(8) 0.2367(6)
C8 C 0.0706(8) 0.2875(8) 0.2382(6)
C9 C 0.0000 0.2456(12) 0.2500
H5 H 0.0000 0.1867 0.2500
C10 C 0.1464(9) 0.2346(10) 0.2295(7)
C11 C 0.1224(10) -0.1078(10) 0.1981(8)
H6 H 0.1795 -0.1278 0.2145
C12 C -0.1457(10) -0.1445(10) -0.0132(8)
H7 H -0.0951 -0.1686 0.0153
C13 C -0.2896(10) -0.0760(9) -0.1002(8)
H8 H -0.3401 -0.0536 -0.1300
C14 C -0.1488(10) -0.1201(10) -0.0793(8)
H9 H -0.0990 -0.1278 -0.0941
C15 C -0.2915(10) -0.0971(10) -0.0350(8)
H10 H -0.3416 -0.0873 -0.0211
C16 C 0.1399(9) 0.4298(8) 0.2228(7)
O1A O -0.2159(6) 0.2736(6) 0.2689(5)
O2A O -0.1335(5) 0.1568(6) 0.2777(5)
C7A C -0.0703(8) 0.3750(8) 0.2633(6)
C8A C -0.0706(8) 0.2875(8) 0.2618(6)
C10A C -0.1464(9) 0.2346(10) 0.2705(7)
O3A O -0.1957(5) 0.4608(5) 0.2259(5)
O4A O -0.1360(6) 0.4455(6) 0.3387(5)
C16A C -0.1399(9) 0.4298(8) 0.2772(7)
Ni1A Ni -0.21744(11) 0.05982(10) 0.27699(9)
S1A S 0.1106(2) -0.2183(2) 0.36379(19)
S2A S 0.2250(2) -0.1577(2) 0.4068(2)
O5A O -0.3251(6) 0.1445(6) 0.2433(5)
O6A O -0.2240(6) 0.0431(6) 0.1734(5)
N1A N -0.1110(7) -0.0229(7) 0.3056(6)
N2A N 0.2196(8) -0.0860(7) 0.6229(6)
C1A C -0.0259(9) 0.0024(9) 0.3272(7)
H1A H -0.0149 0.0603 0.3292
C2A C 0.0446(9) -0.0508(9) 0.3462(7)
H2A H 0.1014 -0.0296 0.3609
C3A C 0.0292(9) -0.1374(9) 0.3431(7)
C4A C -0.0586(10) -0.1650(9) 0.3197(8)
H3A H -0.0717 -0.2225 0.3167
C5A C 0.2184(9) -0.1327(9) 0.4905(7)
C11A C -0.1224(10) -0.1078(10) 0.3019(8)
H6A H -0.1795 -0.1278 0.2855
C12A C 0.1457(10) -0.1445(10) 0.5132(8)
H7A H 0.0951 -0.1686 0.4847
C13A C 0.2896(10) -0.0760(9) 0.6002(8)
H8A H 0.3401 -0.0536 0.6300
C14A C 0.1488(10) -0.1201(10) 0.5793(8)
H9A H 0.0990 -0.1278 0.5941
C15A C 0.2915(10) -0.0971(10) 0.5350(8)
H10A H 0.3416 -0.0873 0.5211
Ni1B Ni -0.28256(11) 0.55982(10) 0.22301(9)
Ni1C Ni 0.28256(11) 0.55982(10) 0.27699(9)
Ni1D Ni -0.21744(11) -0.05982(10) -0.22301(9)
Ni1E Ni 0.21744(11) -0.05982(10) 0.72301(9)
O3B O -0.3043(5) -0.0392(5) 0.2741(5)
O3C O 0.3043(5) -0.0392(5) 0.2259(5)
N2D N 0.2196(8) 0.0860(7) 0.1229(6)
N2E N -0.2196(8) 0.0860(7) 0.3771(6)
loop_
_geom_bond_atom_site_label_1
_geom_bond_atom_site_label_2
_geom_bond_site_symmetry_1
_geom_bond_site_symmetry_2
Ni1 O2 1_555 1_555
S1 S2 1_555 1_555
S2 C5 1_555 1_555
O1 C10 1_555 1_555
O2 C10 1_555 1_555
O3 C16 1_555 1_555
O4 C16 1_555 1_555
O5 Ni1 1_555 1_555
O6 Ni1 1_555 1_555
N1 Ni1 1_555 1_555
N2 C13 1_555 1_555
C1 N1 1_555 1_555
H1 C1 1_555 1_555
C2 C1 1_555 1_555
H2 C2 1_555 1_555
C3 S1 1_555 1_555
C4 C3 1_555 1_555
H3 C4 1_555 1_555
C5 C12 1_555 1_555
C6 H4 1_555 1_555
C7 C6 1_555 1_555
C8 C7 1_555 1_555
C9 C8 1_555 1_555
H5 C9 1_555 1_555
C10 C8 1_555 1_555
C11 N1 1_555 1_555
H6 C11 1_555 1_555
C12 H7 1_555 1_555
C13 H8 1_555 1_555
C14 N2 1_555 1_555
H9 C14 1_555 1_555
C15 C5 1_555 1_555
H10 C15 1_555 1_555
C16 C7 1_555 1_555
C17 O12 1_555 1_555
O13 C18 1_555 1_555
C18 C17 1_555 1_555
O1A C10A 1_555 1_555
O2A C10A 1_555 1_555
C7A C6 1_555 1_555
C8A C9 1_555 1_555
C10A C8A 1_555 1_555
O3A C16A 1_555 1_555
O4A C16A 1_555 1_555
C16A C7A 1_555 1_555
Ni1A O2A 1_555 1_555
S1A S2A 1_555 1_555
S2A C5A 1_555 1_555
O5A Ni1A 1_555 1_555
O6A Ni1A 1_555 1_555
N1A Ni1A 1_555 1_555
N2A C13A 1_555 1_555
C1A N1A 1_555 1_555
H1A C1A 1_555 1_555
C2A C1A 1_555 1_555
H2A C2A 1_555 1_555
C3A S1A 1_555 1_555
C4A C3A 1_555 1_555
H3A C4A 1_555 1_555
C5A C12A 1_555 1_555
C11A N1A 1_555 1_555
H6A C11A 1_555 1_555
C12A H7A 1_555 1_555
C13A H8A 1_555 1_555
C14A N2A 1_555 1_555
H9A C14A 1_555 1_555
C15A C5A 1_555 1_555
H10A C15A 1_555 1_555
Ni1B O3A 1_555 1_555
Ni1C O3 1_555 1_555
Ni1D N2 1_555 1_555
Ni1E N2A 1_555 1_555
O3B Ni1A 1_555 1_555
O3C Ni1 1_555 1_555
N2D Ni1 1_555 1_555
N2E Ni1A 1_555 1_555
C2 C3 1_555 1_555
C4 C11 1_555 1_555
C12 C14 1_555 1_555
C13 C15 1_555 1_555
C7A C8A 1_555 1_555
C2A C3A 1_555 1_555
C4A C11A 1_555 1_555
C12A C14A 1_555 1_555
C13A C15A 1_555 1_555

#END
