
#######################################################################
#
#                 Cambridge Crystallographic Data Centre
#                                CCDC 
#
#######################################################################
#
# If this CIF has been generated from an entry in the Cambridge 
# Structural Database, then it will include bibliographic, chemical, 
# crystal, experimental, refinement or atomic coordinate data resulting 
# from the CCDC's data processing and validation procedures.
#
#######################################################################

data_LOJLAZ01
_symmetry_cell_setting           orthorhombic
_symmetry_space_group_name_H-M   'C m m a'
_symmetry_Int_Tables_number      67
_space_group_name_Hall           '-C 2a 2'
loop_
_symmetry_equiv_pos_site_id
_symmetry_equiv_pos_as_xyz
1 x,y,z
2 -x,1/2-y,z
3 -x,1/2+y,-z
4 x,-y,-z
5 1/2+x,1/2+y,z
6 1/2-x,-y,z
7 1/2-x,y,-z
8 1/2+x,1/2-y,-z
9 -x,-y,-z
10 x,1/2+y,-z
11 x,1/2-y,z
12 -x,y,z
13 1/2-x,1/2-y,-z
14 1/2+x,y,-z
15 1/2+x,-y,z
16 1/2-x,1/2+y,z
_cell_length_a                   11.9183(7)
_cell_length_b                   16.9983(8)
_cell_length_c                   15.4986(10)
_cell_angle_alpha                90
_cell_angle_beta                 90
_cell_angle_gamma                90
_cell_volume                     3139.87
loop_
_atom_site_label
_atom_site_type_symbol
_atom_site_fract_x
_atom_site_fract_y
_atom_site_fract_z
Au1 Au 0.7500 0.0000 0.39434(4)
Fe1 Fe 0.5000 0.2500 0.38594(12)
N1 N 0.6245(5) 0.1599(4) 0.3867(4)
C1 C 0.6714(7) 0.1028(5) 0.3900(5)
N2 N 0.5000 0.2500 0.2424(9)
N3 N 0.6002(10) 0.2500 -0.0727(8)
N4 N 0.5982(11) 0.2500 -0.1591(8)
N5 N 0.5000 0.2500 -0.4731(8)
C2 C 0.5934(11) 0.2500 0.1990(8)
H1 H 0.6605 0.2500 0.2296
C3 C 0.5984(12) 0.2500 0.1095(8)
H2 H 0.6671 0.2500 0.0811
C4 C 0.5000 0.2500 0.0638(11)
C5 C 0.5000 0.2500 -0.0311(14)
C6 C 0.5000 0.2500 -0.1949(14)
C7 C 0.5000 0.2500 -0.2924(13)
C8 C 0.5970(11) 0.2500 -0.3375(9)
H3 H 0.6658 0.2500 -0.3091
C9 C 0.5920(9) 0.2500 -0.4286(8)
H4 H 0.6595 0.2500 -0.4587
N3A N 0.3998(10) 0.2500 -0.0727(8)
N4A N 0.4018(11) 0.2500 -0.1591(8)
C2A C 0.4066(11) 0.2500 0.1990(8)
H1A H 0.3395 0.2500 0.2296
C3A C 0.4016(12) 0.2500 0.1095(8)
H2A H 0.3329 0.2500 0.0811
C8A C 0.4030(11) 0.2500 -0.3375(9)
H3A H 0.3342 0.2500 -0.3091
C9A C 0.4080(9) 0.2500 -0.4286(8)
H4A H 0.3405 0.2500 -0.4587
Au1A Au 0.2500 0.5000 0.39434(4)
N1A N 0.3755(5) 0.3401(4) 0.3867(4)
C1A C 0.3286(7) 0.3972(5) 0.3900(5)
N1J N 0.6245(5) 0.3401(4) 0.3867(4)
C1J C 0.6714(7) 0.3972(5) 0.3900(5)
N1K N 0.3755(5) 0.1599(4) 0.3867(4)
C1K C 0.3286(7) 0.1028(5) 0.3900(5)
Au1J Au 0.7500 0.5000 0.39434(4)
Au1K Au 0.2500 0.0000 0.39434(4)
Fe1_2 Fe 0.5000 0.2500 -0.61406(12)
C1D C 0.1714(7) 0.6028(5) 0.3900(5)
C1E C 0.8286(7) -0.1028(5) 0.3900(5)
N5_2 N 0.5000 0.2500 0.5269(8)
O1 O 0.5000 -0.002(4) 0.162(7)
loop_
_geom_bond_atom_site_label_1
_geom_bond_atom_site_label_2
_geom_bond_site_symmetry_1
_geom_bond_site_symmetry_2
Au1 C1 1_555 1_555
Fe1 N1 1_555 1_555
N1 C1 1_555 1_555
N2 Fe1 1_555 1_555
N3 N4 1_555 1_555
N4 C6 1_555 1_555
N5 C9 1_555 1_555
C2 N2 1_555 1_555
H1 C2 1_555 1_555
C3 C2 1_555 1_555
H2 C3 1_555 1_555
C4 C3 1_555 1_555
C5 N3 1_555 1_555
C6 C7 1_555 1_555
C7 C8 1_555 1_555
C8 H3 1_555 1_555
C9 C8 1_555 1_555
H4 C9 1_555 1_555
N3A C5 1_555 1_555
N4A C6 1_555 1_555
C2A N2 1_555 1_555
H1A C2A 1_555 1_555
C3A C4 1_555 1_555
H2A C3A 1_555 1_555
C8A C7 1_555 1_555
H3A C8A 1_555 1_555
C9A N5 1_555 1_555
H4A C9A 1_555 1_555
Au1A C1A 1_555 1_555
N1A Fe1 1_555 1_555
C1A N1A 1_555 1_555
N1J Fe1 1_555 1_555
C1J N1J 1_555 1_555
N1K Fe1 1_555 1_555
C1K N1K 1_555 1_555
Au1J C1J 1_555 1_555
Au1K C1K 1_555 1_555
Fe1_2 N5 1_555 1_555
C1D Au1A 1_555 1_555
C1E Au1 1_555 1_555
N5_2 Fe1 1_555 1_555
C4 C5 1_555 1_555
N3A N4A 1_555 1_555
C2A C3A 1_555 1_555
C8A C9A 1_555 1_555

#END
