
#######################################################################
#
#                 Cambridge Crystallographic Data Centre
#                                CCDC 
#
#######################################################################
#
# If this CIF has been generated from an entry in the Cambridge 
# Structural Database, then it will include bibliographic, chemical, 
# crystal, experimental, refinement or atomic coordinate data resulting 
# from the CCDC's data processing and validation procedures.
#
#######################################################################

data_LOJLAZ
_symmetry_cell_setting           orthorhombic
_symmetry_space_group_name_H-M   'C m m a'
_symmetry_Int_Tables_number      67
_space_group_name_Hall           '-C 2a 2'
loop_
_symmetry_equiv_pos_site_id
_symmetry_equiv_pos_as_xyz
1 x,y,z
2 -x,1/2-y,z
3 -x,1/2+y,-z
4 x,-y,-z
5 1/2+x,1/2+y,z
6 1/2-x,-y,z
7 1/2-x,y,-z
8 1/2+x,1/2-y,-z
9 -x,-y,-z
10 x,1/2+y,-z
11 x,1/2-y,z
12 -x,y,z
13 1/2-x,1/2-y,-z
14 1/2+x,y,-z
15 1/2+x,-y,z
16 1/2-x,1/2+y,z
_cell_length_a                   12.066(2)
_cell_length_b                   16.121(3)
_cell_length_c                   15.099(3)
_cell_angle_alpha                90
_cell_angle_beta                 90
_cell_angle_gamma                90
_cell_volume                     2937
loop_
_atom_site_label
_atom_site_type_symbol
_atom_site_fract_x
_atom_site_fract_y
_atom_site_fract_z
Au1 Au 0.7500 0.0000 0.392711(15)
Fe1 Fe 0.5000 0.2500 0.38450(8)
N1 N 0.6102(3) 0.1631(2) 0.3855(2)
C1 C 0.6640(4) 0.1042(3) 0.3891(3)
N2 N 0.5000 0.2500 0.2527(5)
N3 N 0.5987(5) 0.2500 -0.0722(4)
N4 N 0.5982(5) 0.2500 -0.1602(4)
N5 N 0.5000 0.2500 -0.4836(5)
C2 C 0.5950(5) 0.2500 0.2061(4)
H1 H 0.6629 0.2500 0.2380
C3 C 0.5995(5) 0.2500 0.1150(4)
H2 H 0.6689 0.2500 0.0852
C4 C 0.5000 0.2500 0.0670(6)
C5 C 0.5000 0.2500 -0.0311(7)
C6 C 0.5000 0.2500 -0.2002(7)
C7 C 0.5000 0.2500 -0.2994(7)
C8 C 0.5969(5) 0.2500 -0.3448(5)
H3 H 0.6655 0.2500 -0.3140
C9 C 0.5949(5) 0.2500 -0.4371(4)
H4 H 0.6633 0.2500 -0.4683
N3A N 0.4013(5) 0.2500 -0.0722(4)
N4A N 0.4018(5) 0.2500 -0.1602(4)
C2A C 0.4050(5) 0.2500 0.2061(4)
H1A H 0.3371 0.2500 0.2380
C3A C 0.4005(5) 0.2500 0.1150(4)
H2A H 0.3311 0.2500 0.0852
C8A C 0.4031(5) 0.2500 -0.3448(5)
H3A H 0.3345 0.2500 -0.3140
C9A C 0.4051(5) 0.2500 -0.4371(4)
H4A H 0.3367 0.2500 -0.4683
Au1A Au 0.2500 0.5000 0.392711(15)
N1A N 0.3898(3) 0.3369(2) 0.3855(2)
C1A C 0.3360(4) 0.3958(3) 0.3891(3)
N1J N 0.6102(3) 0.3369(2) 0.3855(2)
C1J C 0.6640(4) 0.3958(3) 0.3891(3)
N1K N 0.3898(3) 0.1631(2) 0.3855(2)
C1K C 0.3360(4) 0.1042(3) 0.3891(3)
Au1J Au 0.7500 0.5000 0.392711(15)
Au1K Au 0.2500 0.0000 0.392711(15)
Fe1_2 Fe 0.5000 0.2500 -0.61550(8)
C1D C 0.1640(4) 0.6042(3) 0.3891(3)
C1E C 0.8360(4) -0.1042(3) 0.3891(3)
N5_2 N 0.5000 0.2500 0.5164(5)
O1 O 0.5000 -0.0025(13) 0.196(3)
loop_
_geom_bond_atom_site_label_1
_geom_bond_atom_site_label_2
_geom_bond_site_symmetry_1
_geom_bond_site_symmetry_2
Au1 C1 1_555 1_555
Fe1 N1 1_555 1_555
N1 C1 1_555 1_555
N2 Fe1 1_555 1_555
N3 N4 1_555 1_555
N4 C6 1_555 1_555
N5 C9 1_555 1_555
C2 N2 1_555 1_555
H1 C2 1_555 1_555
C3 C2 1_555 1_555
H2 C3 1_555 1_555
C4 C3 1_555 1_555
C5 N3 1_555 1_555
C6 C7 1_555 1_555
C7 C8 1_555 1_555
C8 H3 1_555 1_555
C9 C8 1_555 1_555
H4 C9 1_555 1_555
N3A C5 1_555 1_555
N4A C6 1_555 1_555
C2A N2 1_555 1_555
H1A C2A 1_555 1_555
C3A C4 1_555 1_555
H2A C3A 1_555 1_555
C8A C7 1_555 1_555
H3A C8A 1_555 1_555
C9A N5 1_555 1_555
H4A C9A 1_555 1_555
Au1A C1A 1_555 1_555
N1A Fe1 1_555 1_555
C1A N1A 1_555 1_555
N1J Fe1 1_555 1_555
C1J N1J 1_555 1_555
N1K Fe1 1_555 1_555
C1K N1K 1_555 1_555
Au1J C1J 1_555 1_555
Au1K C1K 1_555 1_555
Fe1_2 N5 1_555 1_555
C1D Au1A 1_555 1_555
C1E Au1 1_555 1_555
N5_2 Fe1 1_555 1_555
C4 C5 1_555 1_555
N3A N4A 1_555 1_555
C2A C3A 1_555 1_555
C8A C9A 1_555 1_555

#END
