
#######################################################################
#
#                 Cambridge Crystallographic Data Centre
#                                CCDC 
#
#######################################################################
#
# If this CIF has been generated from an entry in the Cambridge 
# Structural Database, then it will include bibliographic, chemical, 
# crystal, experimental, refinement or atomic coordinate data resulting 
# from the CCDC's data processing and validation procedures.
#
#######################################################################

data_LOQLIN01
_symmetry_cell_setting           monoclinic
_symmetry_space_group_name_H-M   'C 2/c'
_symmetry_Int_Tables_number      15
_space_group_name_Hall           '-C 2yn'
loop_
_symmetry_equiv_pos_site_id
_symmetry_equiv_pos_as_xyz
1 x,y,z
2 -x,y,1/2-z
3 1/2+x,1/2+y,z
4 1/2-x,1/2+y,1/2-z
5 -x,-y,-z
6 x,-y,1/2+z
7 1/2-x,1/2-y,-z
8 1/2+x,1/2-y,1/2+z
_cell_length_a                   19.83305(23)
_cell_length_b                   6.85560(37)
_cell_length_c                   6.71427(16)
_cell_angle_alpha                90
_cell_angle_beta                 103.87516(93)
_cell_angle_gamma                90
_cell_volume                     886.284
loop_
_atom_site_label
_atom_site_type_symbol
_atom_site_fract_x
_atom_site_fract_y
_atom_site_fract_z
Ga1 Ga 0.0000 0.0000 0.0000
O1 O 0.0000 -0.1457(14) -0.25000
O2 O 0.086210 -0.146930 0.135890
O3 O 0.063620 -0.194380 0.433970
C1 C 0.180860 -0.218660 0.415060
C2 C 0.228300 -0.195470 0.298460
C3 C 0.202560 -0.273200 0.616610
C4 C 0.106640 -0.185030 0.323900
H1 H 0.212770 -0.156460 0.154290
H2 H 0.168620 -0.289790 0.700020
Ga1A Ga 0.0000 0.0000 -0.5000
Ga1A_2 Ga 0.0000 0.0000 0.5000
Ga1B Ga 0.5000 -0.5000 1.0000
Ga1C Ga 0.5000 -0.5000 0.5000
O1D O 0.0000 0.1457(14) 0.25000
O2F O 0.413790 -0.353070 0.864110
O2D O -0.086210 0.146930 -0.135890
O3F O 0.436380 -0.305620 0.566030
O3A O -0.063620 -0.194380 0.066030
O3E O 0.063620 0.194380 -0.066030
C1F C 0.319140 -0.281340 0.584940
C2F C 0.271700 -0.304530 0.701540
C3F C 0.297440 -0.226800 0.383390
C4F C 0.393360 -0.314970 0.676100
H1F H 0.287230 -0.343540 0.845710
H2F H 0.331380 -0.210210 0.299980
loop_
_geom_bond_atom_site_label_1
_geom_bond_atom_site_label_2
_geom_bond_site_symmetry_1
_geom_bond_site_symmetry_2
Ga1 O1 1_555 1_555
O1 Ga1A 1_555 1_555
O2 Ga1 1_555 1_555
O3 C4 1_555 1_555
C1 C2 1_555 1_555
C2 H1 1_555 1_555
C3 C1 1_555 1_555
C4 O2 1_555 1_555
H2 C3 1_555 1_555
Ga1A_2 O3 1_555 1_555
Ga1B O2F 1_555 1_555
Ga1C O3F 1_555 1_555
O1D Ga1 1_555 1_555
O2F C4F 1_555 1_555
O2D Ga1 1_555 1_555
O3F C4F 1_555 1_555
O3A Ga1 1_555 1_555
O3E Ga1 1_555 1_555
C1F C2F 1_555 1_555
C2F C3 1_555 1_555
C3F C2 1_555 1_555
C4F C1F 1_555 1_555
H1F C2F 1_555 1_555
H2F C3F 1_555 1_555
C1 C4 1_555 1_555
Ga1A_2 O1D 1_555 1_555
C1F C3F 1_555 1_555

#END
