
#######################################################################
#
#                 Cambridge Crystallographic Data Centre
#                                CCDC 
#
#######################################################################
#
# If this CIF has been generated from an entry in the Cambridge 
# Structural Database, then it will include bibliographic, chemical, 
# crystal, experimental, refinement or atomic coordinate data resulting 
# from the CCDC's data processing and validation procedures.
#
#######################################################################

data_LOQLIN
_symmetry_cell_setting           orthorhombic
_symmetry_space_group_name_H-M   'C m c m'
_symmetry_Int_Tables_number      63
_space_group_name_Hall           '-C 2n 2'
loop_
_symmetry_equiv_pos_site_id
_symmetry_equiv_pos_as_xyz
1 x,y,z
2 1/2+x,1/2+y,z
3 x,-y,-z
4 1/2-x,1/2+y,1/2-z
5 -x,-y,1/2+z
6 1/2-x,1/2-y,1/2+z
7 1/2+x,1/2-y,-z
8 -x,y,1/2-z
9 -x,-y,-z
10 1/2-x,1/2-y,-z
11 -x,y,z
12 1/2+x,1/2-y,1/2+z
13 x,y,1/2-z
14 1/2+x,1/2+y,1/2-z
15 1/2-x,1/2+y,z
16 x,-y,1/2+z
_cell_length_a                   21.176(4)
_cell_length_b                   36.703(8)
_cell_length_c                   6.7423(4)
_cell_angle_alpha                90
_cell_angle_beta                 90
_cell_angle_gamma                90
_cell_volume                     5240.27
loop_
_atom_site_label
_atom_site_type_symbol
_atom_site_fract_x
_atom_site_fract_y
_atom_site_fract_z
Ga1 Ga 0.25000 0.25000 0.50000
O1 O 0.2730(12) 0.22700(51) 0.25000
O2 O 0.166464 0.265266 0.410558
O3 O 0.265468 0.299409 0.410558
C1 C 0.136949 0.265266 0.25000
C2 C 0.281215 0.313812 0.25000
C3 C 0.066113 0.265266 0.25000
C4 C 0.319006 0.348378 0.25000
C5 C 0.033057 0.265266 0.429825
C6 C 0.336642 0.364509 0.429825
H1 H 0.056196 0.265266 0.555702
H2 H 0.324297 0.353217 0.555702
C7 C 0.371914 0.396771 0.429825
H3 H 0.384259 0.408062 0.555702
C8 C 0.389550 0.412902 0.25000
C9 C 0.427341 0.447468 0.25000
O4 O 0.443087 0.461871 0.410558
Ga2 Ga 0.50000 0.50000 0.50000
O5 O 0.50000 0.52563(80) 0.25000
O2J O -0.166464 0.265266 0.410558
C1G C -0.136949 0.265266 0.25000
C3G C -0.066113 0.265266 0.25000
C5J C -0.033057 0.265266 0.429825
H1J H -0.056196 0.265266 0.555702
O2L O 0.166464 0.265266 0.089442
C5L C 0.033057 0.265266 0.070175
H1L H 0.056196 0.265266 -0.055702
O2G O -0.166464 0.265266 0.089442
C5G C -0.033057 0.265266 0.070175
H1G H -0.056196 0.265266 -0.055702
O3L O 0.265468 0.299409 0.089442
C6L C 0.336642 0.364509 0.070175
H2L H 0.324297 0.353217 -0.055702
C7L C 0.371914 0.396771 0.070175
H3L H 0.384259 0.408062 -0.055702
O4L O 0.443087 0.461871 0.089442
O3J O 0.734532 0.299409 0.410558
C2G C 0.718785 0.313812 0.25000
C4G C 0.680994 0.348378 0.25000
C6J C 0.663358 0.364509 0.429825
H2J H 0.675703 0.353217 0.555702
C7J C 0.628086 0.396771 0.429825
H3J H 0.615741 0.408062 0.555702
C8G C 0.610450 0.412902 0.25000
C9G C 0.572659 0.447468 0.25000
O4J O 0.556913 0.461871 0.410558
O3G O 0.734532 0.299409 0.089442
C6G C 0.663358 0.364509 0.070175
H2G H 0.675703 0.353217 -0.055702
C7G C 0.628086 0.396771 0.070175
H3G H 0.615741 0.408062 -0.055702
O4G O 0.556913 0.461871 0.089442
Ga1E Ga 0.25000 0.25000 0.00000
O1E O 0.2270(12) 0.27300(51) 0.75000
Ga1E_2 Ga 0.25000 0.25000 1.00000
Ga1F Ga -0.25000 0.25000 0.50000
Ga1F_2 Ga 0.75000 0.25000 0.50000
Ga1G Ga -0.25000 0.25000 0.00000
Ga1G_2 Ga 0.75000 0.25000 0.00000
O1E_2 O 0.2270(12) 0.27300(51) -0.25000
O2E O 0.333536 0.234734 -0.089442
O2I O 0.333536 0.234734 0.589442
O3E O 0.234532 0.200591 -0.089442
O3I O 0.234532 0.200591 0.589442
O4B O 0.443087 0.538129 0.589442
O4H O 0.556913 0.538129 0.589442
Ga2D Ga 0.50000 0.50000 0.00000
O5B O 0.50000 0.47437(80) 0.75000
loop_
_geom_bond_atom_site_label_1
_geom_bond_atom_site_label_2
_geom_bond_site_symmetry_1
_geom_bond_site_symmetry_2
Ga1 O1 1_555 1_555
O1 Ga1E 1_555 1_555
O2 Ga1 1_555 1_555
O3 Ga1 1_555 1_555
C1 O2 1_555 1_555
C2 O3 1_555 1_555
C3 C1 1_555 1_555
C4 C2 1_555 1_555
C5 C3 1_555 1_555
C6 C4 1_555 1_555
H1 C5 1_555 1_555
H2 C6 1_555 1_555
C7 C6 1_555 1_555
H3 C7 1_555 1_555
C8 C7 1_555 1_555
C9 C8 1_555 1_555
O4 C9 1_555 1_555
Ga2 O4 1_555 1_555
O5 Ga2 1_555 1_555
O2J C1G 1_555 1_555
C1G C3G 1_555 1_555
C3G C5J 1_555 1_555
C5J C5 1_555 1_555
H1J C5J 1_555 1_555
O2L C1 1_555 1_555
C5L C3 1_555 1_555
H1L C5L 1_555 1_555
O2G C1G 1_555 1_555
C5G C3G 1_555 1_555
H1G C5G 1_555 1_555
O3L C2 1_555 1_555
C6L C4 1_555 1_555
H2L C6L 1_555 1_555
C7L C8 1_555 1_555
H3L C7L 1_555 1_555
O4L C9 1_555 1_555
O3J C2G 1_555 1_555
C2G C4G 1_555 1_555
C4G C6J 1_555 1_555
C6J H2J 1_555 1_555
C7J C6J 1_555 1_555
H3J C7J 1_555 1_555
C8G C7J 1_555 1_555
C9G C8G 1_555 1_555
O4J Ga2 1_555 1_555
O3G C2G 1_555 1_555
C6G C4G 1_555 1_555
H2G C6G 1_555 1_555
C7G C8G 1_555 1_555
H3G C7G 1_555 1_555
O4G C9G 1_555 1_555
Ga1E O2L 1_555 1_555
O1E Ga1 1_555 1_555
Ga1E_2 O1E 1_555 1_555
Ga1F O2J 1_555 1_555
Ga1F_2 O3J 1_555 1_555
Ga1G O2G 1_555 1_555
Ga1G_2 O3G 1_555 1_555
O1E_2 Ga1E 1_555 1_555
O2E Ga1E 1_555 1_555
O2I Ga1 1_555 1_555
O3E Ga1E 1_555 1_555
O3I Ga1 1_555 1_555
O4B Ga2 1_555 1_555
O4H Ga2 1_555 1_555
Ga2D O5 1_555 1_555
O5B Ga2 1_555 1_555
C5L C5G 1_555 1_555
O3L Ga1E 1_555 1_555
C6L C7L 1_555 1_555
O4L Ga2D 1_555 1_555
C9G O4J 1_555 1_555
C6G C7G 1_555 1_555
O4G Ga2D 1_555 1_555

#END
