
#######################################################################
#
#                 Cambridge Crystallographic Data Centre
#                                CCDC 
#
#######################################################################
#
# If this CIF has been generated from an entry in the Cambridge 
# Structural Database, then it will include bibliographic, chemical, 
# crystal, experimental, refinement or atomic coordinate data resulting 
# from the CCDC's data processing and validation procedures.
#
#######################################################################

data_LOWKUF
_symmetry_cell_setting           cubic
_symmetry_space_group_name_H-M   'P a -3'
_symmetry_Int_Tables_number      205
_space_group_name_Hall           '-P 2ac 2ab 3'
loop_
_symmetry_equiv_pos_site_id
_symmetry_equiv_pos_as_xyz
1 x,y,z
2 1/2-x,-y,1/2+z
3 -x,1/2+y,1/2-z
4 1/2+x,1/2-y,-z
5 z,x,y
6 1/2+z,1/2-x,-y
7 1/2-z,-x,1/2+y
8 -z,1/2+x,1/2-y
9 y,z,x
10 -y,1/2+z,1/2-x
11 1/2+y,1/2-z,-x
12 1/2-y,-z,1/2+x
13 -x,-y,-z
14 1/2+x,y,1/2-z
15 x,1/2-y,1/2+z
16 1/2-x,1/2+y,z
17 -z,-x,-y
18 1/2-z,1/2+x,y
19 1/2+z,x,1/2-y
20 z,1/2-x,1/2+y
21 -y,-z,-x
22 y,1/2-z,1/2+x
23 1/2-y,1/2+z,x
24 1/2+y,z,1/2-x
_cell_length_a                   20.0770(2)
_cell_length_b                   20.0770(2)
_cell_length_c                   20.0770(2)
_cell_angle_alpha                90
_cell_angle_beta                 90
_cell_angle_gamma                90
_cell_volume                     8092.76
loop_
_atom_site_label
_atom_site_type_symbol
_atom_site_fract_x
_atom_site_fract_y
_atom_site_fract_z
Zn1 Zn 0.25274(4) 0.27345(4) 0.14823(4)
N1 N 0.2185(3) 0.3524(3) 0.1970(3)
O1 O 0.2038(2) 0.2038(2) 0.2038(2)
O2 O 0.2411(3) 0.5580(3) 0.2187(3)
N2 N 0.1731(4) 0.3441(3) 0.2461(3)
C1 C 0.1966(4) 0.4524(4) 0.2393(4)
O3 O 0.1624(4) 0.5510(3) 0.2937(4)
C2 C 0.1592(4) 0.4046(4) 0.2717(4)
H1 H 0.1290 0.4129 0.3059
C3 C 0.1985(5) 0.5245(4) 0.2527(4)
C4 C 0.2330(4) 0.4171(4) 0.1920(4)
H2 H 0.2627 0.4356 0.1618
Zn1D Zn 0.14823(4) 0.25274(4) 0.27345(4)
N1D N 0.1970(3) 0.2185(3) 0.3524(3)
O2D O 0.2187(3) 0.2411(3) 0.5580(3)
N2D N 0.2461(3) 0.1731(4) 0.3441(3)
C1D C 0.2393(4) 0.1966(4) 0.4524(4)
O3D O 0.2937(4) 0.1624(4) 0.5510(3)
C2D C 0.2717(4) 0.1592(4) 0.4046(4)
H1D H 0.3059 0.1290 0.4129
C3D C 0.2527(4) 0.1985(5) 0.5245(4)
C4D C 0.1920(4) 0.2330(4) 0.4171(4)
H2D H 0.1618 0.2627 0.4356
Zn1H Zn 0.27345(4) 0.14823(4) 0.25274(4)
N1H N 0.3524(3) 0.1970(3) 0.2185(3)
O2H O 0.5580(3) 0.2187(3) 0.2411(3)
N2H N 0.3441(3) 0.2461(3) 0.1731(4)
C1H C 0.4524(4) 0.2393(4) 0.1966(4)
O3H O 0.5510(3) 0.2937(4) 0.1624(4)
C2H C 0.4046(4) 0.2717(4) 0.1592(4)
H1H H 0.4129 0.3059 0.1290
C3H C 0.5245(4) 0.2527(4) 0.1985(5)
C4H C 0.4171(4) 0.1920(4) 0.2330(4)
H2H H 0.4356 0.1618 0.2627
Zn1N Zn 0.25274(4) 0.22655(4) 0.64823(4)
Zn1R Zn 0.64823(4) 0.25274(4) 0.22655(4)
Zn1V Zn 0.22655(4) 0.64823(4) 0.25274(4)
O2O O 0.2589(3) 0.0580(3) 0.2187(3)
O2S O 0.2187(3) 0.2589(3) 0.0580(3)
O2W O 0.0580(3) 0.2187(3) 0.2589(3)
O3O O 0.3376(4) 0.0510(3) 0.2937(4)
O3S O 0.2937(4) 0.3376(4) 0.0510(3)
O3W O 0.0510(3) 0.2937(4) 0.3376(4)
loop_
_geom_bond_atom_site_label_1
_geom_bond_atom_site_label_2
_geom_bond_site_symmetry_1
_geom_bond_site_symmetry_2
Zn1 N1 1_555 1_555
N1 N2 1_555 1_555
O1 Zn1 1_555 1_555
O2 C3 1_555 1_555
N2 C2 1_555 1_555
C1 C2 1_555 1_555
O3 C3 1_555 1_555
C2 H1 1_555 1_555
C3 C1 1_555 1_555
C4 N1 1_555 1_555
H2 C4 1_555 1_555
Zn1D O1 1_555 1_555
N1D Zn1D 1_555 1_555
O2D C3D 1_555 1_555
N2D N1D 1_555 1_555
C1D C2D 1_555 1_555
O3D C3D 1_555 1_555
C2D N2D 1_555 1_555
H1D C2D 1_555 1_555
C3D C1D 1_555 1_555
C4D N1D 1_555 1_555
H2D C4D 1_555 1_555
Zn1H O1 1_555 1_555
N1H Zn1H 1_555 1_555
O2H C3H 1_555 1_555
N2H Zn1 1_555 1_555
C1H C2H 1_555 1_555
O3H C3H 1_555 1_555
C2H N2H 1_555 1_555
H1H C2H 1_555 1_555
C3H C1H 1_555 1_555
C4H N1H 1_555 1_555
H2H C4H 1_555 1_555
Zn1N O2D 1_555 1_555
Zn1R O2H 1_555 1_555
Zn1V O2 1_555 1_555
O2O Zn1H 1_555 1_555
O2S Zn1 1_555 1_555
O2W Zn1D 1_555 1_555
O3O Zn1H 1_555 1_555
O3S Zn1 1_555 1_555
O3W Zn1D 1_555 1_555
N2 Zn1D 1_555 1_555
C1 C4 1_555 1_555
O3 Zn1V 1_555 1_555
N2D Zn1H 1_555 1_555
C1D C4D 1_555 1_555
O3D Zn1N 1_555 1_555
N1H N2H 1_555 1_555
C1H C4H 1_555 1_555
O3H Zn1R 1_555 1_555

#END
