
#######################################################################
#
#                 Cambridge Crystallographic Data Centre
#                                CCDC 
#
#######################################################################
#
# If this CIF has been generated from an entry in the Cambridge 
# Structural Database, then it will include bibliographic, chemical, 
# crystal, experimental, refinement or atomic coordinate data resulting 
# from the CCDC's data processing and validation procedures.
#
#######################################################################

data_LUCDOE
_symmetry_cell_setting           rhombohedral
_symmetry_space_group_name_H-M   'R 3 2'
_symmetry_Int_Tables_number      155
_space_group_name_Hall           'R 3 2"'
loop_
_symmetry_equiv_pos_site_id
_symmetry_equiv_pos_as_xyz
1 x,y,z
2 -y,x-y,z
3 -x+y,-x,z
4 y,x,-z
5 -x,-x+y,-z
6 x-y,-y,-z
7 2/3+x,1/3+y,1/3+z
8 2/3-y,1/3+x-y,1/3+z
9 2/3-x+y,1/3-x,1/3+z
10 2/3+y,1/3+x,1/3-z
11 2/3-x,1/3-x+y,1/3-z
12 2/3+x-y,1/3-y,1/3-z
13 1/3+x,2/3+y,2/3+z
14 1/3-y,2/3+x-y,2/3+z
15 1/3-x+y,2/3-x,2/3+z
16 1/3+y,2/3+x,2/3-z
17 1/3-x,2/3-x+y,2/3-z
18 1/3+x-y,2/3-y,2/3-z
_cell_length_a                   23.2738(11)
_cell_length_b                   23.2738(11)
_cell_length_c                   33.9318(14)
_cell_angle_alpha                90
_cell_angle_beta                 90
_cell_angle_gamma                120
_cell_volume                     15917.4
loop_
_atom_site_label
_atom_site_type_symbol
_atom_site_fract_x
_atom_site_fract_y
_atom_site_fract_z
C1 C 0.5295(3) 0.2335(3) -0.05229(17)
C2 C 0.4900(3) 0.1868(3) -0.02245(16)
C3 C 0.5220(3) 0.1755(3) 0.00869(16)
H1 H 0.5680 0.1964 0.0092
C4 C 0.4850(3) 0.1330(2) 0.03908(16)
H2 H 0.5064 0.1254 0.0599
C5 C 0.4162(3) 0.1017(3) 0.03834(16)
C6 C 0.3843(3) 0.1129(3) 0.00721(16)
H3 H 0.3382 0.0920 0.0067
C7 C 0.4212(3) 0.1555(2) -0.02318(15)
H4 H 0.3998 0.1630 -0.0440
C8 C 0.4544(3) -0.1164(3) 0.13436(16)
C9 C 0.4442(3) -0.0668(3) 0.11857(16)
C10 C 0.4428(3) -0.0614(3) 0.07784(16)
H5 H 0.4547 -0.0860 0.0617
C11 C 0.4235(3) -0.0191(3) 0.06119(16)
H6 H 0.4225 -0.0154 0.0339
C12 C 0.4056(3) 0.0178(3) 0.08528(16)
C13 C 0.4071(3) 0.0123(3) 0.12601(15)
H7 H 0.3951 0.0370 0.1421
C14 C 0.4263(3) -0.0300(3) 0.14266(16)
H8 H 0.4273 -0.0337 0.1699
C15 C 0.1428(3) 0.0291(3) 0.13370(16)
C16 C 0.2072(3) 0.0367(3) 0.11769(16)
C17 C 0.2112(3) -0.0189(3) 0.10699(16)
H9 H 0.1750 -0.0611 0.1110
C18 C 0.2691(2) -0.0113(3) 0.09030(16)
H10 H 0.2717 -0.0485 0.0831
C19 C 0.3231(3) 0.0518(3) 0.08432(17)
C20 C 0.3191(3) 0.1074(3) 0.09503(17)
H11 H 0.3552 0.1496 0.0910
C21 C 0.2612(2) 0.0999(3) 0.11171(15)
H12 H 0.2585 0.1370 0.1189
C22 C 0.1173(3) 0.1277(3) 0.24958(16)
C23 C 0.1715(3) 0.1855(3) 0.27115(17)
C24 C 0.1899(3) 0.1732(3) 0.30775(16)
H13 H 0.1672 0.1308 0.3186
C25 C 0.2424(3) 0.2242(3) 0.32820(17)
H14 H 0.2547 0.2160 0.3527
C26 C 0.2764(3) 0.2875(3) 0.31205(18)
C27 C 0.2579(3) 0.2998(3) 0.27545(16)
H15 H 0.2806 0.3422 0.2646
C28 C 0.2054(3) 0.2488(3) 0.25500(16)
H16 H 0.1931 0.2570 0.2305
N1 N 0.3801(2) 0.0584(2) 0.07019(13)
N2 N 0.3313(3) 0.3333 0.3333
O1 O 0.4081(2) -0.2586(2) 0.1667
O2 O 0.59234(19) 0.26018(19) -0.04700(12)
O3 O 0.50019(18) 0.24367(18) -0.08035(10)
O4 O 0.47196(18) -0.14945(17) 0.11161(11)
O5 O 0.45072(18) -0.12300(17) 0.16953(10)
O6 O 0.13951(18) 0.07865(18) 0.14310(11)
O7 O 0.09745(18) -0.0324(2) 0.14237(11)
O8 O 0.11230(19) 0.14083(19) 0.21396(12)
O9 O 0.0800(2) 0.0784(2) 0.26443(11)
O10 O 0.0000 0.0000 0.18962(17)
Zn1 Zn 0.6667 0.3333 -0.07418(3)
Zn2 Zn 0.3333 -0.3333 0.1667
Zn3 Zn 0.47332(3) -0.22802(3) 0.126620(18)
Zn4 Zn 0.06954(3) 0.08485(3) 0.168420(18)
Zn5 Zn 0.0000 0.0000 0.24514(3)
C22Q C 0.3229(4) 0.5390(3) 0.41709(16)
C23Q C 0.3193(4) 0.4812(3) 0.39552(17)
C24Q C 0.3500(4) 0.4935(3) 0.35892(16)
H13Q H 0.3697 0.5359 0.3481
C25Q C 0.3515(4) 0.4425(3) 0.33847(17)
H14Q H 0.3720 0.4507 0.3140
C26Q C 0.3222(4) 0.3792(3) 0.35462(18)
C27Q C 0.2914(4) 0.3669(3) 0.39122(16)
H15Q H 0.2717 0.3245 0.4021
C28Q C 0.2899(4) 0.4179(3) 0.41167(16)
H16Q H 0.2694 0.4097 0.4362
O8Q O 0.30480(27) 0.52584(19) 0.45271(12)
O9Q O 0.3349(3) 0.5883(2) 0.40224(11)
C1A C -0.2335(3) -0.7040(4) -0.05229(17)
C2A C -0.1868(3) -0.6968(4) -0.02245(16)
C3A C -0.1755(3) -0.6535(4) 0.00869(16)
H1A H -0.1964 -0.6284 0.0092
C4A C -0.1330(2) -0.6480(4) 0.03908(16)
H2A H -0.1254 -0.6190 0.0599
C5A C -0.1017(3) -0.6855(4) 0.03834(16)
C6A C -0.1129(3) -0.7286(4) 0.00721(16)
H3A H -0.0920 -0.7538 0.0067
C7A C -0.1555(2) -0.7343(4) -0.02318(15)
H4A H -0.1630 -0.7632 -0.0440
C8A C 0.1164(3) -0.4292(4) 0.13436(16)
C9A C 0.0668(3) -0.4890(4) 0.11857(16)
C10A C 0.0614(3) -0.4958(4) 0.07784(16)
H5A H 0.0860 -0.4593 0.0617
C11A C 0.0191(3) -0.5574(4) 0.06119(16)
H6A H 0.0154 -0.5621 0.0339
C12A C -0.0178(3) -0.6122(4) 0.08528(16)
C13A C -0.0123(3) -0.6052(4) 0.12601(15)
H7A H -0.0370 -0.6419 0.1421
C14A C 0.0300(3) -0.5437(4) 0.14266(16)
H8A H 0.0337 -0.5390 0.1699
C15A C -0.0291(3) -0.8863(4) 0.13370(16)
C16A C -0.0367(3) -0.8295(4) 0.11769(16)
C17A C 0.0189(3) -0.7699(4) 0.10699(16)
H9A H 0.0611 -0.7639 0.1110
C18A C 0.0113(3) -0.7196(4) 0.09030(16)
H10A H 0.0485 -0.6798 0.0831
C19A C -0.0518(3) -0.7287(4) 0.08432(17)
C20A C -0.1074(3) -0.7883(4) 0.09503(17)
H11A H -0.1496 -0.7944 0.0910
C21A C -0.0999(3) -0.8387(4) 0.11171(15)
H12A H -0.1370 -0.8785 0.1189
N1A N -0.0584(2) -0.6783(3) 0.07019(13)
O1A O 0.2586(2) -0.3333(3) 0.1667
O2A O -0.26018(19) -0.66784(27) -0.04700(12)
O3A O -0.24367(18) -0.74348(25) -0.08035(10)
O4A O 0.14945(17) -0.37859(25) 0.11161(11)
O5A O 0.12300(17) -0.42628(25) 0.16953(10)
O6A O -0.07865(18) -0.93914(25) 0.14310(11)
O7A O 0.0324(2) -0.87015(27) 0.14237(11)
Zn3A Zn 0.22802(3) -0.29866(4) 0.126620(18)
Zn4A Zn -0.08485(3) -1.01531(4) 0.168420(18)
C1A_2 C -0.2335(3) 0.2960(4) -0.05229(17)
C2A_2 C -0.1868(3) 0.3032(4) -0.02245(16)
C3A_2 C -0.1755(3) 0.3465(4) 0.00869(16)
H1A_2 H -0.1964 0.3716 0.0092
C4A_2 C -0.1330(2) 0.3520(4) 0.03908(16)
H2A_2 H -0.1254 0.3810 0.0599
C5A_2 C -0.1017(3) 0.3145(4) 0.03834(16)
C6A_2 C -0.1129(3) 0.2714(4) 0.00721(16)
H3A_2 H -0.0920 0.2462 0.0067
C7A_2 C -0.1555(2) 0.2657(4) -0.02318(15)
H4A_2 H -0.1630 0.2368 -0.0440
C8A_2 C 0.1164(3) 0.5708(4) 0.13436(16)
C9A_2 C 0.0668(3) 0.5110(4) 0.11857(16)
C10A_2 C 0.0614(3) 0.5042(4) 0.07784(16)
H5A_2 H 0.0860 0.5407 0.0617
C11A_2 C 0.0191(3) 0.4426(4) 0.06119(16)
H6A_2 H 0.0154 0.4379 0.0339
C12A_2 C -0.0178(3) 0.3878(4) 0.08528(16)
C13A_2 C -0.0123(3) 0.3948(4) 0.12601(15)
H7A_2 H -0.0370 0.3581 0.1421
C14A_2 C 0.0300(3) 0.4563(4) 0.14266(16)
H8A_2 H 0.0337 0.4610 0.1699
C15A_2 C -0.0291(3) 0.1137(4) 0.13370(16)
C16A_2 C -0.0367(3) 0.1705(4) 0.11769(16)
C17A_2 C 0.0189(3) 0.2301(4) 0.10699(16)
H9A_2 H 0.0611 0.2361 0.1110
C18A_2 C 0.0113(3) 0.2804(4) 0.09030(16)
H10A_2 H 0.0485 0.3202 0.0831
C19A_2 C -0.0518(3) 0.2713(4) 0.08432(17)
C20A_2 C -0.1074(3) 0.2117(4) 0.09503(17)
H11A_2 H -0.1496 0.2056 0.0910
C21A_2 C -0.0999(3) 0.1613(4) 0.11171(15)
H12A_2 H -0.1370 0.1215 0.1189
N1A_2 N -0.0584(2) 0.3217(3) 0.07019(13)
O2A_2 O -0.26018(19) 0.33216(27) -0.04700(12)
O3A_2 O -0.24367(18) 0.25652(25) -0.08035(10)
O4A_2 O 0.14945(17) 0.62141(25) 0.11161(11)
O5A_2 O 0.12300(17) 0.57372(25) 0.16953(10)
O6A_2 O -0.07865(18) 0.06086(25) 0.14310(11)
O7A_2 O 0.0324(2) 0.12985(27) 0.14237(11)
Zn3A_2 Zn 0.22802(3) 0.70134(4) 0.126620(18)
Zn4A_2 Zn -0.08485(3) -0.01531(4) 0.168420(18)
C1A_3 C 0.7665(3) 0.2960(4) -0.05229(17)
C2A_3 C 0.8132(3) 0.3032(4) -0.02245(16)
C3A_3 C 0.8245(3) 0.3465(4) 0.00869(16)
H1A_3 H 0.8036 0.3716 0.0092
C4A_3 C 0.8670(2) 0.3520(4) 0.03908(16)
H2A_3 H 0.8746 0.3810 0.0599
C5A_3 C 0.8983(3) 0.3145(4) 0.03834(16)
C6A_3 C 0.8871(3) 0.2714(4) 0.00721(16)
H3A_3 H 0.9080 0.2462 0.0067
C7A_3 C 0.8445(2) 0.2657(4) -0.02318(15)
H4A_3 H 0.8370 0.2368 -0.0440
C8A_3 C 1.1164(3) 0.5708(4) 0.13436(16)
C9A_3 C 1.0668(3) 0.5110(4) 0.11857(16)
C10A_3 C 1.0614(3) 0.5042(4) 0.07784(16)
H5A_3 H 1.0860 0.5407 0.0617
C11A_3 C 1.0191(3) 0.4426(4) 0.06119(16)
H6A_3 H 1.0154 0.4379 0.0339
C12A_3 C 0.9822(3) 0.3878(4) 0.08528(16)
C13A_3 C 0.9877(3) 0.3948(4) 0.12601(15)
H7A_3 H 0.9630 0.3581 0.1421
C14A_3 C 1.0300(3) 0.4563(4) 0.14266(16)
H8A_3 H 1.0337 0.4610 0.1699
C15A_3 C 0.9709(3) 0.1137(4) 0.13370(16)
C16A_3 C 0.9633(3) 0.1705(4) 0.11769(16)
C17A_3 C 1.0189(3) 0.2301(4) 0.10699(16)
H9A_3 H 1.0611 0.2361 0.1110
C18A_3 C 1.0113(3) 0.2804(4) 0.09030(16)
H10A_3 H 1.0485 0.3202 0.0831
C19A_3 C 0.9482(3) 0.2713(4) 0.08432(17)
C20A_3 C 0.8926(3) 0.2117(4) 0.09503(17)
H11A_3 H 0.8504 0.2056 0.0910
C21A_3 C 0.9001(3) 0.1613(4) 0.11171(15)
H12A_3 H 0.8630 0.1215 0.1189
C22A C 0.8723(3) -0.0104(4) 0.24958(16)
C23A C 0.8145(3) -0.0140(4) 0.27115(17)
C24A C 0.8268(3) 0.0167(4) 0.30775(16)
H13A H 0.8692 0.0364 0.3186
C25A C 0.7758(3) 0.0182(4) 0.32820(17)
H14A H 0.7840 0.0387 0.3527
C26A C 0.7125(3) -0.0111(4) 0.31205(18)
C27A C 0.7002(3) -0.0419(4) 0.27545(16)
H15A H 0.6578 -0.0616 0.2646
C28A C 0.7512(3) -0.0434(4) 0.25500(16)
H16A H 0.7430 -0.0639 0.2305
N1A_3 N 0.9416(2) 0.3217(3) 0.07019(13)
N2A N 0.6667 -0.0020(3) 0.3333
O2A_3 O 0.73982(19) 0.33216(27) -0.04700(12)
O3A_3 O 0.75633(18) 0.25652(25) -0.08035(10)
O4A_3 O 1.14945(17) 0.62141(25) 0.11161(11)
O5A_3 O 1.12300(17) 0.57372(25) 0.16953(10)
O6A_3 O 0.92135(18) 0.06086(25) 0.14310(11)
O7A_3 O 1.0324(2) 0.12985(27) 0.14237(11)
O8A O 0.85917(19) -0.02853(27) 0.21396(12)
O9A O 0.9216(2) 0.0016(3) 0.26443(11)
Zn3A_3 Zn 1.22802(3) 0.70134(4) 0.126620(18)
Zn4A_3 Zn 0.91515(3) -0.01531(4) 0.168420(18)
C22O C 0.4610(3) -0.2160(3) 0.41709(16)
C23O C 0.5188(3) -0.1618(3) 0.39552(17)
C24O C 0.5065(3) -0.1434(3) 0.35892(16)
H13O H 0.4641 -0.1661 0.3481
C25O C 0.5575(3) -0.0909(3) 0.33847(17)
H14O H 0.5493 -0.0786 0.3140
C26O C 0.6208(3) -0.0569(3) 0.35462(18)
C27O C 0.6331(3) -0.0754(3) 0.39122(16)
H15O H 0.6755 -0.0527 0.4021
C28O C 0.5821(3) -0.1279(3) 0.41167(16)
H16O H 0.5903 -0.1402 0.4362
O8O O 0.47416(19) -0.22103(19) 0.45271(12)
O9O O 0.4117(2) -0.2533(2) 0.40224(11)
C1B C -0.2960(4) -0.5295(3) -0.05229(17)
C2B C -0.3032(4) -0.4900(3) -0.02245(16)
C3B C -0.3465(4) -0.5220(3) 0.00869(16)
H1B H -0.3716 -0.5680 0.0092
C4B C -0.3520(4) -0.4850(3) 0.03908(16)
H2B H -0.3810 -0.5064 0.0599
C5B C -0.3145(4) -0.4162(3) 0.03834(16)
C6B C -0.2714(4) -0.3843(3) 0.00721(16)
H3B H -0.2462 -0.3382 0.0067
C7B C -0.2657(4) -0.4212(3) -0.02318(15)
H4B H -0.2368 -0.3998 -0.0440
C8B C -0.5708(4) -0.4544(3) 0.13436(16)
C9B C -0.5110(4) -0.4442(3) 0.11857(16)
C10B C -0.5042(4) -0.4428(3) 0.07784(16)
H5B H -0.5407 -0.4547 0.0617
C11B C -0.4426(4) -0.4235(3) 0.06119(16)
H6B H -0.4379 -0.4225 0.0339
C12B C -0.3878(4) -0.4056(3) 0.08528(16)
C13B C -0.3948(4) -0.4071(3) 0.12601(15)
H7B H -0.3581 -0.3951 0.1421
C14B C -0.4563(4) -0.4263(3) 0.14266(16)
H8B H -0.4610 -0.4273 0.1699
C15B C -0.1137(4) -0.1428(3) 0.13370(16)
C16B C -0.1705(4) -0.2072(3) 0.11769(16)
C17B C -0.2301(4) -0.2112(3) 0.10699(16)
H9B H -0.2361 -0.1750 0.1110
C18B C -0.2804(4) -0.2691(2) 0.09030(16)
H10B H -0.3202 -0.2717 0.0831
C19B C -0.2713(4) -0.3231(3) 0.08432(17)
C20B C -0.2117(4) -0.3191(3) 0.09503(17)
H11B H -0.2056 -0.3552 0.0910
C21B C -0.1613(4) -0.2612(2) 0.11171(15)
H12B H -0.1215 -0.2585 0.1189
N1B N -0.3217(3) -0.3801(2) 0.07019(13)
O2B O -0.33216(27) -0.59234(19) -0.04700(12)
O3B O -0.25652(25) -0.50019(18) -0.08035(10)
O4B O -0.62141(25) -0.47196(18) 0.11161(11)
O5B O -0.57372(25) -0.45072(18) 0.16953(10)
O6B O -0.06086(25) -0.13951(18) 0.14310(11)
O7B O -0.12985(27) -0.09745(18) 0.14237(11)
Zn3B Zn -0.70134(4) -0.47332(3) 0.126620(18)
Zn4B Zn 0.01531(4) -0.06954(3) 0.168420(18)
O1B O 0.3333(3) -0.4081(2) 0.1667
C1I C 0.9002(3) -0.1372(3) 0.38562(17)
C2I C 0.8535(3) -0.1767(3) 0.35578(16)
C3I C 0.8422(3) -0.1447(3) 0.32464(16)
H1I H 0.8631 -0.0987 0.3241
C4I C 0.7997(2) -0.1817(3) 0.29425(16)
H2I H 0.7921 -0.1603 0.2734
C5I C 0.7684(3) -0.2505(3) 0.29499(16)
C6I C 0.7796(3) -0.2824(3) 0.32612(16)
H3I H 0.7587 -0.3285 0.3266
C7I C 0.8222(2) -0.2455(3) 0.35651(15)
H4I H 0.8297 -0.2669 0.3773
C8I C 0.5503(3) -0.2123(3) 0.19897(16)
C9I C 0.5999(3) -0.2225(3) 0.21476(16)
C10I C 0.6053(3) -0.2239(3) 0.25549(16)
H5I H 0.5807 -0.2120 0.2716
C11I C 0.6476(3) -0.2432(3) 0.27214(16)
H6I H 0.6513 -0.2442 0.2994
C12I C 0.6845(3) -0.2611(3) 0.24805(16)
C13I C 0.6790(3) -0.2596(3) 0.20732(15)
H7I H 0.7037 -0.2716 0.1912
C14I C 0.6367(3) -0.2404(3) 0.19067(16)
H8I H 0.6330 -0.2394 0.1634
C15I C 0.6958(3) -0.5239(3) 0.19963(16)
C16I C 0.7034(3) -0.4595(3) 0.21564(16)
C17I C 0.6478(3) -0.4555(3) 0.22634(16)
H9I H 0.6056 -0.4917 0.2223
C18I C 0.6554(3) -0.3976(2) 0.24303(16)
H10I H 0.6182 -0.3950 0.2502
C19I C 0.7185(3) -0.3436(3) 0.24901(17)
C20I C 0.7741(3) -0.3476(3) 0.23830(17)
H11I H 0.8163 -0.3115 0.2423
C21I C 0.7666(3) -0.4055(2) 0.22162(15)
H12I H 0.8037 -0.4082 0.2144
N1I N 0.7251(2) -0.2866(2) 0.26314(13)
O2I O 0.92685(19) -0.07433(19) 0.38033(12)
O3I O 0.91034(18) -0.16648(18) 0.41368(10)
O4I O 0.51722(17) -0.19471(18) 0.22172(11)
O5I O 0.54367(17) -0.21595(18) 0.16380(10)
O6I O 0.74532(18) -0.52716(18) 0.19023(11)
O7I O 0.6343(2) -0.56922(18) 0.19096(11)
Zn3I Zn 0.43865(3) -0.19335(3) 0.206713(18)
Zn4I Zn 0.75152(3) -0.59713(3) 0.164913(18)
C22B C 0.0104(4) -0.1173(3) 0.24958(16)
C23B C 0.0140(4) -0.1715(3) 0.27115(17)
C24B C -0.0167(4) -0.1899(3) 0.30775(16)
H13B H -0.0364 -0.1672 0.3186
C25B C -0.0182(4) -0.2424(3) 0.32820(17)
H14B H -0.0387 -0.2547 0.3527
C26B C 0.0111(4) -0.2764(3) 0.31205(18)
C27B C 0.0419(4) -0.2579(3) 0.27545(16)
H15B H 0.0616 -0.2806 0.2646
C28B C 0.0434(4) -0.2054(3) 0.25500(16)
H16B H 0.0639 -0.1931 0.2305
N2B N 0.0020(3) -0.3313(3) 0.3333
O8B O 0.02853(27) -0.11230(19) 0.21396(12)
O9B O -0.0016(3) -0.0800(2) 0.26443(11)
C22P C 0.2160(3) -0.3229(4) 0.41709(16)
C23P C 0.1618(3) -0.3193(4) 0.39552(17)
C24P C 0.1434(3) -0.3500(4) 0.35892(16)
H13P H 0.1661 -0.3697 0.3481
C25P C 0.0909(3) -0.3515(4) 0.33847(17)
H14P H 0.0786 -0.3720 0.3140
C26P C 0.0569(3) -0.3222(4) 0.35462(18)
C27P C 0.0754(3) -0.2914(4) 0.39122(16)
H15P H 0.0527 -0.2717 0.4021
C28P C 0.1279(3) -0.2899(4) 0.41167(16)
H16P H 0.1402 -0.2694 0.4362
O8P O 0.22103(19) -0.30480(27) 0.45271(12)
O9P O 0.2533(2) -0.3349(3) 0.40224(11)
O10O O 0.3333 0.6667 0.47705(17)
Zn5O Zn 0.3333 0.6667 0.42153(3)
Zn1_2 Zn -0.3333 -0.6667 -0.07418(3)
O1A_2 O 0.2586(2) 0.6667(3) 0.1667
O1A_3 O 1.2586(2) 0.6667(3) 0.1667
O1B_2 O -0.6667(3) -0.4081(2) 0.1667
O2_2 O -0.40766(19) -0.73982(19) -0.04700(12)
O2B_2 O 0.66784(27) 0.40766(19) -0.04700(12)
O3C O -0.75633(18) -0.49981(18) 0.08035(10)
O3D O 0.49981(18) -0.25652(25) 0.08035(10)
O3E O 0.25652(25) -0.24367(18) 0.08035(10)
O3E_2 O 0.25652(25) 0.75633(18) 0.08035(10)
O3E_3 O 1.25652(25) 0.75633(18) 0.08035(10)
O3H O 0.41015(25) -0.16686(18) 0.25298(10)
O5J O 0.21595(18) -0.24039(25) 0.16380(10)
O5J_2 O 0.21595(18) 0.75961(25) 0.16380(10)
O5J_3 O 1.21595(18) 0.75961(25) 0.16380(10)
O5K O -0.75961(25) -0.54367(17) 0.16380(10)
O7B_2 O -0.12985(27) -1.09745(18) 0.14237(11)
O7B_3 O 0.87015(27) -0.09745(18) 0.14237(11)
O7K O 0.79652(27) -0.6343(2) 0.19096(11)
O8A_2 O -0.14083(19) -1.02853(27) 0.21396(12)
O8A_3 O -0.14083(19) -0.02853(27) 0.21396(12)
O8I O 0.80750(19) -0.55437(19) 0.11937(12)
O9A_2 O -0.0784(2) 0.0016(3) 0.26443(11)
O9O_2 O 0.4117(2) 0.7467(2) 0.40224(11)
O9P_2 O 0.2533(2) 0.6651(3) 0.40224(11)
O10_2 O 0.0000 -1.0000 0.18962(17)
O10_3 O 1.0000 0.0000 0.18962(17)
O10I O 0.6667 -0.6667 0.14371(17)
Zn1_3 Zn -0.3333 0.3333 -0.07418(3)
Zn1I Zn 1.0000 0.0000 0.40751(3)
Zn3B_2 Zn 0.29866(4) -0.47332(3) 0.126620(18)
Zn3C Zn -0.22802(3) -0.52668(3) -0.126620(18)
Zn3D Zn 0.52668(3) 0.29866(4) -0.126620(18)
Zn3E Zn -0.29866(4) -0.77198(3) -0.126620(18)
Zn3E_2 Zn -0.29866(4) 0.22802(3) -0.126620(18)
Zn3E_3 Zn 0.70134(4) 0.22802(3) -0.126620(18)
Zn3H Zn 0.96533(4) -0.13999(3) 0.459953(18)
Zn3J Zn 0.19335(3) -0.36801(4) 0.206713(18)
Zn3J_2 Zn 0.19335(3) 0.63199(4) 0.206713(18)
Zn3J_3 Zn 1.19335(3) 0.63199(4) 0.206713(18)
Zn3K Zn -0.63199(4) -0.43865(3) 0.206713(18)
Zn3K_2 Zn 0.36801(4) -0.43865(3) 0.206713(18)
Zn4_2 Zn 0.06954(3) -0.91515(3) 0.168420(18)
Zn4_3 Zn 1.06954(3) 0.08485(3) 0.168420(18)
Zn4J Zn 0.59713(3) -0.65136(4) 0.164913(18)
Zn4O Zn 0.41818(3) -0.26379(3) 0.498247(18)
Zn4O_2 Zn 0.41818(3) 0.73621(3) 0.498247(18)
Zn4P Zn 0.26379(3) -0.31802(4) 0.498247(18)
Zn4P_2 Zn 0.26379(3) 0.68198(4) 0.498247(18)
Zn4Q Zn 0.31802(4) 0.58182(3) 0.498247(18)
Zn5_2 Zn 1.0000 0.0000 0.24514(3)
Zn5O_2 Zn 0.3333 -0.3333 0.42153(3)
loop_
_geom_bond_atom_site_label_1
_geom_bond_atom_site_label_2
_geom_bond_site_symmetry_1
_geom_bond_site_symmetry_2
C1 C2 1_555 1_555
C2 C3 1_555 1_555
C3 H1 1_555 1_555
C4 C3 1_555 1_555
H2 C4 1_555 1_555
C5 C4 1_555 1_555
C6 C5 1_555 1_555
H3 C6 1_555 1_555
C7 C2 1_555 1_555
H4 C7 1_555 1_555
C8 C9 1_555 1_555
C9 C10 1_555 1_555
C10 H5 1_555 1_555
C11 C10 1_555 1_555
H6 C11 1_555 1_555
C12 C11 1_555 1_555
C13 C12 1_555 1_555
H7 C13 1_555 1_555
C14 C9 1_555 1_555
H8 C14 1_555 1_555
C15 C16 1_555 1_555
C16 C17 1_555 1_555
C17 H9 1_555 1_555
C18 C17 1_555 1_555
H10 C18 1_555 1_555
C19 C18 1_555 1_555
C20 C19 1_555 1_555
H11 C20 1_555 1_555
C21 C16 1_555 1_555
H12 C21 1_555 1_555
C22 C23 1_555 1_555
C23 C24 1_555 1_555
C24 H13 1_555 1_555
C25 C24 1_555 1_555
H14 C25 1_555 1_555
C26 C25 1_555 1_555
C27 C26 1_555 1_555
H15 C27 1_555 1_555
C28 C23 1_555 1_555
H16 C28 1_555 1_555
N1 C5 1_555 1_555
N2 C26 1_555 1_555
O1 Zn2 1_555 1_555
O2 C1 1_555 1_555
O3 C1 1_555 1_555
O4 C8 1_555 1_555
O5 C8 1_555 1_555
O6 C15 1_555 1_555
O7 C15 1_555 1_555
O8 C22 1_555 1_555
O9 C22 1_555 1_555
O10 Zn4 1_555 1_555
Zn1 O2 1_555 1_555
Zn2 O1A 1_555 1_555
Zn3 O1 1_555 1_555
Zn4 O6 1_555 1_555
Zn5 O9 1_555 1_555
C22Q C23Q 1_555 1_555
C23Q C24Q 1_555 1_555
C24Q H13Q 1_555 1_555
C25Q C24Q 1_555 1_555
H14Q C25Q 1_555 1_555
C26Q N2 1_555 1_555
C27Q C26Q 1_555 1_555
H15Q C27Q 1_555 1_555
C28Q C23Q 1_555 1_555
H16Q C28Q 1_555 1_555
O8Q C22Q 1_555 1_555
O9Q C22Q 1_555 1_555
C1A C2A 1_555 1_555
C2A C3A 1_555 1_555
C3A H1A 1_555 1_555
C4A C3A 1_555 1_555
H2A C4A 1_555 1_555
C5A C4A 1_555 1_555
C6A C5A 1_555 1_555
H3A C6A 1_555 1_555
C7A C2A 1_555 1_555
H4A C7A 1_555 1_555
C8A C9A 1_555 1_555
C9A C10A 1_555 1_555
C10A H5A 1_555 1_555
C11A C10A 1_555 1_555
H6A C11A 1_555 1_555
C12A C11A 1_555 1_555
C13A C12A 1_555 1_555
H7A C13A 1_555 1_555
C14A C9A 1_555 1_555
H8A C14A 1_555 1_555
C15A C16A 1_555 1_555
C16A C17A 1_555 1_555
C17A H9A 1_555 1_555
C18A C17A 1_555 1_555
H10A C18A 1_555 1_555
C19A C18A 1_555 1_555
C20A C19A 1_555 1_555
H11A C20A 1_555 1_555
C21A C16A 1_555 1_555
H12A C21A 1_555 1_555
N1A C5A 1_555 1_555
O1A Zn3A 1_555 1_555
O2A C1A 1_555 1_555
O3A C1A 1_555 1_555
O4A C8A 1_555 1_555
O5A C8A 1_555 1_555
O6A C15A 1_555 1_555
O7A C15A 1_555 1_555
Zn3A O4A 1_555 1_555
Zn4A O6A 1_555 1_555
C1A_2 C2A_2 1_555 1_555
C2A_2 C3A_2 1_555 1_555
C3A_2 H1A_2 1_555 1_555
C4A_2 C3A_2 1_555 1_555
H2A_2 C4A_2 1_555 1_555
C5A_2 C4A_2 1_555 1_555
C6A_2 C5A_2 1_555 1_555
H3A_2 C6A_2 1_555 1_555
C7A_2 C2A_2 1_555 1_555
H4A_2 C7A_2 1_555 1_555
C8A_2 C9A_2 1_555 1_555
C9A_2 C10A_2 1_555 1_555
C10A_2 H5A_2 1_555 1_555
C11A_2 C10A_2 1_555 1_555
H6A_2 C11A_2 1_555 1_555
C12A_2 C11A_2 1_555 1_555
C13A_2 C12A_2 1_555 1_555
H7A_2 C13A_2 1_555 1_555
C14A_2 C9A_2 1_555 1_555
H8A_2 C14A_2 1_555 1_555
C15A_2 C16A_2 1_555 1_555
C16A_2 C17A_2 1_555 1_555
C17A_2 H9A_2 1_555 1_555
C18A_2 C17A_2 1_555 1_555
H10A_2 C18A_2 1_555 1_555
C19A_2 C18A_2 1_555 1_555
C20A_2 C19A_2 1_555 1_555
H11A_2 C20A_2 1_555 1_555
C21A_2 C16A_2 1_555 1_555
H12A_2 C21A_2 1_555 1_555
N1A_2 C5A_2 1_555 1_555
O2A_2 C1A_2 1_555 1_555
O3A_2 C1A_2 1_555 1_555
O4A_2 C8A_2 1_555 1_555
O5A_2 C8A_2 1_555 1_555
O6A_2 C15A_2 1_555 1_555
O7A_2 Zn4 1_555 1_555
Zn3A_2 O4A_2 1_555 1_555
Zn4A_2 O10 1_555 1_555
C1A_3 C2A_3 1_555 1_555
C2A_3 C3A_3 1_555 1_555
C3A_3 H1A_3 1_555 1_555
C4A_3 C3A_3 1_555 1_555
H2A_3 C4A_3 1_555 1_555
C5A_3 C4A_3 1_555 1_555
C6A_3 C5A_3 1_555 1_555
H3A_3 C6A_3 1_555 1_555
C7A_3 C2A_3 1_555 1_555
H4A_3 C7A_3 1_555 1_555
C8A_3 C9A_3 1_555 1_555
C9A_3 C10A_3 1_555 1_555
C10A_3 H5A_3 1_555 1_555
C11A_3 C10A_3 1_555 1_555
H6A_3 C11A_3 1_555 1_555
C12A_3 C11A_3 1_555 1_555
C13A_3 C12A_3 1_555 1_555
H7A_3 C13A_3 1_555 1_555
C14A_3 C9A_3 1_555 1_555
H8A_3 C14A_3 1_555 1_555
C15A_3 C16A_3 1_555 1_555
C16A_3 C17A_3 1_555 1_555
C17A_3 H9A_3 1_555 1_555
C18A_3 C17A_3 1_555 1_555
H10A_3 C18A_3 1_555 1_555
C19A_3 C18A_3 1_555 1_555
C20A_3 C19A_3 1_555 1_555
H11A_3 C20A_3 1_555 1_555
C21A_3 C16A_3 1_555 1_555
H12A_3 C21A_3 1_555 1_555
C22A C23A 1_555 1_555
C23A C24A 1_555 1_555
C24A H13A 1_555 1_555
C25A C24A 1_555 1_555
H14A C25A 1_555 1_555
C26A C25A 1_555 1_555
C27A C26A 1_555 1_555
H15A C27A 1_555 1_555
C28A C23A 1_555 1_555
H16A C28A 1_555 1_555
N1A_3 C5A_3 1_555 1_555
N2A C26A 1_555 1_555
O2A_3 Zn1 1_555 1_555
O3A_3 C1A_3 1_555 1_555
O4A_3 C8A_3 1_555 1_555
O5A_3 C8A_3 1_555 1_555
O6A_3 C15A_3 1_555 1_555
O7A_3 C15A_3 1_555 1_555
O8A C22A 1_555 1_555
O9A C22A 1_555 1_555
Zn3A_3 O4A_3 1_555 1_555
Zn4A_3 O6A_3 1_555 1_555
C22O C23O 1_555 1_555
C23O C24O 1_555 1_555
C24O H13O 1_555 1_555
C25O C24O 1_555 1_555
H14O C25O 1_555 1_555
C26O N2A 1_555 1_555
C27O C26O 1_555 1_555
H15O C27O 1_555 1_555
C28O C23O 1_555 1_555
H16O C28O 1_555 1_555
O8O C22O 1_555 1_555
O9O C22O 1_555 1_555
C1B C2B 1_555 1_555
C2B C3B 1_555 1_555
C3B H1B 1_555 1_555
C4B C3B 1_555 1_555
H2B C4B 1_555 1_555
C5B C4B 1_555 1_555
C6B C5B 1_555 1_555
H3B C6B 1_555 1_555
C7B C2B 1_555 1_555
H4B C7B 1_555 1_555
C8B C9B 1_555 1_555
C9B C10B 1_555 1_555
C10B H5B 1_555 1_555
C11B C10B 1_555 1_555
H6B C11B 1_555 1_555
C12B C11B 1_555 1_555
C13B C12B 1_555 1_555
H7B C13B 1_555 1_555
C14B C9B 1_555 1_555
H8B C14B 1_555 1_555
C15B C16B 1_555 1_555
C16B C17B 1_555 1_555
C17B H9B 1_555 1_555
C18B C17B 1_555 1_555
H10B C18B 1_555 1_555
C19B C18B 1_555 1_555
C20B C19B 1_555 1_555
H11B C20B 1_555 1_555
C21B C16B 1_555 1_555
H12B C21B 1_555 1_555
N1B C5B 1_555 1_555
O2B C1B 1_555 1_555
O3B C1B 1_555 1_555
O4B C8B 1_555 1_555
O5B C8B 1_555 1_555
O6B C15B 1_555 1_555
O7B Zn4A_2 1_555 1_555
Zn3B O4B 1_555 1_555
Zn4B O7 1_555 1_555
O1B Zn2 1_555 1_555
C1I C2I 1_555 1_555
C2I C3I 1_555 1_555
C3I H1I 1_555 1_555
C4I C3I 1_555 1_555
H2I C4I 1_555 1_555
C5I C4I 1_555 1_555
C6I C5I 1_555 1_555
H3I C6I 1_555 1_555
C7I C2I 1_555 1_555
H4I C7I 1_555 1_555
C8I C9I 1_555 1_555
C9I C10I 1_555 1_555
C10I H5I 1_555 1_555
C11I C10I 1_555 1_555
H6I C11I 1_555 1_555
C12I C11I 1_555 1_555
C13I C12I 1_555 1_555
H7I C13I 1_555 1_555
C14I C9I 1_555 1_555
H8I C14I 1_555 1_555
C15I C16I 1_555 1_555
C16I C17I 1_555 1_555
C17I H9I 1_555 1_555
C18I C17I 1_555 1_555
H10I C18I 1_555 1_555
C19I C18I 1_555 1_555
C20I C19I 1_555 1_555
H11I C20I 1_555 1_555
C21I C16I 1_555 1_555
H12I C21I 1_555 1_555
N1I C5I 1_555 1_555
O2I C1I 1_555 1_555
O3I C1I 1_555 1_555
O4I C8I 1_555 1_555
O5I Zn3 1_555 1_555
O6I C15I 1_555 1_555
O7I C15I 1_555 1_555
Zn3I O1 1_555 1_555
Zn4I O6I 1_555 1_555
C22B C23B 1_555 1_555
C23B C24B 1_555 1_555
C24B H13B 1_555 1_555
C25B C24B 1_555 1_555
H14B C25B 1_555 1_555
C26B C25B 1_555 1_555
C27B C26B 1_555 1_555
H15B C27B 1_555 1_555
C28B C23B 1_555 1_555
H16B C28B 1_555 1_555
N2B C26B 1_555 1_555
O8B Zn4B 1_555 1_555
O9B Zn5 1_555 1_555
C22P C23P 1_555 1_555
C23P C24P 1_555 1_555
C24P H13P 1_555 1_555
C25P C24P 1_555 1_555
H14P C25P 1_555 1_555
C26P N2B 1_555 1_555
C27P C26P 1_555 1_555
H15P C27P 1_555 1_555
C28P C23P 1_555 1_555
H16P C28P 1_555 1_555
O8P C22P 1_555 1_555
O9P C22P 1_555 1_555
O10O Zn5O 1_555 1_555
Zn5O O9Q 1_555 1_555
Zn1_2 O2A 1_555 1_555
O1A_2 Zn3A_2 1_555 1_555
O1A_3 Zn3A_3 1_555 1_555
O1B_2 Zn3B 1_555 1_555
O2_2 Zn1_2 1_555 1_555
O2B_2 Zn1 1_555 1_555
O3C Zn3B 1_555 1_555
O3D Zn3 1_555 1_555
O3E Zn3A 1_555 1_555
O3E_2 Zn3A_2 1_555 1_555
O3E_3 Zn3A_3 1_555 1_555
O3H Zn3I 1_555 1_555
O5J Zn3A 1_555 1_555
O5J_2 Zn3A_2 1_555 1_555
O5J_3 Zn3A_3 1_555 1_555
O5K Zn3B 1_555 1_555
O7B_2 Zn4A 1_555 1_555
O7B_3 Zn4A_3 1_555 1_555
O7K Zn4I 1_555 1_555
O8A_2 Zn4A 1_555 1_555
O8A_3 Zn4A_2 1_555 1_555
O8I Zn4I 1_555 1_555
O9A_2 Zn5 1_555 1_555
O9O_2 Zn5O 1_555 1_555
O9P_2 Zn5O 1_555 1_555
O10_2 Zn4A 1_555 1_555
O10_3 Zn4A_3 1_555 1_555
O10I Zn4I 1_555 1_555
Zn1_3 O2A_2 1_555 1_555
Zn1I O2I 1_555 1_555
Zn3B_2 O1B 1_555 1_555
Zn3C O3B 1_555 1_555
Zn3D O3 1_555 1_555
Zn3E O3A 1_555 1_555
Zn3E_2 O3A_2 1_555 1_555
Zn3E_3 O3A_3 1_555 1_555
Zn3H O3I 1_555 1_555
Zn3J O1A 1_555 1_555
Zn3J_2 O5A_2 1_555 1_555
Zn3J_3 O5A_3 1_555 1_555
Zn3K O5B 1_555 1_555
Zn3K_2 O1B 1_555 1_555
Zn4_2 O7A 1_555 1_555
Zn4_3 O7A_3 1_555 1_555
Zn4J O7I 1_555 1_555
Zn4O O8O 1_555 1_555
Zn4O_2 O10O 1_555 1_555
Zn4P O8P 1_555 1_555
Zn4P_2 O10O 1_555 1_555
Zn4Q O8Q 1_555 1_555
Zn5_2 O9A 1_555 1_555
Zn5O_2 O9O 1_555 1_555
C6 C7 1_555 1_555
C12 N1 1_555 1_555
C13 C14 1_555 1_555
C19 N1 1_555 1_555
C20 C21 1_555 1_555
C27 C28 1_555 1_555
O4 Zn3 1_555 1_555
O5 Zn3I 1_555 1_555
O8 Zn4 1_555 1_555
O10 Zn5 1_555 1_555
O10 Zn4B 1_555 1_555
C25Q C26Q 1_555 1_555
C27Q C28Q 1_555 1_555
C6A C7A 1_555 1_555
C12A N1A 1_555 1_555
C13A C14A 1_555 1_555
C19A N1A 1_555 1_555
C20A C21A 1_555 1_555
O5A Zn3J 1_555 1_555
C6A_2 C7A_2 1_555 1_555
C12A_2 N1A_2 1_555 1_555
C13A_2 C14A_2 1_555 1_555
C15A_2 O7A_2 1_555 1_555
C19A_2 N1A_2 1_555 1_555
C20A_2 C21A_2 1_555 1_555
O6A_2 Zn4A_2 1_555 1_555
C1A_3 O2A_3 1_555 1_555
C6A_3 C7A_3 1_555 1_555
C12A_3 N1A_3 1_555 1_555
C13A_3 C14A_3 1_555 1_555
C19A_3 N1A_3 1_555 1_555
C20A_3 C21A_3 1_555 1_555
C27A C28A 1_555 1_555
O8A Zn4A_3 1_555 1_555
C25O C26O 1_555 1_555
C27O C28O 1_555 1_555
C6B C7B 1_555 1_555
C12B N1B 1_555 1_555
C13B C14B 1_555 1_555
C15B O7B 1_555 1_555
C19B N1B 1_555 1_555
C20B C21B 1_555 1_555
O2B Zn1_2 1_555 1_555
O6B Zn4B 1_555 1_555
C6I C7I 1_555 1_555
C8I O5I 1_555 1_555
C12I N1I 1_555 1_555
C13I C14I 1_555 1_555
C19I N1I 1_555 1_555
C20I C21I 1_555 1_555
O4I Zn3I 1_555 1_555
C22B O8B 1_555 1_555
C22B O9B 1_555 1_555
C27B C28B 1_555 1_555
C25P C26P 1_555 1_555
C27P C28P 1_555 1_555
O9P Zn5O_2 1_555 1_555
O10O Zn4Q 1_555 1_555
O1A_2 Zn3J_2 1_555 1_555
O1A_3 Zn3J_3 1_555 1_555
O1B_2 Zn3K 1_555 1_555
O10_2 Zn4_2 1_555 1_555
O10_3 Zn4_3 1_555 1_555
O10_3 Zn5_2 1_555 1_555
O10I Zn4J 1_555 1_555

#END
