
#######################################################################
#
#                 Cambridge Crystallographic Data Centre
#                                CCDC 
#
#######################################################################
#
# If this CIF has been generated from an entry in the Cambridge 
# Structural Database, then it will include bibliographic, chemical, 
# crystal, experimental, refinement or atomic coordinate data resulting 
# from the CCDC's data processing and validation procedures.
#
#######################################################################

data_LUDLAZ
_symmetry_cell_setting           trigonal
_symmetry_space_group_name_H-M   'P -3 m 1'
_symmetry_Int_Tables_number      164
_space_group_name_Hall           '-P 3 2"'
loop_
_symmetry_equiv_pos_site_id
_symmetry_equiv_pos_as_xyz
1 x,y,z
2 -y,x-y,z
3 -x+y,-x,z
4 x-y,-y,-z
5 -x,-x+y,-z
6 y,x,-z
7 -x,-y,-z
8 y,-x+y,-z
9 x-y,x,-z
10 -x+y,y,z
11 x,x-y,z
12 -y,-x,z
_cell_length_a                   17.991(3)
_cell_length_b                   17.991(3)
_cell_length_c                   6.5371(11)
_cell_angle_alpha                90
_cell_angle_beta                 90
_cell_angle_gamma                120
_cell_volume                     1832.43
loop_
_atom_site_label
_atom_site_type_symbol
_atom_site_fract_x
_atom_site_fract_y
_atom_site_fract_z
Cu1 Cu 0.47388(18) 0.52612(18) 0.1552(7)
O1 O 0.4342(14) 0.4105(13) 0.262(3)
O2 O 0.4330(7) 0.5670(7) 0.417(3)
O3 O 0.5207(16) 0.6310(14) 0.002(3)
C1 C 0.4462(8) 0.3575(12) 0.172(3)
C2 C 0.4198(8) 0.2754(12) 0.273(3)
C3 C 0.3804(9) 0.2566(14) 0.466(4)
C4 C 0.4341(10) 0.2170(5) 0.180(4)
C5 C 0.3566(9) 0.1783(5) 0.556(4)
H1 H 0.3699 0.2980 0.5340
H2 H 0.4561 0.2280 0.0444
C6 C 0.3141(9) 0.1570(4) 0.762(3)
O4 O 0.2934(8) 0.0857(12) 0.838(3)
C7 C 0.2518(12) 0.0574(17) 1.038(5)
H3 H 0.2420 0.0014 1.0654
H4 H 0.2879 0.0960 1.1392
H5 H 0.1988 0.0566 1.0343
Cu1F Cu 0.52612(18) 0.47388(18) -0.1552(7)
O1K O 0.5895(13) 0.5658(14) 0.262(3)
O3K O 0.3690(14) 0.4793(16) 0.002(3)
O3F O 0.4793(16) 0.3690(14) -0.002(3)
C2J C 0.4198(8) 0.1444(14) 0.273(3)
C3J C 0.3804(9) 0.1238(17) 0.466(4)
C1J C 0.4462(8) 0.0887(14) 0.172(3)
O4J O 0.2934(8) 0.2077(14) 0.838(3)
H1J H 0.3699 0.0719 0.5340
O1J O 0.4342(14) 0.0237(19) 0.262(3)
O3D O 0.4793(16) 0.1103(21) -0.002(3)
Cu1A Cu 0.47388(18) -0.05224(25) 0.1552(7)
Cu1G Cu 0.52612(18) 0.05224(25) -0.1552(7)
loop_
_geom_bond_atom_site_label_1
_geom_bond_atom_site_label_2
_geom_bond_site_symmetry_1
_geom_bond_site_symmetry_2
Cu1 O1 1_555 1_555
O1 C1 1_555 1_555
O2 Cu1 1_555 1_555
O3 Cu1 1_555 1_555
C1 C2 1_555 1_555
C2 C3 1_555 1_555
C3 C5 1_555 1_555
C4 C2 1_555 1_555
C5 C6 1_555 1_555
H1 C3 1_555 1_555
H2 C4 1_555 1_555
C6 O4 1_555 1_555
O4 C7 1_555 1_555
C7 H3 1_555 1_555
H4 C7 1_555 1_555
H5 C7 1_555 1_555
Cu1F Cu1 1_555 1_555
O1K Cu1 1_555 1_555
O3K Cu1 1_555 1_555
O3F C1 1_555 1_555
C2J C4 1_555 1_555
C3J C5 1_555 1_555
C1J C2J 1_555 1_555
O4J C6 1_555 1_555
H1J C3J 1_555 1_555
O1J C1J 1_555 1_555
O3D C1J 1_555 1_555
Cu1A O1J 1_555 1_555
Cu1G O3D 1_555 1_555
Cu1F O3F 1_555 1_555
C2J C3J 1_555 1_555
Cu1A Cu1G 1_555 1_555

#END
