
#######################################################################
#
#                 Cambridge Crystallographic Data Centre
#                                CCDC 
#
#######################################################################
#
# If this CIF has been generated from an entry in the Cambridge 
# Structural Database, then it will include bibliographic, chemical, 
# crystal, experimental, refinement or atomic coordinate data resulting 
# from the CCDC's data processing and validation procedures.
#
#######################################################################

data_LUFCAS
_symmetry_cell_setting           monoclinic
_symmetry_space_group_name_H-M   'C 2/c'
_symmetry_Int_Tables_number      15
_space_group_name_Hall           '-C 2yn'
loop_
_symmetry_equiv_pos_site_id
_symmetry_equiv_pos_as_xyz
1 x,y,z
2 -x,y,1/2-z
3 1/2+x,1/2+y,z
4 1/2-x,1/2+y,1/2-z
5 -x,-y,-z
6 x,-y,1/2+z
7 1/2-x,1/2-y,-z
8 1/2+x,1/2-y,1/2+z
_cell_length_a                   15.629(3)
_cell_length_b                   15.991(3)
_cell_length_c                   9.2343(19)
_cell_angle_alpha                90
_cell_angle_beta                 102.774(2)
_cell_angle_gamma                90
_cell_volume                     2250.75
loop_
_atom_site_label
_atom_site_type_symbol
_atom_site_fract_x
_atom_site_fract_y
_atom_site_fract_z
Cd1 Cd -0.5000 0.0000 0.0000
O1 O -0.11018(16) -0.42145(15) -0.4280(3)
O2 O -0.0988(2) -0.49868(11) -0.2257(4)
N1 N -0.45904(18) -0.13614(16) -0.0495(3)
N2 N -0.4407(2) -0.27533(17) -0.0261(4)
N3 N -0.38889(17) -0.24244(16) -0.1133(3)
C1 C -0.4813(3) -0.2088(3) 0.0075(4)
H1 H -0.5225 -0.2114 0.0662
C2 C -0.4005(2) -0.1604(2) -0.1247(4)
H2 H -0.3716 -0.1250 -0.1779
C3 C -0.3276(2) -0.29330(19) -0.1683(4)
C4 C -0.3058(2) -0.3711(2) -0.1079(5)
H3 H -0.3326 -0.3916 -0.0347
C5 C -0.2872(3) -0.2625(2) -0.2749(5)
H4 H -0.3011 -0.2093 -0.3139
C6 C -0.2443(2) -0.4182(2) -0.1564(4)
H5 H -0.2304 -0.4712 -0.1164
C7 C -0.2256(3) -0.3110(2) -0.3243(4)
H6 H -0.1997 -0.2909 -0.3989
C8 C -0.2026(2) -0.38864(19) -0.2633(4)
C9 C -0.1319(2) -0.4395(2) -0.3098(4)
O1D O -0.88982(16) 0.42145(15) 0.4280(3)
O2D O -0.9012(2) 0.49868(11) 0.2257(4)
N1D N -0.54096(18) 0.13614(16) 0.0495(3)
N2D N -0.5593(2) 0.27533(17) 0.0261(4)
N3D N -0.61111(17) 0.24244(16) 0.1133(3)
C1D C -0.5187(3) 0.2088(3) -0.0075(4)
H1D H -0.4775 0.2114 -0.0662
C2D C -0.5995(2) 0.1604(2) 0.1247(4)
H2D H -0.6284 0.1250 0.1779
C3D C -0.6724(2) 0.29330(19) 0.1683(4)
C4D C -0.6942(2) 0.3711(2) 0.1079(5)
H3D H -0.6674 0.3916 0.0347
C5D C -0.7128(3) 0.2625(2) 0.2749(5)
H4D H -0.6989 0.2093 0.3139
C6D C -0.7557(2) 0.4182(2) 0.1564(4)
H5D H -0.7696 0.4712 0.1164
C7D C -0.7744(3) 0.3110(2) 0.3243(4)
H6D H -0.8003 0.2909 0.3989
C8D C -0.7974(2) 0.38864(19) 0.2633(4)
C9D C -0.8681(2) 0.4395(2) 0.3098(4)
Cd1B Cd -1.0000 0.5000 0.0000
Cd1B_2 Cd 0.0000 -0.5000 0.0000
Cd1C Cd -1.0000 0.5000 0.5000
Cd1C_2 Cd 0.0000 -0.5000 -0.5000
O1C O -0.38982(16) 0.07855(15) -0.0720(3)
O1G O -0.61018(16) -0.07855(15) 0.0720(3)
O2B O -0.5988(2) 0.00132(11) -0.2257(4)
O2F O -0.4012(2) -0.00132(11) 0.2257(4)
O3 O -0.4977(18) -0.5570(16) -0.179(2)
O3A O -0.5023(18) -0.5570(16) -0.321(2)
O4? O -0.538(2) -0.4912(14) -0.091(4)
O5? O -0.4139(13) -0.6093(12) -0.197(2)
loop_
_geom_bond_atom_site_label_1
_geom_bond_atom_site_label_2
_geom_bond_site_symmetry_1
_geom_bond_site_symmetry_2
Cd1 N1 1_555 1_555
O1 C9 1_555 1_555
O2 C9 1_555 1_555
N1 C1 1_555 1_555
N2 N3 1_555 1_555
N3 C2 1_555 1_555
C1 N2 1_555 1_555
H1 C1 1_555 1_555
C2 N1 1_555 1_555
H2 C2 1_555 1_555
C3 N3 1_555 1_555
C4 C3 1_555 1_555
H3 C4 1_555 1_555
C5 C3 1_555 1_555
H4 C5 1_555 1_555
C6 C4 1_555 1_555
H5 C6 1_555 1_555
C7 C5 1_555 1_555
H6 C7 1_555 1_555
C8 C6 1_555 1_555
C9 C8 1_555 1_555
O1D C9D 1_555 1_555
O2D C9D 1_555 1_555
N1D Cd1 1_555 1_555
N2D N3D 1_555 1_555
N3D C2D 1_555 1_555
C1D N1D 1_555 1_555
H1D C1D 1_555 1_555
C2D N1D 1_555 1_555
H2D C2D 1_555 1_555
C3D N3D 1_555 1_555
C4D C3D 1_555 1_555
H3D C4D 1_555 1_555
C5D C3D 1_555 1_555
H4D C5D 1_555 1_555
C6D C4D 1_555 1_555
H5D C6D 1_555 1_555
C7D C5D 1_555 1_555
H6D C7D 1_555 1_555
C8D C6D 1_555 1_555
C9D C8D 1_555 1_555
Cd1B O2D 1_555 1_555
Cd1B_2 O2 1_555 1_555
Cd1C O1D 1_555 1_555
Cd1C_2 O1 1_555 1_555
O1C Cd1 1_555 1_555
O1G Cd1 1_555 1_555
O2B Cd1 1_555 1_555
O2F Cd1 1_555 1_555
C7 C8 1_555 1_555
N2D C1D 1_555 1_555
C7D C8D 1_555 1_555

#END
