
#######################################################################
#
#                 Cambridge Crystallographic Data Centre
#                                CCDC 
#
#######################################################################
#
# If this CIF has been generated from an entry in the Cambridge 
# Structural Database, then it will include bibliographic, chemical, 
# crystal, experimental, refinement or atomic coordinate data resulting 
# from the CCDC's data processing and validation procedures.
#
#######################################################################

data_LUHVUH
_symmetry_cell_setting           cubic
_symmetry_space_group_name_H-M   'P m -3 m'
_symmetry_Int_Tables_number      221
_space_group_name_Hall           '-P 4 2 3'
loop_
_symmetry_equiv_pos_site_id
_symmetry_equiv_pos_as_xyz
1 x,y,z
2 -x,-y,z
3 -x,y,-z
4 x,-y,-z
5 z,x,y
6 z,-x,-y
7 -z,-x,y
8 -z,x,-y
9 y,z,x
10 -y,z,-x
11 y,-z,-x
12 -y,-z,x
13 y,x,-z
14 -y,-x,-z
15 y,-x,z
16 -y,x,z
17 x,z,-y
18 -x,z,y
19 -x,-z,-y
20 x,-z,y
21 z,y,-x
22 z,-y,x
23 -z,y,x
24 -z,-y,-x
25 -x,-y,-z
26 x,y,-z
27 x,-y,z
28 -x,y,z
29 -z,-x,-y
30 -z,x,y
31 z,x,-y
32 z,-x,y
33 -y,-z,-x
34 y,-z,x
35 -y,z,x
36 y,z,-x
37 -y,-x,z
38 y,x,z
39 -y,x,-z
40 y,-x,-z
41 -x,-z,y
42 x,-z,-y
43 x,z,y
44 -x,z,-y
45 -z,-y,x
46 -z,y,-x
47 z,-y,-x
48 z,y,x
_cell_length_a                   19.3042(5)
_cell_length_b                   19.3042(5)
_cell_length_c                   19.3042(5)
_cell_angle_alpha                90
_cell_angle_beta                 90
_cell_angle_gamma                90
_cell_volume                     7193.75
loop_
_atom_site_label
_atom_site_type_symbol
_atom_site_fract_x
_atom_site_fract_y
_atom_site_fract_z
O5 O 0.5000 0.122(4) 0.5000
O6 O 0.318(2) 0.318(2) 0.318(2)
Y1 Y 0.5000 0.35835(9) 0.5000
O1 O 0.5000 0.216(4) 0.5000
O2 O 0.5643(3) 0.4357(3) 0.5643(3)
H1 H 0.5936 0.4064 0.5936
C1 C 0.5000 0.3308(6) 0.3308(6)
O3 O 0.5000 0.3085(4) 0.3922(4)
C2 C 0.4646(12) 0.2973(10) 0.2108(9)
H2 H 0.4681 0.3431 0.1964
C3 C 0.4529(14) 0.2464(10) 0.1619(11)
H3 H 0.4506 0.2584 0.1153
C4 C 0.4110(15) 0.0758(5) 0.1312(17)
H4 H 0.3702 0.0706 0.1600
H5 H 0.4508 0.0564 0.1549
C5 C 0.4107(14) 0.0361(5) 0.0642(19)
O4 O 0.4324(19) 0.1445(10) 0.1175(15)
C6 C 0.4725(14) 0.2781(7) 0.2781(7)
C7 C 0.447(2) 0.1799(10) 0.1799(10)
C8 C 0.4108(14) 0.068(4) 0.0000
H6 H 0.41075 0.115945 0.0000
C1B C 0.5000 0.3308(6) -0.3308(6)
O3P O 0.5000 0.3922(4) -0.3085(4)
C2P C 0.4646(12) 0.2108(9) -0.2973(10)
H2P H 0.4681 0.1964 -0.3431
C3P C 0.4529(14) 0.1619(11) -0.2464(10)
H3P H 0.4506 0.1153 -0.2584
C4P C 0.4110(15) 0.1312(17) -0.0758(5)
H4P H 0.3702 0.1600 -0.0706
H5P H 0.4508 0.1549 -0.0564
C5P C 0.4107(14) 0.0642(19) -0.0361(5)
O4P O 0.4324(19) 0.1175(15) -0.1445(10)
C6P C 0.4725(14) 0.2781(7) -0.2781(7)
C7P C 0.447(2) 0.1799(10) -0.1799(10)
C8P C 0.4108(14) 0.0000 -0.068(4)
H6P H 0.41075 0.0000 -0.115945
O3Q O 0.5000 0.3922(4) 0.3085(4)
C2Q C 0.5354(12) 0.2108(9) 0.2973(10)
H2Q H 0.5319 0.1964 0.3431
C3Q C 0.5471(14) 0.1619(11) 0.2464(10)
H3Q H 0.5494 0.1153 0.2584
C4Q C 0.5890(15) 0.1312(17) 0.0758(5)
H4Q H 0.6298 0.1600 0.0706
H5Q H 0.5492 0.1549 0.0564
C5Q C 0.5893(14) 0.0642(19) 0.0361(5)
O4Q O 0.5676(19) 0.1175(15) 0.1445(10)
C6Q C 0.5275(14) 0.2781(7) 0.2781(7)
C7Q C 0.553(2) 0.1799(10) 0.1799(10)
C8Q C 0.5892(14) 0.0000 0.068(4)
H6Q H 0.58925 0.0000 0.115945
C1A C 0.5000 -0.3308(6) 0.3308(6)
O3S O 0.5000 -0.3922(4) 0.3085(4)
C2S C 0.4646(12) -0.2108(9) 0.2973(10)
H2S H 0.4681 -0.1964 0.3431
C3S C 0.4529(14) -0.1619(11) 0.2464(10)
H3S H 0.4506 -0.1153 0.2584
C4S C 0.4110(15) -0.1312(17) 0.0758(5)
H4S H 0.3702 -0.1600 0.0706
H5S H 0.4508 -0.1549 0.0564
C5S C 0.4107(14) -0.0642(19) 0.0361(5)
O4S O 0.4324(19) -0.1175(15) 0.1445(10)
C6S C 0.4725(14) -0.2781(7) 0.2781(7)
C7S C 0.447(2) -0.1799(10) 0.1799(10)
C8S C 0.4108(14) 0.0000 0.068(4)
H6S H 0.41075 0.0000 0.115945
O3B O 0.5000 0.3085(4) -0.3922(4)
C2Y C 0.4646(12) 0.2973(10) -0.2108(9)
H2Y H 0.4681 0.3431 -0.1964
C3Y C 0.4529(14) 0.2464(10) -0.1619(11)
H3Y H 0.4506 0.2584 -0.1153
C4Y C 0.4110(15) 0.0758(5) -0.1312(17)
H4Y H 0.3702 0.0706 -0.1600
H5Y H 0.4508 0.0564 -0.1549
C5Y C 0.4107(14) 0.0361(5) -0.0642(19)
O4Y O 0.4324(19) 0.1445(10) -0.1175(15)
O3A O 0.5000 -0.3085(4) 0.3922(4)
C2Z C 0.4646(12) -0.2973(10) 0.2108(9)
H2Z H 0.4681 -0.3431 0.1964
C3Z C 0.4529(14) -0.2464(10) 0.1619(11)
H3Z H 0.4506 -0.2584 0.1153
C4Z C 0.4110(15) -0.0758(5) 0.1312(17)
H4Z H 0.3702 -0.0706 0.1600
H5Z H 0.4508 -0.0564 0.1549
C5Z C 0.4107(14) -0.0361(5) 0.0642(19)
O4Z O 0.4324(19) -0.1445(10) 0.1175(15)
C8C C 0.4108(14) -0.068(4) 0.0000
H6C H 0.41075 -0.115945 0.0000
C2AA C 0.5354(12) 0.2973(10) 0.2108(9)
H2AA H 0.5319 0.3431 0.1964
C3AA C 0.5471(14) 0.2464(10) 0.1619(11)
H3AA H 0.5494 0.2584 0.1153
C4AA C 0.5890(15) 0.0758(5) 0.1312(17)
H4AA H 0.6298 0.0706 0.1600
H5AA H 0.5492 0.0564 0.1549
C5AA C 0.5893(14) 0.0361(5) 0.0642(19)
O4AA O 0.5676(19) 0.1445(10) 0.1175(15)
C8B C 0.5892(14) 0.068(4) 0.0000
H6B H 0.58925 0.115945 0.0000
C2NA C 0.5354(12) -0.2108(9) 0.2973(10)
H2NA H 0.5319 -0.1964 0.3431
C3NA C 0.5471(14) -0.1619(11) 0.2464(10)
H3NA H 0.5494 -0.1153 0.2584
C4NA C 0.5890(15) -0.1312(17) 0.0758(5)
H4NA H 0.6298 -0.1600 0.0706
H5NA H 0.5492 -0.1549 0.0564
C5NA C 0.5893(14) -0.0642(19) 0.0361(5)
O4NA O 0.5676(19) -0.1175(15) 0.1445(10)
C6A C 0.5275(14) -0.2781(7) 0.2781(7)
C7A C 0.553(2) -0.1799(10) 0.1799(10)
C1C C 0.5000 -0.3308(6) -0.3308(6)
O3R O 0.5000 -0.3922(4) -0.3085(4)
C2OA C 0.4646(12) -0.2108(9) -0.2973(10)
H2OA H 0.4681 -0.1964 -0.3431
C3OA C 0.4529(14) -0.1619(11) -0.2464(10)
H3OA H 0.4506 -0.1153 -0.2584
C4OA C 0.4110(15) -0.1312(17) -0.0758(5)
H4OA H 0.3702 -0.1600 -0.0706
H5OA H 0.4508 -0.1549 -0.0564
C5OA C 0.4107(14) -0.0642(19) -0.0361(5)
O4OA O 0.4324(19) -0.1175(15) -0.1445(10)
C6C C 0.4725(14) -0.2781(7) -0.2781(7)
C7C C 0.447(2) -0.1799(10) -0.1799(10)
C2PA C 0.4646(12) 0.2108(9) 0.2973(10)
H2PA H 0.4681 0.1964 0.3431
C3PA C 0.4529(14) 0.1619(11) 0.2464(10)
H3PA H 0.4506 0.1153 0.2584
C4PA C 0.4110(15) 0.1312(17) 0.0758(5)
H4PA H 0.3702 0.1600 0.0706
H5PA H 0.4508 0.1549 0.0564
C5PA C 0.4107(14) 0.0642(19) 0.0361(5)
O4PA O 0.4324(19) 0.1175(15) 0.1445(10)
C2QA C 0.5354(12) 0.2108(9) -0.2973(10)
H2QA H 0.5319 0.1964 -0.3431
C3QA C 0.5471(14) 0.1619(11) -0.2464(10)
H3QA H 0.5494 0.1153 -0.2584
C4QA C 0.5890(15) 0.1312(17) -0.0758(5)
H4QA H 0.6298 0.1600 -0.0706
H5QA H 0.5492 0.1549 -0.0564
C5QA C 0.5893(14) 0.0642(19) -0.0361(5)
O4QA O 0.5676(19) 0.1175(15) -0.1445(10)
C6B C 0.5275(14) 0.2781(7) -0.2781(7)
C7B C 0.553(2) 0.1799(10) -0.1799(10)
C8R C 0.5892(14) 0.0000 -0.068(4)
H6R H 0.58925 0.0000 -0.115945
C2A C 0.5354(12) -0.2973(10) 0.2108(9)
H2A H 0.5319 -0.3431 0.1964
C3A C 0.5471(14) -0.2464(10) 0.1619(11)
H3A H 0.5494 -0.2584 0.1153
C4A C 0.5890(15) -0.0758(5) 0.1312(17)
H4A H 0.6298 -0.0706 0.1600
H5A H 0.5492 -0.0564 0.1549
C5A C 0.5893(14) -0.0361(5) 0.0642(19)
O4A O 0.5676(19) -0.1445(10) 0.1175(15)
C8A C 0.5892(14) -0.068(4) 0.0000
H6A H 0.58925 -0.115945 0.0000
C2B C 0.5354(12) 0.2973(10) -0.2108(9)
H2B H 0.5319 0.3431 -0.1964
C3B C 0.5471(14) 0.2464(10) -0.1619(11)
H3B H 0.5494 0.2584 -0.1153
C4B C 0.5890(15) 0.0758(5) -0.1312(17)
H4B H 0.6298 0.0706 -0.1600
H5B H 0.5492 0.0564 -0.1549
C5B C 0.5893(14) 0.0361(5) -0.0642(19)
O4B O 0.5676(19) 0.1445(10) -0.1175(15)
O3C O 0.5000 -0.3085(4) -0.3922(4)
C2C C 0.4646(12) -0.2973(10) -0.2108(9)
H2C H 0.4681 -0.3431 -0.1964
C3C C 0.4529(14) -0.2464(10) -0.1619(11)
H3C H 0.4506 -0.2584 -0.1153
C4C C 0.4110(15) -0.0758(5) -0.1312(17)
H4C H 0.3702 -0.0706 -0.1600
H5C H 0.4508 -0.0564 -0.1549
C5C C 0.4107(14) -0.0361(5) -0.0642(19)
O4C O 0.4324(19) -0.1445(10) -0.1175(15)
C2R C 0.5354(12) -0.2108(9) -0.2973(10)
H2R H 0.5319 -0.1964 -0.3431
C3R C 0.5471(14) -0.1619(11) -0.2464(10)
H3R H 0.5494 -0.1153 -0.2584
C4R C 0.5890(15) -0.1312(17) -0.0758(5)
H4R H 0.6298 -0.1600 -0.0706
H5R H 0.5492 -0.1549 -0.0564
C5R C 0.5893(14) -0.0642(19) -0.0361(5)
O4R O 0.5676(19) -0.1175(15) -0.1445(10)
C6R C 0.5275(14) -0.2781(7) -0.2781(7)
C7R C 0.553(2) -0.1799(10) -0.1799(10)
C2X C 0.5354(12) -0.2973(10) -0.2108(9)
H2X H 0.5319 -0.3431 -0.1964
C3X C 0.5471(14) -0.2464(10) -0.1619(11)
H3X H 0.5494 -0.2584 -0.1153
C4X C 0.5890(15) -0.0758(5) -0.1312(17)
H4X H 0.6298 -0.0706 -0.1600
H5X H 0.5492 -0.0564 -0.1549
C5X C 0.5893(14) -0.0361(5) -0.0642(19)
O4X O 0.5676(19) -0.1445(10) -0.1175(15)
Y1A Y 0.5000 -0.35835(9) 0.5000
O1A O 0.5000 -0.216(4) 0.5000
O2A O 0.4357(3) -0.4357(3) 0.5643(3)
H1A H 0.4064 -0.4064 0.5936
Y1_2 Y 0.5000 0.35835(9) -0.5000
O1_2 O 0.5000 0.216(4) -0.5000
O2B O 0.4357(3) 0.4357(3) -0.5643(3)
H1B H 0.4064 0.4064 -0.5936
O2B_2 O 0.4357(3) 0.4357(3) 0.4357(3)
H1B_2 H 0.4064 0.4064 0.4064
C1B_2 C 0.5000 0.3308(6) 0.6692(6)
O3B_2 O 0.5000 0.3085(4) 0.6078(4)
C2B_2 C 0.5354(12) 0.2973(10) 0.7892(9)
H2B_2 H 0.5319 0.3431 0.8036
C3B_2 C 0.5471(14) 0.2464(10) 0.8381(11)
H3B_2 H 0.5494 0.2584 0.8847
C4B_2 C 0.5890(15) 0.0758(5) 0.8688(17)
H4B_2 H 0.6298 0.0706 0.8400
H5B_2 H 0.5492 0.0564 0.8451
C5B_2 C 0.5893(14) 0.0361(5) 0.9358(19)
O4B_2 O 0.5676(19) 0.1445(10) 0.8825(15)
C6B_2 C 0.5275(14) 0.2781(7) 0.7219(7)
C7B_2 C 0.553(2) 0.1799(10) 0.8201(10)
C8B_2 C 0.5892(14) 0.068(4) 1.0000
H6B_2 H 0.58925 0.115945 1.0000
C1_2 C 0.5000 0.3308(6) 1.3308(6)
O3Q_2 O 0.5000 0.3922(4) 1.3085(4)
C2Q_2 C 0.5354(12) 0.2108(9) 1.2973(10)
H2Q_2 H 0.5319 0.1964 1.3431
C3Q_2 C 0.5471(14) 0.1619(11) 1.2464(10)
H3Q_2 H 0.5494 0.1153 1.2584
C4Q_2 C 0.5890(15) 0.1312(17) 1.0758(5)
H4Q_2 H 0.6298 0.1600 1.0706
H5Q_2 H 0.5492 0.1549 1.0564
C5Q_2 C 0.5893(14) 0.0642(19) 1.0361(5)
O4Q_2 O 0.5676(19) 0.1175(15) 1.1445(10)
C6Q_2 C 0.5275(14) 0.2781(7) 1.2781(7)
C7Q_2 C 0.553(2) 0.1799(10) 1.1799(10)
C8Q_2 C 0.5892(14) 0.0000 1.068(4)
H6Q_2 H 0.58925 0.0000 1.115945
O3P_2 O 0.5000 0.3922(4) 0.6915(4)
C2P_2 C 0.4646(12) 0.2108(9) 0.7027(10)
H2P_2 H 0.4681 0.1964 0.6569
C3P_2 C 0.4529(14) 0.1619(11) 0.7536(10)
H3P_2 H 0.4506 0.1153 0.7416
C4P_2 C 0.4110(15) 0.1312(17) 0.9242(5)
H4P_2 H 0.3702 0.1600 0.9294
H5P_2 H 0.4508 0.1549 0.9436
C5P_2 C 0.4107(14) 0.0642(19) 0.9639(5)
O4P_2 O 0.4324(19) 0.1175(15) 0.8555(10)
C6P_2 C 0.4725(14) 0.2781(7) 0.7219(7)
C7P_2 C 0.447(2) 0.1799(10) 0.8201(10)
C8P_2 C 0.4108(14) 0.0000 0.932(4)
H6P_2 H 0.41075 0.0000 0.884055
C1C_2 C 0.5000 -0.3308(6) 0.6692(6)
O3R_2 O 0.5000 -0.3922(4) 0.6915(4)
C2R_2 C 0.5354(12) -0.2108(9) 0.7027(10)
H2R_2 H 0.5319 -0.1964 0.6569
C3R_2 C 0.5471(14) -0.1619(11) 0.7536(10)
H3R_2 H 0.5494 -0.1153 0.7416
C4R_2 C 0.5890(15) -0.1312(17) 0.9242(5)
H4R_2 H 0.6298 -0.1600 0.9294
H5R_2 H 0.5492 -0.1549 0.9436
C5R_2 C 0.5893(14) -0.0642(19) 0.9639(5)
O4R_2 O 0.5676(19) -0.1175(15) 0.8555(10)
C6R_2 C 0.5275(14) -0.2781(7) 0.7219(7)
C7R_2 C 0.553(2) -0.1799(10) 0.8201(10)
C8R_2 C 0.5892(14) 0.0000 0.932(4)
H6R_2 H 0.58925 0.0000 0.884055
O3_2 O 0.5000 0.3085(4) 1.3922(4)
C2AA_2 C 0.5354(12) 0.2973(10) 1.2108(9)
H2AA_2 H 0.5319 0.3431 1.1964
C3AA_2 C 0.5471(14) 0.2464(10) 1.1619(11)
H3AA_2 H 0.5494 0.2584 1.1153
C4AA_2 C 0.5890(15) 0.0758(5) 1.1312(17)
H4AA_2 H 0.6298 0.0706 1.1600
H5AA_2 H 0.5492 0.0564 1.1549
C5AA_2 C 0.5893(14) 0.0361(5) 1.0642(19)
O4AA_2 O 0.5676(19) 0.1445(10) 1.1175(15)
O3C_2 O 0.5000 -0.3085(4) 0.6078(4)
C2X_2 C 0.5354(12) -0.2973(10) 0.7892(9)
H2X_2 H 0.5319 -0.3431 0.8036
C3X_2 C 0.5471(14) -0.2464(10) 0.8381(11)
H3X_2 H 0.5494 -0.2584 0.8847
C4X_2 C 0.5890(15) -0.0758(5) 0.8688(17)
H4X_2 H 0.6298 -0.0706 0.8400
H5X_2 H 0.5492 -0.0564 0.8451
C5X_2 C 0.5893(14) -0.0361(5) 0.9358(19)
O4X_2 O 0.5676(19) -0.1445(10) 0.8825(15)
C8A_2 C 0.5892(14) -0.068(4) 1.0000
H6A_2 H 0.58925 -0.115945 1.0000
C2Y_2 C 0.4646(12) 0.2973(10) 0.7892(9)
H2Y_2 H 0.4681 0.3431 0.8036
C3Y_2 C 0.4529(14) 0.2464(10) 0.8381(11)
H3Y_2 H 0.4506 0.2584 0.8847
C4Y_2 C 0.4110(15) 0.0758(5) 0.8688(17)
H4Y_2 H 0.3702 0.0706 0.8400
H5Y_2 H 0.4508 0.0564 0.8451
C5Y_2 C 0.4107(14) 0.0361(5) 0.9358(19)
O4Y_2 O 0.4324(19) 0.1445(10) 0.8825(15)
C8_2 C 0.4108(14) 0.068(4) 1.0000
H6_2 H 0.41075 0.115945 1.0000
C2OA_2 C 0.4646(12) -0.2108(9) 0.7027(10)
H2OA_2 H 0.4681 -0.1964 0.6569
C3OA_2 C 0.4529(14) -0.1619(11) 0.7536(10)
H3OA_2 H 0.4506 -0.1153 0.7416
C4OA_2 C 0.4110(15) -0.1312(17) 0.9242(5)
H4OA_2 H 0.3702 -0.1600 0.9294
H5OA_2 H 0.4508 -0.1549 0.9436
C5OA_2 C 0.4107(14) -0.0642(19) 0.9639(5)
O4OA_2 O 0.4324(19) -0.1175(15) 0.8555(10)
C6C_2 C 0.4725(14) -0.2781(7) 0.7219(7)
C7C_2 C 0.447(2) -0.1799(10) 0.8201(10)
C1A_2 C 0.5000 -0.3308(6) 1.3308(6)
O3S_2 O 0.5000 -0.3922(4) 1.3085(4)
C2NA_2 C 0.5354(12) -0.2108(9) 1.2973(10)
H2NA_2 H 0.5319 -0.1964 1.3431
C3NA_2 C 0.5471(14) -0.1619(11) 1.2464(10)
H3NA_2 H 0.5494 -0.1153 1.2584
C4NA_2 C 0.5890(15) -0.1312(17) 1.0758(5)
H4NA_2 H 0.6298 -0.1600 1.0706
H5NA_2 H 0.5492 -0.1549 1.0564
C5NA_2 C 0.5893(14) -0.0642(19) 1.0361(5)
O4NA_2 O 0.5676(19) -0.1175(15) 1.1445(10)
C6A_2 C 0.5275(14) -0.2781(7) 1.2781(7)
C7A_2 C 0.553(2) -0.1799(10) 1.1799(10)
C2QA_2 C 0.5354(12) 0.2108(9) 0.7027(10)
H2QA_2 H 0.5319 0.1964 0.6569
C3QA_2 C 0.5471(14) 0.1619(11) 0.7536(10)
H3QA_2 H 0.5494 0.1153 0.7416
C4QA_2 C 0.5890(15) 0.1312(17) 0.9242(5)
H4QA_2 H 0.6298 0.1600 0.9294
H5QA_2 H 0.5492 0.1549 0.9436
C5QA_2 C 0.5893(14) 0.0642(19) 0.9639(5)
O4QA_2 O 0.5676(19) 0.1175(15) 0.8555(10)
C2PA_2 C 0.4646(12) 0.2108(9) 1.2973(10)
H2PA_2 H 0.4681 0.1964 1.3431
C3PA_2 C 0.4529(14) 0.1619(11) 1.2464(10)
H3PA_2 H 0.4506 0.1153 1.2584
C4PA_2 C 0.4110(15) 0.1312(17) 1.0758(5)
H4PA_2 H 0.3702 0.1600 1.0706
H5PA_2 H 0.4508 0.1549 1.0564
C5PA_2 C 0.4107(14) 0.0642(19) 1.0361(5)
O4PA_2 O 0.4324(19) 0.1175(15) 1.1445(10)
C6_2 C 0.4725(14) 0.2781(7) 1.2781(7)
C7_2 C 0.447(2) 0.1799(10) 1.1799(10)
C8S_2 C 0.4108(14) 0.0000 1.068(4)
H6S_2 H 0.41075 0.0000 1.115945
C2C_2 C 0.4646(12) -0.2973(10) 0.7892(9)
H2C_2 H 0.4681 -0.3431 0.8036
C3C_2 C 0.4529(14) -0.2464(10) 0.8381(11)
H3C_2 H 0.4506 -0.2584 0.8847
C4C_2 C 0.4110(15) -0.0758(5) 0.8688(17)
H4C_2 H 0.3702 -0.0706 0.8400
H5C_2 H 0.4508 -0.0564 0.8451
C5C_2 C 0.4107(14) -0.0361(5) 0.9358(19)
O4C_2 O 0.4324(19) -0.1445(10) 0.8825(15)
C8C_2 C 0.4108(14) -0.068(4) 1.0000
H6C_2 H 0.41075 -0.115945 1.0000
C2_2 C 0.4646(12) 0.2973(10) 1.2108(9)
H2_2 H 0.4681 0.3431 1.1964
C3_2 C 0.4529(14) 0.2464(10) 1.1619(11)
H3_2 H 0.4506 0.2584 1.1153
C4_2 C 0.4110(15) 0.0758(5) 1.1312(17)
H4_2 H 0.3702 0.0706 1.1600
H5_2 H 0.4508 0.0564 1.1549
C5_2 C 0.4107(14) 0.0361(5) 1.0642(19)
O4_2 O 0.4324(19) 0.1445(10) 1.1175(15)
O3A_2 O 0.5000 -0.3085(4) 1.3922(4)
C2A_2 C 0.5354(12) -0.2973(10) 1.2108(9)
H2A_2 H 0.5319 -0.3431 1.1964
C3A_2 C 0.5471(14) -0.2464(10) 1.1619(11)
H3A_2 H 0.5494 -0.2584 1.1153
C4A_2 C 0.5890(15) -0.0758(5) 1.1312(17)
H4A_2 H 0.6298 -0.0706 1.1600
H5A_2 H 0.5492 -0.0564 1.1549
C5A_2 C 0.5893(14) -0.0361(5) 1.0642(19)
O4A_2 O 0.5676(19) -0.1445(10) 1.1175(15)
C2S_2 C 0.4646(12) -0.2108(9) 1.2973(10)
H2S_2 H 0.4681 -0.1964 1.3431
C3S_2 C 0.4529(14) -0.1619(11) 1.2464(10)
H3S_2 H 0.4506 -0.1153 1.2584
C4S_2 C 0.4110(15) -0.1312(17) 1.0758(5)
H4S_2 H 0.3702 -0.1600 1.0706
H5S_2 H 0.4508 -0.1549 1.0564
C5S_2 C 0.4107(14) -0.0642(19) 1.0361(5)
O4S_2 O 0.4324(19) -0.1175(15) 1.1445(10)
C6S_2 C 0.4725(14) -0.2781(7) 1.2781(7)
C7S_2 C 0.447(2) -0.1799(10) 1.1799(10)
C2Z_2 C 0.4646(12) -0.2973(10) 1.2108(9)
H2Z_2 H 0.4681 -0.3431 1.1964
C3Z_2 C 0.4529(14) -0.2464(10) 1.1619(11)
H3Z_2 H 0.4506 -0.2584 1.1153
C4Z_2 C 0.4110(15) -0.0758(5) 1.1312(17)
H4Z_2 H 0.3702 -0.0706 1.1600
H5Z_2 H 0.4508 -0.0564 1.1549
C5Z_2 C 0.4107(14) -0.0361(5) 1.0642(19)
O4Z_2 O 0.4324(19) -0.1445(10) 1.1175(15)
Y1A_2 Y 0.5000 -0.35835(9) -0.5000
O1A_2 O 0.5000 -0.216(4) -0.5000
Y1D Y 0.5000 -0.5000 1.35835(9)
O1D O 0.5000 -0.5000 1.216(4)
O2C O 0.5643(3) -0.4357(3) 1.4357(3)
H1C H 0.5936 -0.4064 1.4064
C1D C 0.3308(6) -0.5000 1.3308(6)
O3D O 0.3922(4) -0.5000 1.3085(4)
C2D C 0.2108(9) -0.5354(12) 1.2973(10)
H2D H 0.1964 -0.5319 1.3431
C3D C 0.1619(11) -0.5471(14) 1.2464(10)
H3D H 0.1153 -0.5494 1.2584
C4D C 0.1312(17) -0.5890(15) 1.0758(5)
H4D H 0.1600 -0.6298 1.0706
H5D H 0.1549 -0.5492 1.0564
C5D C 0.0642(19) -0.5893(14) 1.0361(5)
O4D O 0.1175(15) -0.5676(19) 1.1445(10)
C6D C 0.2781(7) -0.5275(14) 1.2781(7)
C7D C 0.1799(10) -0.553(2) 1.1799(10)
C8D C 0.0000 -0.5892(14) 1.068(4)
H6D H 0.0000 -0.58925 1.115945
C1F C -0.3308(6) -0.5000 1.3308(6)
O3O O -0.3085(4) -0.5000 1.3922(4)
C2O C -0.2973(10) -0.5354(12) 1.2108(9)
H2O H -0.3431 -0.5319 1.1964
C3O C -0.2464(10) -0.5471(14) 1.1619(11)
H3O H -0.2584 -0.5494 1.1153
C4O C -0.0758(5) -0.5890(15) 1.1312(17)
H4O H -0.0706 -0.6298 1.1600
H5O H -0.0564 -0.5492 1.1549
C5O C -0.0361(5) -0.5893(14) 1.0642(19)
O4O O -0.1445(10) -0.5676(19) 1.1175(15)
C6O C -0.2781(7) -0.5275(14) 1.2781(7)
C7O C -0.1799(10) -0.553(2) 1.1799(10)
C8O C -0.068(4) -0.5892(14) 1.0000
H6O H -0.115945 -0.58925 1.0000
O3N O 0.3085(4) -0.5000 1.3922(4)
C2N C 0.2973(10) -0.4646(12) 1.2108(9)
H2N H 0.3431 -0.4681 1.1964
C3N C 0.2464(10) -0.4529(14) 1.1619(11)
H3N H 0.2584 -0.4506 1.1153
C4N C 0.0758(5) -0.4110(15) 1.1312(17)
H4N H 0.0706 -0.3702 1.1600
H5N H 0.0564 -0.4508 1.1549
C5N C 0.0361(5) -0.4107(14) 1.0642(19)
O4N O 0.1445(10) -0.4324(19) 1.1175(15)
C6N C 0.2781(7) -0.4725(14) 1.2781(7)
C7N C 0.1799(10) -0.447(2) 1.1799(10)
C8N C 0.068(4) -0.4108(14) 1.0000
H6N H 0.115945 -0.41075 1.0000
C1E C 0.3308(6) -0.5000 0.6692(6)
O3L O 0.3085(4) -0.5000 0.6078(4)
C2L C 0.2973(10) -0.5354(12) 0.7892(9)
H2L H 0.3431 -0.5319 0.8036
C3L C 0.2464(10) -0.5471(14) 0.8381(11)
H3L H 0.2584 -0.5494 0.8847
C4L C 0.0758(5) -0.5890(15) 0.8688(17)
H4L H 0.0706 -0.6298 0.8400
H5L H 0.0564 -0.5492 0.8451
C5L C 0.0361(5) -0.5893(14) 0.9358(19)
O4L O 0.1445(10) -0.5676(19) 0.8825(15)
C6L C 0.2781(7) -0.5275(14) 0.7219(7)
C7L C 0.1799(10) -0.553(2) 0.8201(10)
C8L C 0.068(4) -0.5892(14) 1.0000
H6L H 0.115945 -0.58925 1.0000
O3F O -0.3922(4) -0.5000 1.3085(4)
C2CA C -0.2108(9) -0.5354(12) 1.2973(10)
H2CA H -0.1964 -0.5319 1.3431
C3CA C -0.1619(11) -0.5471(14) 1.2464(10)
H3CA H -0.1153 -0.5494 1.2584
C4CA C -0.1312(17) -0.5890(15) 1.0758(5)
H4CA H -0.1600 -0.6298 1.0706
H5CA H -0.1549 -0.5492 1.0564
C5CA C -0.0642(19) -0.5893(14) 1.0361(5)
O4CA O -0.1175(15) -0.5676(19) 1.1445(10)
O3E O 0.3922(4) -0.5000 0.6915(4)
C2DA C 0.2108(9) -0.5354(12) 0.7027(10)
H2DA H 0.1964 -0.5319 0.6569
C3DA C 0.1619(11) -0.5471(14) 0.7536(10)
H3DA H 0.1153 -0.5494 0.7416
C4DA C 0.1312(17) -0.5890(15) 0.9242(5)
H4DA H 0.1600 -0.6298 0.9294
H5DA H 0.1549 -0.5492 0.9436
C5DA C 0.0642(19) -0.5893(14) 0.9639(5)
O4DA O 0.1175(15) -0.5676(19) 0.8555(10)
C8G C 0.0000 -0.5892(14) 0.932(4)
H6G H 0.0000 -0.58925 0.884055
C2EA C 0.2108(9) -0.4646(12) 1.2973(10)
H2EA H 0.1964 -0.4681 1.3431
C3EA C 0.1619(11) -0.4529(14) 1.2464(10)
H3EA H 0.1153 -0.4506 1.2584
C4EA C 0.1312(17) -0.4110(15) 1.0758(5)
H4EA H 0.1600 -0.3702 1.0706
H5EA H 0.1549 -0.4508 1.0564
C5EA C 0.0642(19) -0.4107(14) 1.0361(5)
O4EA O 0.1175(15) -0.4324(19) 1.1445(10)
C8F C 0.0000 -0.4108(14) 1.068(4)
H6F H 0.0000 -0.41075 1.115945
C2MA C 0.2973(10) -0.4646(12) 0.7892(9)
H2MA H 0.3431 -0.4681 0.8036
C3MA C 0.2464(10) -0.4529(14) 0.8381(11)
H3MA H 0.2584 -0.4506 0.8847
C4MA C 0.0758(5) -0.4110(15) 0.8688(17)
H4MA H 0.0706 -0.3702 0.8400
H5MA H 0.0564 -0.4508 0.8451
C5MA C 0.0361(5) -0.4107(14) 0.9358(19)
O4MA O 0.1445(10) -0.4324(19) 0.8825(15)
C6E C 0.2781(7) -0.4725(14) 0.7219(7)
C7E C 0.1799(10) -0.447(2) 0.8201(10)
C1G C -0.3308(6) -0.5000 0.6692(6)
O3M O -0.3085(4) -0.5000 0.6078(4)
C2LA C -0.2973(10) -0.5354(12) 0.7892(9)
H2LA H -0.3431 -0.5319 0.8036
C3LA C -0.2464(10) -0.5471(14) 0.8381(11)
H3LA H -0.2584 -0.5494 0.8847
C4LA C -0.0758(5) -0.5890(15) 0.8688(17)
H4LA H -0.0706 -0.6298 0.8400
H5LA H -0.0564 -0.5492 0.8451
C5LA C -0.0361(5) -0.5893(14) 0.9358(19)
O4LA O -0.1445(10) -0.5676(19) 0.8825(15)
C6G C -0.2781(7) -0.5275(14) 0.7219(7)
C7G C -0.1799(10) -0.553(2) 0.8201(10)
C2KA C 0.2973(10) -0.5354(12) 1.2108(9)
H2KA H 0.3431 -0.5319 1.1964
C3KA C 0.2464(10) -0.5471(14) 1.1619(11)
H3KA H 0.2584 -0.5494 1.1153
C4KA C 0.0758(5) -0.5890(15) 1.1312(17)
H4KA H 0.0706 -0.6298 1.1600
H5KA H 0.0564 -0.5492 1.1549
C5KA C 0.0361(5) -0.5893(14) 1.0642(19)
O4KA O 0.1445(10) -0.5676(19) 1.1175(15)
C2JA C -0.2973(10) -0.4646(12) 1.2108(9)
H2JA H -0.3431 -0.4681 1.1964
C3JA C -0.2464(10) -0.4529(14) 1.1619(11)
H3JA H -0.2584 -0.4506 1.1153
C4JA C -0.0758(5) -0.4110(15) 1.1312(17)
H4JA H -0.0706 -0.3702 1.1600
H5JA H -0.0564 -0.4508 1.1549
C5JA C -0.0361(5) -0.4107(14) 1.0642(19)
O4JA O -0.1445(10) -0.4324(19) 1.1175(15)
C6F C -0.2781(7) -0.4725(14) 1.2781(7)
C7F C -0.1799(10) -0.447(2) 1.1799(10)
C8M C -0.068(4) -0.4108(14) 1.0000
H6M H -0.115945 -0.41075 1.0000
C2E C 0.2108(9) -0.4646(12) 0.7027(10)
H2E H 0.1964 -0.4681 0.6569
C3E C 0.1619(11) -0.4529(14) 0.7536(10)
H3E H 0.1153 -0.4506 0.7416
C4E C 0.1312(17) -0.4110(15) 0.9242(5)
H4E H 0.1600 -0.3702 0.9294
H5E H 0.1549 -0.4508 0.9436
C5E C 0.0642(19) -0.4107(14) 0.9639(5)
O4E O 0.1175(15) -0.4324(19) 0.8555(10)
C8E C 0.0000 -0.4108(14) 0.932(4)
H6E H 0.0000 -0.41075 0.884055
C2F C -0.2108(9) -0.4646(12) 1.2973(10)
H2F H -0.1964 -0.4681 1.3431
C3F C -0.1619(11) -0.4529(14) 1.2464(10)
H3F H -0.1153 -0.4506 1.2584
C4F C -0.1312(17) -0.4110(15) 1.0758(5)
H4F H -0.1600 -0.3702 1.0706
H5F H -0.1549 -0.4508 1.0564
C5F C -0.0642(19) -0.4107(14) 1.0361(5)
O4F O -0.1175(15) -0.4324(19) 1.1445(10)
O3G O -0.3922(4) -0.5000 0.6915(4)
C2G C -0.2108(9) -0.5354(12) 0.7027(10)
H2G H -0.1964 -0.5319 0.6569
C3G C -0.1619(11) -0.5471(14) 0.7536(10)
H3G H -0.1153 -0.5494 0.7416
C4G C -0.1312(17) -0.5890(15) 0.9242(5)
H4G H -0.1600 -0.6298 0.9294
H5G H -0.1549 -0.5492 0.9436
C5G C -0.0642(19) -0.5893(14) 0.9639(5)
O4G O -0.1175(15) -0.5676(19) 0.8555(10)
C2M C -0.2973(10) -0.4646(12) 0.7892(9)
H2M H -0.3431 -0.4681 0.8036
C3M C -0.2464(10) -0.4529(14) 0.8381(11)
H3M H -0.2584 -0.4506 0.8847
C4M C -0.0758(5) -0.4110(15) 0.8688(17)
H4M H -0.0706 -0.3702 0.8400
H5M H -0.0564 -0.4508 0.8451
C5M C -0.0361(5) -0.4107(14) 0.9358(19)
O4M O -0.1445(10) -0.4324(19) 0.8825(15)
C6M C -0.2781(7) -0.4725(14) 0.7219(7)
C7M C -0.1799(10) -0.447(2) 0.8201(10)
C2BA C -0.2108(9) -0.4646(12) 0.7027(10)
H2BA H -0.1964 -0.4681 0.6569
C3BA C -0.1619(11) -0.4529(14) 0.7536(10)
H3BA H -0.1153 -0.4506 0.7416
C4BA C -0.1312(17) -0.4110(15) 0.9242(5)
H4BA H -0.1600 -0.3702 0.9294
H5BA H -0.1549 -0.4508 0.9436
C5BA C -0.0642(19) -0.4107(14) 0.9639(5)
O4BA O -0.1175(15) -0.4324(19) 0.8555(10)
Y1D_2 Y 0.5000 0.5000 0.35835(9)
O1D_2 O 0.5000 0.5000 0.216(4)
O2C_2 O 0.5643(3) 0.5643(3) 0.4357(3)
H1C_2 H 0.5936 0.5936 0.4064
O2O O 0.5643(3) -0.4357(3) 0.5643(3)
H1O H 0.5936 -0.4064 0.5936
O2N O 0.4357(3) 0.4357(3) 0.5643(3)
H1N H 0.4064 0.4064 0.5936
Y1_3 Y 0.5000 0.35835(9) 1.5000
Y1A_3 Y 0.5000 -0.35835(9) 1.5000
Y1A_4 Y 0.5000 0.64165(9) 0.5000
Y1D_3 Y -0.5000 -0.5000 1.35835(9)
Y1D_4 Y 0.5000 -0.5000 0.35835(9)
Y1D_5 Y 0.5000 0.5000 -0.64165(9)
Y1D_6 Y 0.5000 0.5000 1.35835(9)
Y1E Y -0.5000 -0.5000 0.64165(9)
Y1E_2 Y 0.5000 -0.5000 -0.35835(9)
Y1E_3 Y 0.5000 -0.5000 0.64165(9)
Y1E_4 Y 0.5000 0.5000 -0.35835(9)
Y1E_5 Y 0.5000 0.5000 0.64165(9)
Y1H Y 0.35835(9) -0.5000 0.5000
Y1H_2 Y 0.35835(9) -0.5000 1.5000
Y1H_3 Y 0.35835(9) 0.5000 -0.5000
Y1H_4 Y 0.35835(9) 0.5000 0.5000
Y1I Y -0.35835(9) -0.5000 0.5000
Y1I_2 Y -0.35835(9) -0.5000 1.5000
Y1I_3 Y 0.64165(9) -0.5000 0.5000
Y1I_4 Y 0.64165(9) -0.5000 1.5000
Y1I_5 Y 0.64165(9) 0.5000 0.5000
O2_2 O 0.5643(3) 0.4357(3) -0.4357(3)
O2A_2 O 0.4357(3) -0.4357(3) -0.4357(3)
O2B_3 O 0.4357(3) -0.5643(3) 1.4357(3)
O2C_3 O 0.5643(3) -0.4357(3) -0.5643(3)
O2C_4 O 0.5643(3) -0.4357(3) 0.4357(3)
O2L O 0.4357(3) -0.4357(3) -0.5643(3)
O2L_2 O 0.4357(3) -0.4357(3) 0.4357(3)
O2L_3 O 0.4357(3) -0.4357(3) 1.4357(3)
O2L_4 O 0.4357(3) 0.5643(3) 0.4357(3)
O2M O 0.5643(3) -0.5643(3) 1.4357(3)
O2M_2 O 0.5643(3) 0.4357(3) -0.5643(3)
O2M_3 O 0.5643(3) 0.4357(3) 0.4357(3)
O2N_2 O 0.4357(3) 0.4357(3) -0.4357(3)
O2O_2 O 0.5643(3) -0.4357(3) -0.4357(3)
O3_3 O 0.5000 0.3085(4) -0.6078(4)
O3A_3 O 0.5000 -0.3085(4) -0.6078(4)
O3D_2 O 0.3922(4) 0.5000 0.3085(4)
O3F_2 O 0.6078(4) -0.5000 1.3085(4)
O3F_3 O 0.6078(4) 0.5000 0.3085(4)
O3Q_3 O 0.5000 -0.6078(4) 1.3085(4)
O3S_3 O 0.5000 0.6078(4) 0.3085(4)
O3T O 0.3922(4) 0.3085(4) -0.5000
O3T_2 O 0.3922(4) 0.3085(4) 0.5000
O3U O 0.3922(4) -0.3085(4) -0.5000
O3U_2 O 0.3922(4) -0.3085(4) 0.5000
O3V O 0.6078(4) 0.3085(4) -0.5000
O3V_2 O 0.6078(4) 0.3085(4) 0.5000
O3W O 0.6078(4) -0.3085(4) -0.5000
O3W_2 O 0.6078(4) -0.3085(4) 0.5000
loop_
_geom_bond_atom_site_label_1
_geom_bond_atom_site_label_2
_geom_bond_site_symmetry_1
_geom_bond_site_symmetry_2
Y1 O1 1_555 1_555
O2 Y1 1_555 1_555
H1 O2 1_555 1_555
C1 O3 1_555 1_555
O3 Y1 1_555 1_555
C2 H2 1_555 1_555
C3 C2 1_555 1_555
H3 C3 1_555 1_555
C4 H4 1_555 1_555
H5 C4 1_555 1_555
C5 C4 1_555 1_555
O4 C4 1_555 1_555
C6 C1 1_555 1_555
C7 C3 1_555 1_555
C8 C5 1_555 1_555
H6 C8 1_555 1_555
C1B O3P 1_555 1_555
O3P Y1E_4 1_555 1_555
C2P H2P 1_555 1_555
C3P C2P 1_555 1_555
H3P C3P 1_555 1_555
C4P H4P 1_555 1_555
H5P C4P 1_555 1_555
C5P C4P 1_555 1_555
O4P C4P 1_555 1_555
C6P C1B 1_555 1_555
C7P C3P 1_555 1_555
C8P C5P 1_555 1_555
H6P C8P 1_555 1_555
O3Q C1 1_555 1_555
C2Q H2Q 1_555 1_555
C3Q C2Q 1_555 1_555
H3Q C3Q 1_555 1_555
C4Q H4Q 1_555 1_555
H5Q C4Q 1_555 1_555
C5Q C4Q 1_555 1_555
O4Q C4Q 1_555 1_555
C6Q C1 1_555 1_555
C7Q C3Q 1_555 1_555
C8Q C5Q 1_555 1_555
H6Q C8Q 1_555 1_555
C1A O3S 1_555 1_555
O3S Y1D_4 1_555 1_555
C2S H2S 1_555 1_555
C3S C2S 1_555 1_555
H3S C3S 1_555 1_555
C4S H4S 1_555 1_555
H5S C4S 1_555 1_555
C5S C4S 1_555 1_555
O4S C4S 1_555 1_555
C6S C1A 1_555 1_555
C7S C3S 1_555 1_555
C8S C5S 1_555 1_555
H6S C8S 1_555 1_555
O3B C1B 1_555 1_555
C2Y C6P 1_555 1_555
H2Y C2Y 1_555 1_555
C3Y C7P 1_555 1_555
H3Y C3Y 1_555 1_555
C4Y H4Y 1_555 1_555
H5Y C4Y 1_555 1_555
C5Y C8 1_555 1_555
O4Y C7P 1_555 1_555
O3A C1A 1_555 1_555
C2Z C6S 1_555 1_555
H2Z C2Z 1_555 1_555
C3Z C7S 1_555 1_555
H3Z C3Z 1_555 1_555
C4Z H4Z 1_555 1_555
H5Z C4Z 1_555 1_555
C5Z C5 1_555 1_555
O4Z C7S 1_555 1_555
C8C C5Z 1_555 1_555
H6C C8C 1_555 1_555
C2AA C6Q 1_555 1_555
H2AA C2AA 1_555 1_555
C3AA C7Q 1_555 1_555
H3AA C3AA 1_555 1_555
C4AA H4AA 1_555 1_555
H5AA C4AA 1_555 1_555
C5AA C4AA 1_555 1_555
O4AA C7Q 1_555 1_555
C8B C5AA 1_555 1_555
H6B C8B 1_555 1_555
C2NA H2NA 1_555 1_555
C3NA C2NA 1_555 1_555
H3NA C3NA 1_555 1_555
C4NA H4NA 1_555 1_555
H5NA C4NA 1_555 1_555
C5NA C8Q 1_555 1_555
O4NA C4NA 1_555 1_555
C6A C1A 1_555 1_555
C7A C3NA 1_555 1_555
C1C O3R 1_555 1_555
O3R Y1E_2 1_555 1_555
C2OA H2OA 1_555 1_555
C3OA C2OA 1_555 1_555
H3OA C3OA 1_555 1_555
C4OA H4OA 1_555 1_555
H5OA C4OA 1_555 1_555
C5OA C8P 1_555 1_555
O4OA C4OA 1_555 1_555
C6C C1C 1_555 1_555
C7C C3OA 1_555 1_555
C2PA C6 1_555 1_555
H2PA C2PA 1_555 1_555
C3PA C7 1_555 1_555
H3PA C3PA 1_555 1_555
C4PA H4PA 1_555 1_555
H5PA C4PA 1_555 1_555
C5PA C5P 1_555 1_555
O4PA C7 1_555 1_555
C2QA H2QA 1_555 1_555
C3QA C2QA 1_555 1_555
H3QA C3QA 1_555 1_555
C4QA H4QA 1_555 1_555
H5QA C4QA 1_555 1_555
C5QA C5Q 1_555 1_555
O4QA C4QA 1_555 1_555
C6B C1B 1_555 1_555
C7B C3QA 1_555 1_555
C8R C5QA 1_555 1_555
H6R C8R 1_555 1_555
C2A C6A 1_555 1_555
H2A C2A 1_555 1_555
C3A C7A 1_555 1_555
H3A C3A 1_555 1_555
C4A H4A 1_555 1_555
H5A C4A 1_555 1_555
C5A C5AA 1_555 1_555
O4A C7A 1_555 1_555
C8A C5A 1_555 1_555
H6A C8A 1_555 1_555
C2B C6B 1_555 1_555
H2B C2B 1_555 1_555
C3B C7B 1_555 1_555
H3B C3B 1_555 1_555
C4B H4B 1_555 1_555
H5B C4B 1_555 1_555
C5B C8B 1_555 1_555
O4B C7B 1_555 1_555
O3C C1C 1_555 1_555
C2C C6C 1_555 1_555
H2C C2C 1_555 1_555
C3C C7C 1_555 1_555
H3C C3C 1_555 1_555
C4C H4C 1_555 1_555
H5C C4C 1_555 1_555
C5C C5Y 1_555 1_555
O4C C7C 1_555 1_555
C2R H2R 1_555 1_555
C3R C2R 1_555 1_555
H3R C3R 1_555 1_555
C4R H4R 1_555 1_555
H5R C4R 1_555 1_555
C5R C5NA 1_555 1_555
O4R C4R 1_555 1_555
C6R C1C 1_555 1_555
C7R C3R 1_555 1_555
C2X C6R 1_555 1_555
H2X C2X 1_555 1_555
C3X C7R 1_555 1_555
H3X C3X 1_555 1_555
C4X H4X 1_555 1_555
H5X C4X 1_555 1_555
C5X C8A 1_555 1_555
O4X C7R 1_555 1_555
Y1A O3A 1_555 1_555
O1A Y1A 1_555 1_555
O2A Y1A 1_555 1_555
H1A O2A 1_555 1_555
Y1_2 O3B 1_555 1_555
O1_2 Y1_2 1_555 1_555
O2B Y1_2 1_555 1_555
H1B O2B 1_555 1_555
O2B_2 Y1 1_555 1_555
H1B_2 O2B_2 1_555 1_555
C1B_2 O3B_2 1_555 1_555
O3B_2 Y1 1_555 1_555
C2B_2 H2B_2 1_555 1_555
C3B_2 C2B_2 1_555 1_555
H3B_2 C3B_2 1_555 1_555
C4B_2 H4B_2 1_555 1_555
H5B_2 C4B_2 1_555 1_555
C5B_2 C4B_2 1_555 1_555
O4B_2 C4B_2 1_555 1_555
C6B_2 C1B_2 1_555 1_555
C7B_2 C3B_2 1_555 1_555
C8B_2 C5B_2 1_555 1_555
H6B_2 C8B_2 1_555 1_555
C1_2 O3Q_2 1_555 1_555
O3Q_2 Y1D_6 1_555 1_555
C2Q_2 H2Q_2 1_555 1_555
C3Q_2 C2Q_2 1_555 1_555
H3Q_2 C3Q_2 1_555 1_555
C4Q_2 H4Q_2 1_555 1_555
H5Q_2 C4Q_2 1_555 1_555
C5Q_2 C4Q_2 1_555 1_555
O4Q_2 C4Q_2 1_555 1_555
C6Q_2 C1_2 1_555 1_555
C7Q_2 C3Q_2 1_555 1_555
C8Q_2 C5Q_2 1_555 1_555
H6Q_2 C8Q_2 1_555 1_555
O3P_2 C1B_2 1_555 1_555
C2P_2 H2P_2 1_555 1_555
C3P_2 C2P_2 1_555 1_555
H3P_2 C3P_2 1_555 1_555
C4P_2 H4P_2 1_555 1_555
H5P_2 C4P_2 1_555 1_555
C5P_2 C4P_2 1_555 1_555
O4P_2 C4P_2 1_555 1_555
C6P_2 C1B_2 1_555 1_555
C7P_2 C3P_2 1_555 1_555
C8P_2 C5P_2 1_555 1_555
H6P_2 C8P_2 1_555 1_555
C1C_2 O3R_2 1_555 1_555
O3R_2 Y1E_3 1_555 1_555
C2R_2 H2R_2 1_555 1_555
C3R_2 C2R_2 1_555 1_555
H3R_2 C3R_2 1_555 1_555
C4R_2 H4R_2 1_555 1_555
H5R_2 C4R_2 1_555 1_555
C5R_2 C4R_2 1_555 1_555
O4R_2 C4R_2 1_555 1_555
C6R_2 C1C_2 1_555 1_555
C7R_2 C3R_2 1_555 1_555
C8R_2 C5R_2 1_555 1_555
H6R_2 C8R_2 1_555 1_555
O3_2 C1_2 1_555 1_555
C2AA_2 C6Q_2 1_555 1_555
H2AA_2 C2AA_2 1_555 1_555
C3AA_2 C7Q_2 1_555 1_555
H3AA_2 C3AA_2 1_555 1_555
C4AA_2 H4AA_2 1_555 1_555
H5AA_2 C4AA_2 1_555 1_555
C5AA_2 C8B_2 1_555 1_555
O4AA_2 C7Q_2 1_555 1_555
O3C_2 Y1A 1_555 1_555
C2X_2 C6R_2 1_555 1_555
H2X_2 C2X_2 1_555 1_555
C3X_2 C7R_2 1_555 1_555
H3X_2 C3X_2 1_555 1_555
C4X_2 H4X_2 1_555 1_555
H5X_2 C4X_2 1_555 1_555
C5X_2 C5B_2 1_555 1_555
O4X_2 C7R_2 1_555 1_555
C8A_2 C5X_2 1_555 1_555
H6A_2 C8A_2 1_555 1_555
C2Y_2 C6P_2 1_555 1_555
H2Y_2 C2Y_2 1_555 1_555
C3Y_2 C7P_2 1_555 1_555
H3Y_2 C3Y_2 1_555 1_555
C4Y_2 H4Y_2 1_555 1_555
H5Y_2 C4Y_2 1_555 1_555
C5Y_2 C4Y_2 1_555 1_555
O4Y_2 C7P_2 1_555 1_555
C8_2 C5Y_2 1_555 1_555
H6_2 C8_2 1_555 1_555
C2OA_2 H2OA_2 1_555 1_555
C3OA_2 C2OA_2 1_555 1_555
H3OA_2 C3OA_2 1_555 1_555
C4OA_2 H4OA_2 1_555 1_555
H5OA_2 C4OA_2 1_555 1_555
C5OA_2 C8P_2 1_555 1_555
O4OA_2 C4OA_2 1_555 1_555
C6C_2 C1C_2 1_555 1_555
C7C_2 C3OA_2 1_555 1_555
C1A_2 O3S_2 1_555 1_555
O3S_2 Y1D 1_555 1_555
C2NA_2 H2NA_2 1_555 1_555
C3NA_2 C2NA_2 1_555 1_555
H3NA_2 C3NA_2 1_555 1_555
C4NA_2 H4NA_2 1_555 1_555
H5NA_2 C4NA_2 1_555 1_555
C5NA_2 C8Q_2 1_555 1_555
O4NA_2 C4NA_2 1_555 1_555
C6A_2 C1A_2 1_555 1_555
C7A_2 C3NA_2 1_555 1_555
C2QA_2 C6B_2 1_555 1_555
H2QA_2 C2QA_2 1_555 1_555
C3QA_2 C7B_2 1_555 1_555
H3QA_2 C3QA_2 1_555 1_555
C4QA_2 H4QA_2 1_555 1_555
H5QA_2 C4QA_2 1_555 1_555
C5QA_2 C5Q_2 1_555 1_555
O4QA_2 C7B_2 1_555 1_555
C2PA_2 H2PA_2 1_555 1_555
C3PA_2 C2PA_2 1_555 1_555
H3PA_2 C3PA_2 1_555 1_555
C4PA_2 H4PA_2 1_555 1_555
H5PA_2 C4PA_2 1_555 1_555
C5PA_2 C5P_2 1_555 1_555
O4PA_2 C4PA_2 1_555 1_555
C6_2 C1_2 1_555 1_555
C7_2 C3PA_2 1_555 1_555
C8S_2 C5PA_2 1_555 1_555
H6S_2 C8S_2 1_555 1_555
C2C_2 C6C_2 1_555 1_555
H2C_2 C2C_2 1_555 1_555
C3C_2 C7C_2 1_555 1_555
H3C_2 C3C_2 1_555 1_555
C4C_2 H4C_2 1_555 1_555
H5C_2 C4C_2 1_555 1_555
C5C_2 C5Y_2 1_555 1_555
O4C_2 C7C_2 1_555 1_555
C8C_2 C5C_2 1_555 1_555
H6C_2 C8C_2 1_555 1_555
C2_2 C6_2 1_555 1_555
H2_2 C2_2 1_555 1_555
C3_2 C7_2 1_555 1_555
H3_2 C3_2 1_555 1_555
C4_2 H4_2 1_555 1_555
H5_2 C4_2 1_555 1_555
C5_2 C8_2 1_555 1_555
O4_2 C7_2 1_555 1_555
O3A_2 C1A_2 1_555 1_555
C2A_2 C6A_2 1_555 1_555
H2A_2 C2A_2 1_555 1_555
C3A_2 C7A_2 1_555 1_555
H3A_2 C3A_2 1_555 1_555
C4A_2 H4A_2 1_555 1_555
H5A_2 C4A_2 1_555 1_555
C5A_2 C5AA_2 1_555 1_555
O4A_2 C7A_2 1_555 1_555
C2S_2 H2S_2 1_555 1_555
C3S_2 C2S_2 1_555 1_555
H3S_2 C3S_2 1_555 1_555
C4S_2 H4S_2 1_555 1_555
H5S_2 C4S_2 1_555 1_555
C5S_2 C5OA_2 1_555 1_555
O4S_2 C4S_2 1_555 1_555
C6S_2 C1A_2 1_555 1_555
C7S_2 C3S_2 1_555 1_555
C2Z_2 C6S_2 1_555 1_555
H2Z_2 C2Z_2 1_555 1_555
C3Z_2 C7S_2 1_555 1_555
H3Z_2 C3Z_2 1_555 1_555
C4Z_2 H4Z_2 1_555 1_555
H5Z_2 C4Z_2 1_555 1_555
C5Z_2 C8C_2 1_555 1_555
O4Z_2 C7S_2 1_555 1_555
Y1A_2 O3C 1_555 1_555
O1A_2 Y1A_2 1_555 1_555
Y1D O1D 1_555 1_555
O2C Y1D 1_555 1_555
H1C O2C 1_555 1_555
C1D O3D 1_555 1_555
O3D Y1D 1_555 1_555
C2D H2D 1_555 1_555
C3D C2D 1_555 1_555
H3D C3D 1_555 1_555
C4D H4D 1_555 1_555
H5D C4D 1_555 1_555
C5D C4D 1_555 1_555
O4D C4D 1_555 1_555
C6D C1D 1_555 1_555
C7D C3D 1_555 1_555
C8D C5D 1_555 1_555
H6D C8D 1_555 1_555
C1F O3O 1_555 1_555
O3O Y1I_2 1_555 1_555
C2O H2O 1_555 1_555
C3O C2O 1_555 1_555
H3O C3O 1_555 1_555
C4O H4O 1_555 1_555
H5O C4O 1_555 1_555
C5O C4O 1_555 1_555
O4O C4O 1_555 1_555
C6O C1F 1_555 1_555
C7O C3O 1_555 1_555
C8O C5O 1_555 1_555
H6O C8O 1_555 1_555
O3N C1D 1_555 1_555
C2N H2N 1_555 1_555
C3N C2N 1_555 1_555
H3N C3N 1_555 1_555
C4N H4N 1_555 1_555
H5N C4N 1_555 1_555
C5N C4N 1_555 1_555
O4N C4N 1_555 1_555
C6N C1D 1_555 1_555
C7N C3N 1_555 1_555
C8N C5N 1_555 1_555
H6N C8N 1_555 1_555
C1E O3L 1_555 1_555
O3L Y1H 1_555 1_555
C2L H2L 1_555 1_555
C3L C2L 1_555 1_555
H3L C3L 1_555 1_555
C4L H4L 1_555 1_555
H5L C4L 1_555 1_555
C5L C4L 1_555 1_555
O4L C4L 1_555 1_555
C6L C1E 1_555 1_555
C7L C3L 1_555 1_555
C8L C5L 1_555 1_555
H6L C8L 1_555 1_555
O3F C1F 1_555 1_555
C2CA C6O 1_555 1_555
H2CA C2CA 1_555 1_555
C3CA C7O 1_555 1_555
H3CA C3CA 1_555 1_555
C4CA H4CA 1_555 1_555
H5CA C4CA 1_555 1_555
C5CA C8D 1_555 1_555
O4CA C7O 1_555 1_555
O3E C1E 1_555 1_555
C2DA C6L 1_555 1_555
H2DA C2DA 1_555 1_555
C3DA C7L 1_555 1_555
H3DA C3DA 1_555 1_555
C4DA H4DA 1_555 1_555
H5DA C4DA 1_555 1_555
C5DA C5D 1_555 1_555
O4DA C7L 1_555 1_555
C8G C5DA 1_555 1_555
H6G C8G 1_555 1_555
C2EA C6N 1_555 1_555
H2EA C2EA 1_555 1_555
C3EA C7N 1_555 1_555
H3EA C3EA 1_555 1_555
C4EA H4EA 1_555 1_555
H5EA C4EA 1_555 1_555
C5EA C4EA 1_555 1_555
O4EA C7N 1_555 1_555
C8F C5EA 1_555 1_555
H6F C8F 1_555 1_555
C2MA H2MA 1_555 1_555
C3MA C2MA 1_555 1_555
H3MA C3MA 1_555 1_555
C4MA H4MA 1_555 1_555
H5MA C4MA 1_555 1_555
C5MA C8N 1_555 1_555
O4MA C4MA 1_555 1_555
C6E C1E 1_555 1_555
C7E C3MA 1_555 1_555
C1G O3M 1_555 1_555
O3M Y1I 1_555 1_555
C2LA H2LA 1_555 1_555
C3LA C2LA 1_555 1_555
H3LA C3LA 1_555 1_555
C4LA H4LA 1_555 1_555
H5LA C4LA 1_555 1_555
C5LA C8O 1_555 1_555
O4LA C4LA 1_555 1_555
C6G C1G 1_555 1_555
C7G C3LA 1_555 1_555
C2KA C6D 1_555 1_555
H2KA C2KA 1_555 1_555
C3KA C7D 1_555 1_555
H3KA C3KA 1_555 1_555
C4KA H4KA 1_555 1_555
H5KA C4KA 1_555 1_555
C5KA C5O 1_555 1_555
O4KA C7D 1_555 1_555
C2JA H2JA 1_555 1_555
C3JA C2JA 1_555 1_555
H3JA C3JA 1_555 1_555
C4JA H4JA 1_555 1_555
H5JA C4JA 1_555 1_555
C5JA C5N 1_555 1_555
O4JA C4JA 1_555 1_555
C6F C1F 1_555 1_555
C7F C3JA 1_555 1_555
C8M C5JA 1_555 1_555
H6M C8M 1_555 1_555
C2E C6E 1_555 1_555
H2E C2E 1_555 1_555
C3E C7E 1_555 1_555
H3E C3E 1_555 1_555
C4E H4E 1_555 1_555
H5E C4E 1_555 1_555
C5E C5EA 1_555 1_555
O4E C7E 1_555 1_555
C8E C5E 1_555 1_555
H6E C8E 1_555 1_555
C2F C6F 1_555 1_555
H2F C2F 1_555 1_555
C3F C7F 1_555 1_555
H3F C3F 1_555 1_555
C4F H4F 1_555 1_555
H5F C4F 1_555 1_555
C5F C8F 1_555 1_555
O4F C7F 1_555 1_555
O3G C1G 1_555 1_555
C2G C6G 1_555 1_555
H2G C2G 1_555 1_555
C3G C7G 1_555 1_555
H3G C3G 1_555 1_555
C4G H4G 1_555 1_555
H5G C4G 1_555 1_555
C5G C5CA 1_555 1_555
O4G C7G 1_555 1_555
C2M H2M 1_555 1_555
C3M C2M 1_555 1_555
H3M C3M 1_555 1_555
C4M H4M 1_555 1_555
H5M C4M 1_555 1_555
C5M C5MA 1_555 1_555
O4M C4M 1_555 1_555
C6M C1G 1_555 1_555
C7M C3M 1_555 1_555
C2BA C6M 1_555 1_555
H2BA C2BA 1_555 1_555
C3BA C7M 1_555 1_555
H3BA C3BA 1_555 1_555
C4BA H4BA 1_555 1_555
H5BA C4BA 1_555 1_555
C5BA C8E 1_555 1_555
O4BA C7M 1_555 1_555
Y1D_2 O3Q 1_555 1_555
O1D_2 Y1D_2 1_555 1_555
O2C_2 Y1D_2 1_555 1_555
H1C_2 O2C_2 1_555 1_555
O2O Y1A 1_555 1_555
H1O O2O 1_555 1_555
O2N Y1 1_555 1_555
H1N O2N 1_555 1_555
Y1_3 O3_2 1_555 1_555
Y1A_3 O3A_2 1_555 1_555
Y1A_4 O2C_2 1_555 1_555
Y1D_3 O3F 1_555 1_555
Y1D_4 O2C_4 1_555 1_555
Y1D_5 O2B 1_555 1_555
Y1E O3G 1_555 1_555
Y1E_2 O2A_2 1_555 1_555
Y1E_3 O2A 1_555 1_555
Y1E_4 O2_2 1_555 1_555
Y1E_5 O2 1_555 1_555
Y1H O2A 1_555 1_555
Y1H_2 O3N 1_555 1_555
Y1H_3 O2B 1_555 1_555
Y1H_4 O2B_2 1_555 1_555
Y1I_3 O2O 1_555 1_555
Y1I_4 O2C 1_555 1_555
Y1I_5 O2 1_555 1_555
O2_2 Y1_2 1_555 1_555
O2A_2 Y1A_2 1_555 1_555
O2B_3 Y1D 1_555 1_555
O2C_3 Y1A_2 1_555 1_555
O2C_4 Y1A 1_555 1_555
O2L Y1A_2 1_555 1_555
O2L_2 Y1A 1_555 1_555
O2L_3 Y1D 1_555 1_555
O2L_4 Y1D_2 1_555 1_555
O2M Y1D 1_555 1_555
O2M_2 Y1_2 1_555 1_555
O2M_3 Y1 1_555 1_555
O2N_2 Y1_2 1_555 1_555
O2O_2 Y1A_2 1_555 1_555
O3_3 Y1_2 1_555 1_555
O3A_3 Y1A_2 1_555 1_555
O3D_2 Y1D_2 1_555 1_555
O3F_2 Y1D 1_555 1_555
O3F_3 Y1D_2 1_555 1_555
O3Q_3 Y1D 1_555 1_555
O3S_3 Y1D_2 1_555 1_555
O3T Y1_2 1_555 1_555
O3T_2 Y1 1_555 1_555
O3U Y1A_2 1_555 1_555
O3U_2 Y1A 1_555 1_555
O3V Y1_2 1_555 1_555
O3V_2 Y1 1_555 1_555
O3W Y1A_2 1_555 1_555
O3W_2 Y1A 1_555 1_555
C2 C6 1_555 1_555
O4 C7 1_555 1_555
C2P C6P 1_555 1_555
O4P C7P 1_555 1_555
C2Q C6Q 1_555 1_555
O4Q C7Q 1_555 1_555
C2S C6S 1_555 1_555
C5S C5OA 1_555 1_555
O4S C7S 1_555 1_555
C8S C5PA 1_555 1_555
C2Y C3Y 1_555 1_555
C4Y C5Y 1_555 1_555
C4Y O4Y 1_555 1_555
C2Z C3Z 1_555 1_555
C4Z C5Z 1_555 1_555
C4Z O4Z 1_555 1_555
C8C C5C 1_555 1_555
C2AA C3AA 1_555 1_555
C4AA O4AA 1_555 1_555
C2NA C6A 1_555 1_555
C4NA C5NA 1_555 1_555
O4NA C7A 1_555 1_555
C2OA C6C 1_555 1_555
C4OA C5OA 1_555 1_555
O4OA C7C 1_555 1_555
C2PA C3PA 1_555 1_555
C4PA C5PA 1_555 1_555
C4PA O4PA 1_555 1_555
C2QA C6B 1_555 1_555
C4QA C5QA 1_555 1_555
O4QA C7B 1_555 1_555
C8R C5R 1_555 1_555
C2A C3A 1_555 1_555
C4A C5A 1_555 1_555
C4A O4A 1_555 1_555
C2B C3B 1_555 1_555
C4B C5B 1_555 1_555
C4B O4B 1_555 1_555
C5B C5X 1_555 1_555
C2C C3C 1_555 1_555
C4C C5C 1_555 1_555
C4C O4C 1_555 1_555
C2R C6R 1_555 1_555
C4R C5R 1_555 1_555
O4R C7R 1_555 1_555
C2X C3X 1_555 1_555
C4X C5X 1_555 1_555
C4X O4X 1_555 1_555
O2B_2 Y1D_2 1_555 1_555
C2B_2 C6B_2 1_555 1_555
O4B_2 C7B_2 1_555 1_555
C2Q_2 C6Q_2 1_555 1_555
O4Q_2 C7Q_2 1_555 1_555
O3P_2 Y1E_5 1_555 1_555
C2P_2 C6P_2 1_555 1_555
O4P_2 C7P_2 1_555 1_555
C1C_2 O3C_2 1_555 1_555
C2R_2 C6R_2 1_555 1_555
C5R_2 C5NA_2 1_555 1_555
O4R_2 C7R_2 1_555 1_555
C8R_2 C5QA_2 1_555 1_555
C2AA_2 C3AA_2 1_555 1_555
C4AA_2 C5AA_2 1_555 1_555
C4AA_2 O4AA_2 1_555 1_555
C2X_2 C3X_2 1_555 1_555
C4X_2 C5X_2 1_555 1_555
C4X_2 O4X_2 1_555 1_555
C8A_2 C5A_2 1_555 1_555
C2Y_2 C3Y_2 1_555 1_555
C4Y_2 O4Y_2 1_555 1_555
C2OA_2 C6C_2 1_555 1_555
C4OA_2 C5OA_2 1_555 1_555
O4OA_2 C7C_2 1_555 1_555
C2NA_2 C6A_2 1_555 1_555
C4NA_2 C5NA_2 1_555 1_555
O4NA_2 C7A_2 1_555 1_555
C2QA_2 C3QA_2 1_555 1_555
C4QA_2 C5QA_2 1_555 1_555
C4QA_2 O4QA_2 1_555 1_555
C2PA_2 C6_2 1_555 1_555
C4PA_2 C5PA_2 1_555 1_555
O4PA_2 C7_2 1_555 1_555
C8S_2 C5S_2 1_555 1_555
C2C_2 C3C_2 1_555 1_555
C4C_2 C5C_2 1_555 1_555
C4C_2 O4C_2 1_555 1_555
C2_2 C3_2 1_555 1_555
C4_2 C5_2 1_555 1_555
C4_2 O4_2 1_555 1_555
C5_2 C5Z_2 1_555 1_555
C2A_2 C3A_2 1_555 1_555
C4A_2 C5A_2 1_555 1_555
C4A_2 O4A_2 1_555 1_555
C2S_2 C6S_2 1_555 1_555
C4S_2 C5S_2 1_555 1_555
O4S_2 C7S_2 1_555 1_555
C2Z_2 C3Z_2 1_555 1_555
C4Z_2 C5Z_2 1_555 1_555
C4Z_2 O4Z_2 1_555 1_555
O2C Y1A_3 1_555 1_555
C2D C6D 1_555 1_555
O4D C7D 1_555 1_555
C2O C6O 1_555 1_555
O4O C7O 1_555 1_555
C2N C6N 1_555 1_555
O4N C7N 1_555 1_555
C2L C6L 1_555 1_555
C5L C5LA 1_555 1_555
O4L C7L 1_555 1_555
C8L C5KA 1_555 1_555
C2CA C3CA 1_555 1_555
C4CA C5CA 1_555 1_555
C4CA O4CA 1_555 1_555
O3E Y1E_3 1_555 1_555
C2DA C3DA 1_555 1_555
C4DA C5DA 1_555 1_555
C4DA O4DA 1_555 1_555
C8G C5G 1_555 1_555
C2EA C3EA 1_555 1_555
C4EA O4EA 1_555 1_555
C2MA C6E 1_555 1_555
C4MA C5MA 1_555 1_555
O4MA C7E 1_555 1_555
C2LA C6G 1_555 1_555
C4LA C5LA 1_555 1_555
O4LA C7G 1_555 1_555
C2KA C3KA 1_555 1_555
C4KA C5KA 1_555 1_555
C4KA O4KA 1_555 1_555
C2JA C6F 1_555 1_555
C4JA C5JA 1_555 1_555
O4JA C7F 1_555 1_555
C8M C5M 1_555 1_555
C2E C3E 1_555 1_555
C4E C5E 1_555 1_555
C4E O4E 1_555 1_555
C2F C3F 1_555 1_555
C4F C5F 1_555 1_555
C4F O4F 1_555 1_555
C5F C5BA 1_555 1_555
C2G C3G 1_555 1_555
C4G C5G 1_555 1_555
C4G O4G 1_555 1_555
C2M C6M 1_555 1_555
C4M C5M 1_555 1_555
O4M C7M 1_555 1_555
C2BA C3BA 1_555 1_555
C4BA C5BA 1_555 1_555
C4BA O4BA 1_555 1_555
Y1D_2 O2M_3 1_555 1_555
O2C_2 Y1I_5 1_555 1_555
O2O Y1E_3 1_555 1_555
O2N Y1E_5 1_555 1_555
O2N Y1H_4 1_555 1_555
Y1A_3 O2L_3 1_555 1_555
Y1A_4 O2L_4 1_555 1_555
Y1D_4 O2L_2 1_555 1_555
Y1D_5 O2M_2 1_555 1_555
Y1E_2 O2O_2 1_555 1_555
Y1E_4 O2N_2 1_555 1_555
Y1H O2L_2 1_555 1_555
Y1H_2 O2B_3 1_555 1_555
Y1H_2 O2L_3 1_555 1_555
Y1H_3 O2N_2 1_555 1_555
Y1H_4 O2L_4 1_555 1_555
Y1I_3 O2C_4 1_555 1_555
Y1I_4 O2M 1_555 1_555
Y1I_5 O2M_3 1_555 1_555

#END
