
#######################################################################
#
#                 Cambridge Crystallographic Data Centre
#                                CCDC 
#
#######################################################################
#
# If this CIF has been generated from an entry in the Cambridge 
# Structural Database, then it will include bibliographic, chemical, 
# crystal, experimental, refinement or atomic coordinate data resulting 
# from the CCDC's data processing and validation procedures.
#
#######################################################################

data_LULVOF
_symmetry_cell_setting           monoclinic
_symmetry_space_group_name_H-M   'C c'
_symmetry_Int_Tables_number      9
_space_group_name_Hall           'C -2yc'
loop_
_symmetry_equiv_pos_site_id
_symmetry_equiv_pos_as_xyz
1 x,y,z
2 x,-y,1/2+z
3 1/2+x,1/2+y,z
4 1/2+x,1/2-y,1/2+z
_cell_length_a                   25.938(3)
_cell_length_b                   18.158(2)
_cell_length_c                   16.7929(19)
_cell_angle_alpha                90
_cell_angle_beta                 116.945(2)
_cell_angle_gamma                90
_cell_volume                     7050.55
loop_
_atom_site_label
_atom_site_type_symbol
_atom_site_fract_x
_atom_site_fract_y
_atom_site_fract_z
Co1 Co 0.37050(4) 0.72123(5) 0.51337(6)
Co2 Co 0.29643(4) 0.76828(5) 0.29557(6)
Co3 Co 0.21186(4) 0.81194(5) 0.06896(6)
O1 O 0.3745(2) 0.6220(3) 0.4605(3)
O2 O 0.3143(2) 0.6547(3) 0.3186(4)
O3 O 0.2828(2) -0.1187(3) 0.2773(4)
O4 O 0.2158(2) -0.0937(3) 0.1360(4)
O5 O 0.4563(2) 0.7513(3) 0.5226(4)
O6 O 0.3738(2) 0.7904(3) 0.4143(3)
O7 O 0.7215(2) 1.2408(3) 0.1764(4)
O8 O 0.6339(2) 1.2763(3) 0.0827(4)
O9 O 0.3471(2) 0.7670(3) 0.2282(4)
O10 O 0.2955(2) 0.8148(3) 0.0910(4)
O11 O 0.7863(2) 0.8042(3) -0.0238(4)
O12 O 0.7437(2) 0.7227(3) -0.1353(4)
N1 N 0.1989(3) 0.7236(3) -0.0215(5)
N2 N 0.1794(3) 0.8652(3) -0.0569(4)
N3 N 0.3599(3) 0.8239(3) 0.5691(5)
N4 N 0.4044(3) 0.6979(3) 0.6494(5)
C1 C 0.3397(3) 0.6088(4) 0.3808(5)
C2 C 0.3272(3) 0.5275(4) 0.3578(5)
C3 C 0.3446(3) 0.4757(4) 0.4241(5)
H1 H 0.3645 0.4914 0.4846
C4 C 0.3342(3) 0.4012(4) 0.4060(6)
H2 H 0.3471 0.3664 0.4534
C5 C 0.3045(3) 0.3778(4) 0.3174(6)
C6 C 0.2867(4) 0.4295(4) 0.2482(6)
H3 H 0.2674 0.4136 0.1878
C7 C 0.2971(3) 0.5042(4) 0.2676(5)
H4 H 0.2842 0.5393 0.2206
C8 C 0.2934(4) 0.3001(4) 0.2971(6)
C9 C 0.2853(4) 0.2356(5) 0.2832(6)
C10 C 0.2752(3) 0.1581(4) 0.2675(6)
C11 C 0.3048(4) 0.1076(4) 0.3367(6)
H5 H 0.3304 0.1247 0.3948
C12 C 0.2962(3) 0.0311(4) 0.3195(5)
H6 H 0.3164 -0.0032 0.3660
C13 C 0.2580(3) 0.0059(4) 0.2338(5)
C14 C 0.2273(3) 0.0567(4) 0.1670(5)
H7 H 0.2000 0.0397 0.1098
C15 C 0.2359(3) 0.1318(4) 0.1827(6)
H8 H 0.2152 0.1657 0.1360
C16 C 0.2514(3) -0.0756(4) 0.2143(5)
C17 C 0.4300(3) 0.7901(4) 0.4530(5)
C18 C 0.4615(3) 0.8395(4) 0.4200(5)
C19 C 0.5210(3) 0.8308(4) 0.4496(5)
H9 H 0.5406 0.7908 0.4879
C20 C 0.5513(3) 0.8792(4) 0.4241(6)
H10 H 0.5915 0.8722 0.4438
C21 C 0.5228(3) 0.9394(4) 0.3685(6)
C22 C 0.4633(3) 0.9481(4) 0.3397(5)
H11 H 0.4438 0.9886 0.3023
C23 C 0.4321(3) 0.8986(4) 0.3646(5)
H12 H 0.3917 0.9050 0.3443
C24 C 0.5532(3) 0.9937(4) 0.3439(6)
C25 C 0.5738(3) 1.0426(5) 0.3198(6)
C26 C 0.5987(3) 1.0957(4) 0.2830(5)
C27 C 0.6566(4) 1.0912(4) 0.3005(6)
H13 H 0.6814 1.0563 0.3426
C28 C 0.6782(3) 1.1374(4) 0.2569(5)
H14 H 0.7171 1.1324 0.2668
C29 C 0.6423(3) 1.1915(4) 0.1981(5)
C30 C 0.5860(3) 1.1983(4) 0.1834(5)
H15 H 0.5623 1.2355 0.1441
C31 C 0.5625(3) 1.1514(4) 0.2254(5)
H16 H 0.5236 1.1568 0.2156
C32 C 0.6666(3) 1.2403(3) 0.1508(5)
C33 C 0.3410(3) 0.7886(4) 0.1537(5)
C34 C 0.3916(3) 0.7789(4) 0.1332(5)
C35 C 0.3808(3) 0.7682(4) 0.0451(5)
H17 H 0.3420 0.7682 -0.0007
C36 C 0.4258(3) 0.7577(4) 0.0228(6)
H18 H 0.4178 0.7504 -0.0377
C37 C 0.4840(3) 0.7578(4) 0.0916(6)
C38 C 0.4943(4) 0.7706(5) 0.1803(6)
H19 H 0.5329 0.7722 0.2267
C39 C 0.4488(3) 0.7807(5) 0.2003(6)
H20 H 0.4563 0.7890 0.2605
C40 C 0.5302(4) 0.7489(5) 0.0674(6)
C41 C 0.5663(3) 0.7444(5) 0.0406(6)
C42 C 0.6103(3) 0.7462(4) 0.0103(6)
C43 C 0.6107(4) 0.6981(5) -0.0542(7)
H21 H 0.5818 0.6611 -0.0784
C44 C 0.6531(3) 0.7037(5) -0.0840(6)
H22 H 0.6521 0.6718 -0.1296
C45 C 0.6971(3) 0.7567(4) -0.0459(5)
C46 C 0.6974(4) 0.8030(5) 0.0192(7)
H23 H 0.7272 0.8387 0.0449
C47 C 0.6546(4) 0.7986(5) 0.0488(7)
H24 H 0.6557 0.8307 0.0942
C48 C 0.7455(3) 0.7614(4) -0.0724(5)
C49 C 0.2132(3) 0.6539(4) 0.0036(7)
H25 H 0.2288 0.6421 0.0653
C50 C 0.2062(4) 0.5974(4) -0.0572(7)
H26 H 0.2171 0.5481 -0.0377
C51 C 0.1823(4) 0.6160(5) -0.1476(7)
H27 H 0.1765 0.5790 -0.1909
C52 C 0.1673(4) 0.6884(5) -0.1743(6)
H28 H 0.1513 0.7019 -0.2355
C53 C 0.1765(3) 0.7409(4) -0.1079(6)
C54 C 0.1658(3) 0.8213(4) -0.1290(5)
C55 C 0.1457(4) 0.8502(5) -0.2146(6)
H29 H 0.1354 0.8183 -0.2643
C56 C 0.1407(4) 0.9259(5) -0.2268(6)
H30 H 0.1274 0.9466 -0.2848
C57 C 0.1556(4) 0.9707(5) -0.1528(7)
H31 H 0.1528 1.0228 -0.1593
C58 C 0.1748(4) 0.9385(5) -0.0681(6)
H32 H 0.1847 0.9693 -0.0175
C59 C 0.3349(4) 0.8845(4) 0.5222(6)
H33 H 0.3192 0.8830 0.4590
C60 C 0.3311(4) 0.9498(4) 0.5629(6)
H34 H 0.3125 0.9920 0.5283
C61 C 0.3547(3) 0.9514(4) 0.6540(6)
H35 H 0.3530 0.9954 0.6834
C62 C 0.3811(4) 0.8893(4) 0.7038(6)
H36 H 0.3974 0.8895 0.7671
C63 C 0.3828(3) 0.8258(4) 0.6567(6)
C64 C 0.4082(3) 0.7546(4) 0.7028(5)
C65 C 0.4314(4) 0.7452(5) 0.7961(6)
H37 H 0.4331 0.7855 0.8332
C66 C 0.4517(4) 0.6760(5) 0.8332(6)
H38 H 0.4689 0.6689 0.8960
C67 C 0.4461(4) 0.6168(5) 0.7757(6)
H39 H 0.4582 0.5687 0.7986
C68 C 0.4224(4) 0.6305(4) 0.6847(6)
H40 H 0.4188 0.5908 0.6456
Co1C Co 0.87050(4) 0.77877(5) 0.01337(6)
Co2_2 Co 0.29643(4) -0.23172(5) 0.29557(6)
Co2B Co 0.79643(4) 1.26828(5) 0.29557(6)
Co2C Co 0.79643(4) 0.73172(5) -0.20443(6)
Co3_2 Co 0.21186(4) -0.18806(5) 0.06896(6)
Co3B Co 0.71186(4) 1.31194(5) 0.06896(6)
O3_2 O 0.2828(2) 0.8813(3) 0.2773(4)
O4_2 O 0.2158(2) 0.9063(3) 0.1360(4)
O7B O 0.2215(2) 0.7408(3) 0.1764(4)
O8B O 0.1339(2) 0.7763(3) 0.0827(4)
O11C O 0.2863(2) 0.6958(3) 0.4762(4)
O12C O 0.2437(2) 0.7773(3) 0.3647(4)
O13 O 0.0803(4) 1.0232(4) -0.0240(7)
N5 N 0.0424(3) 0.9707(4) 0.0597(5)
C69 C 0.0803(4) 0.9752(5) 0.0260(8)
H41 H 0.1092 0.9381 0.0425
C70 C -0.0038(6) 1.0231(8) 0.0345(10)
H42 H -0.0145 1.0410 -0.0261
H43 H 0.0090 1.0647 0.0762
H44 H -0.0373 0.9995 0.0360
C71 C 0.0422(5) 0.9102(6) 0.1153(9)
H45 H 0.0779 0.8818 0.1344
H46 H 0.0088 0.8784 0.0813
H47 H 0.0396 0.9295 0.1679
O14 O -0.0530(3) 0.6084(4) 0.4233(4)
N6 N 0.0126(3) 0.5485(4) 0.5471(6)
C72 C -0.0039(4) 0.5887(5) 0.4723(6)
H48 H 0.0254 0.6029 0.4563
C73 C -0.0301(6) 0.5248(7) 0.5739(9)
H49 H -0.0635 0.5578 0.5482
H50 H -0.0134 0.5258 0.6392
H51 H -0.0424 0.4745 0.5524
C74 C 0.0724(5) 0.5249(7) 0.5983(9)
H52 H 0.0954 0.5429 0.5692
H53 H 0.0741 0.4710 0.6011
H54 H 0.0881 0.5450 0.6589
O15 O 0.3887(4) 0.5487(4) 0.1402(5)
N7 N 0.4523(3) 0.5981(4) 0.2726(5)
C75 C 0.3988(4) 0.5876(5) 0.2059(6)
H55 H 0.3672 0.6111 0.2096
C76 C 0.5025(5) 0.5713(6) 0.2681(9)
H56 H 0.4910 0.5442 0.2122
H57 H 0.5240 0.5385 0.3188
H58 H 0.5272 0.6129 0.2702
C77 C 0.4618(4) 0.6429(5) 0.3496(6)
H59 H 0.4299 0.6781 0.3331
H60 H 0.4983 0.6697 0.3698
H61 H 0.4634 0.6111 0.3979
O16 O 0.2825(3) 0.4544(4) 0.0489(6)
H62 H 0.3114 0.4802 0.0737
H63 H 0.2968 0.4192 0.0356
loop_
_geom_bond_atom_site_label_1
_geom_bond_atom_site_label_2
_geom_bond_site_symmetry_1
_geom_bond_site_symmetry_2
Co1 O1 1_555 1_555
Co2 O2 1_555 1_555
Co3 O10 1_555 1_555
O1 C1 1_555 1_555
O2 C1 1_555 1_555
O3 C16 1_555 1_555
O4 C16 1_555 1_555
O5 Co1 1_555 1_555
O6 Co1 1_555 1_555
O7 C32 1_555 1_555
O8 C32 1_555 1_555
O9 Co2 1_555 1_555
O10 C33 1_555 1_555
O11 C48 1_555 1_555
O12 C48 1_555 1_555
N1 Co3 1_555 1_555
N2 Co3 1_555 1_555
N3 Co1 1_555 1_555
N4 Co1 1_555 1_555
C1 C2 1_555 1_555
C2 C3 1_555 1_555
C3 H1 1_555 1_555
C4 C3 1_555 1_555
H2 C4 1_555 1_555
C5 C4 1_555 1_555
C6 C5 1_555 1_555
H3 C6 1_555 1_555
C7 C2 1_555 1_555
H4 C7 1_555 1_555
C8 C5 1_555 1_555
C9 C8 1_555 1_555
C10 C9 1_555 1_555
C11 C10 1_555 1_555
H5 C11 1_555 1_555
C12 C11 1_555 1_555
H6 C12 1_555 1_555
C13 C12 1_555 1_555
C14 C13 1_555 1_555
H7 C14 1_555 1_555
C15 C10 1_555 1_555
H8 C15 1_555 1_555
C16 C13 1_555 1_555
C17 O5 1_555 1_555
C18 C17 1_555 1_555
C19 C18 1_555 1_555
H9 C19 1_555 1_555
C20 C19 1_555 1_555
H10 C20 1_555 1_555
C21 C20 1_555 1_555
C22 C21 1_555 1_555
H11 C22 1_555 1_555
C23 C18 1_555 1_555
H12 C23 1_555 1_555
C24 C21 1_555 1_555
C25 C24 1_555 1_555
C26 C25 1_555 1_555
C27 C26 1_555 1_555
H13 C27 1_555 1_555
C28 C27 1_555 1_555
H14 C28 1_555 1_555
C29 C28 1_555 1_555
C30 C29 1_555 1_555
H15 C30 1_555 1_555
C31 C26 1_555 1_555
H16 C31 1_555 1_555
C32 C29 1_555 1_555
C33 O9 1_555 1_555
C34 C33 1_555 1_555
C35 C34 1_555 1_555
H17 C35 1_555 1_555
C36 C35 1_555 1_555
H18 C36 1_555 1_555
C37 C36 1_555 1_555
C38 C37 1_555 1_555
H19 C38 1_555 1_555
C39 C34 1_555 1_555
H20 C39 1_555 1_555
C40 C37 1_555 1_555
C41 C40 1_555 1_555
C42 C41 1_555 1_555
C43 C42 1_555 1_555
H21 C43 1_555 1_555
C44 C43 1_555 1_555
H22 C44 1_555 1_555
C45 C44 1_555 1_555
C46 C45 1_555 1_555
H23 C46 1_555 1_555
C47 C42 1_555 1_555
H24 C47 1_555 1_555
C48 C45 1_555 1_555
C49 N1 1_555 1_555
H25 C49 1_555 1_555
C50 C49 1_555 1_555
H26 C50 1_555 1_555
C51 C50 1_555 1_555
H27 C51 1_555 1_555
C52 C51 1_555 1_555
H28 C52 1_555 1_555
C53 N1 1_555 1_555
C54 N2 1_555 1_555
C55 C54 1_555 1_555
H29 C55 1_555 1_555
C56 C55 1_555 1_555
H30 C56 1_555 1_555
C57 C56 1_555 1_555
H31 C57 1_555 1_555
C58 N2 1_555 1_555
H32 C58 1_555 1_555
C59 N3 1_555 1_555
H33 C59 1_555 1_555
C60 C59 1_555 1_555
H34 C60 1_555 1_555
C61 C60 1_555 1_555
H35 C61 1_555 1_555
C62 C61 1_555 1_555
H36 C62 1_555 1_555
C63 N3 1_555 1_555
C64 N4 1_555 1_555
C65 C64 1_555 1_555
H37 C65 1_555 1_555
C66 C65 1_555 1_555
H38 C66 1_555 1_555
C67 C66 1_555 1_555
H39 C67 1_555 1_555
C68 N4 1_555 1_555
H40 C68 1_555 1_555
O13 C69 1_555 1_555
N5 C69 1_555 1_555
C69 H41 1_555 1_555
C70 N5 1_555 1_555
H42 C70 1_555 1_555
H43 C70 1_555 1_555
H44 C70 1_555 1_555
C71 N5 1_555 1_555
H45 C71 1_555 1_555
H46 C71 1_555 1_555
H47 C71 1_555 1_555
O14 C72 1_555 1_555
N6 C72 1_555 1_555
C72 H48 1_555 1_555
C73 N6 1_555 1_555
H49 C73 1_555 1_555
H50 C73 1_555 1_555
H51 C73 1_555 1_555
C74 N6 1_555 1_555
H52 C74 1_555 1_555
H53 C74 1_555 1_555
H54 C74 1_555 1_555
O15 C75 1_555 1_555
N7 C75 1_555 1_555
C75 H55 1_555 1_555
C76 N7 1_555 1_555
H56 C76 1_555 1_555
H57 C76 1_555 1_555
H58 C76 1_555 1_555
C77 N7 1_555 1_555
H59 C77 1_555 1_555
H60 C77 1_555 1_555
H61 C77 1_555 1_555
O16 H62 1_555 1_555
H63 O16 1_555 1_555
Co1C O11 1_555 1_555
Co2_2 O3 1_555 1_555
Co2B O7 1_555 1_555
Co2C O12 1_555 1_555
Co3_2 O4 1_555 1_555
Co3B O7 1_555 1_555
O3_2 Co2 1_555 1_555
O4_2 Co3 1_555 1_555
O7B Co2 1_555 1_555
O8B Co3 1_555 1_555
O11C Co1 1_555 1_555
O12C Co2 1_555 1_555
Co2 O6 1_555 1_555
Co3 O7B 1_555 1_555
O6 C17 1_555 1_555
O8 Co3B 1_555 1_555
C6 C7 1_555 1_555
C14 C15 1_555 1_555
C22 C23 1_555 1_555
C30 C31 1_555 1_555
C38 C39 1_555 1_555
C46 C47 1_555 1_555
C52 C53 1_555 1_555
C53 C54 1_555 1_555
C57 C58 1_555 1_555
C62 C63 1_555 1_555
C63 C64 1_555 1_555
C67 C68 1_555 1_555

#END
