
#######################################################################
#
#                 Cambridge Crystallographic Data Centre
#                                CCDC 
#
#######################################################################
#
# If this CIF has been generated from an entry in the Cambridge 
# Structural Database, then it will include bibliographic, chemical, 
# crystal, experimental, refinement or atomic coordinate data resulting 
# from the CCDC's data processing and validation procedures.
#
#######################################################################

data_LULXAS
_symmetry_cell_setting           tetragonal
_symmetry_space_group_name_H-M   'P 41'
_symmetry_Int_Tables_number      76
_space_group_name_Hall           'P 4w'
loop_
_symmetry_equiv_pos_site_id
_symmetry_equiv_pos_as_xyz
1 x,y,z
2 -x,-y,1/2+z
3 -y,x,1/4+z
4 y,-x,3/4+z
_cell_length_a                   10.0292(8)
_cell_length_b                   10.0292(8)
_cell_length_c                   20.808(2)
_cell_angle_alpha                90
_cell_angle_beta                 90
_cell_angle_gamma                90
_cell_volume                     2092.97
loop_
_atom_site_label
_atom_site_type_symbol
_atom_site_fract_x
_atom_site_fract_y
_atom_site_fract_z
Co1 Co 0.88157(7) 0.20999(6) 0.10560(4)
Na1 Na 1.0429(2) 0.1544(2) -0.02198(11)
Na2 Na 1.7110(2) 0.1709(2) -0.02500(11)
O1 O 1.1175(4) 0.2049(4) 0.08100(17)
O2 O 1.0189(3) 0.1804(3) 0.17468(18)
O3 O 1.6237(4) 0.2169(4) 0.0761(2)
O4 O 1.7324(3) 0.1985(3) 0.1681(2)
O5 O 0.8638(4) -0.0878(4) 0.13130(17)
O6 O 0.8722(3) 0.0488(3) 0.04595(18)
O7 O 0.8835(4) -0.5830(4) 0.0939(2)
O8 O 0.8736(4) -0.6609(4) -0.0049(2)
C1 C 1.2558(5) 0.1913(5) 0.1741(3)
C2 C 1.3748(5) 0.2010(5) 0.1397(3)
H1 H 1.3727 0.2078 0.0942
C3 C 1.4959(5) 0.2007(5) 0.1716(3)
C4 C 1.4988(5) 0.1951(5) 0.2388(3)
H2 H 1.5817 0.1971 0.2609
C5 C 1.3793(5) 0.1866(5) 0.2735(3)
H3 H 1.3806 0.1821 0.3191
C6 C 1.2596(5) 0.1849(5) 0.2406(3)
H4 H 1.1785 0.1792 0.2640
C7 C 1.1240(6) 0.1918(5) 0.1404(3)
C8 C 1.6229(5) 0.2074(5) 0.1345(3)
C9 C 0.8619(5) -0.1849(5) 0.0268(3)
C10 C 0.8617(5) -0.3147(5) 0.0503(3)
H5 H 0.8588 -0.3291 0.0954
C11 C 0.8658(5) -0.4239(5) 0.0091(3)
C12 C 0.8664(5) -0.4037(5) -0.0562(3)
H6 H 0.8677 -0.4778 -0.0846
C13 C 0.8650(5) -0.2738(5) -0.0808(3)
H7 H 0.8644 -0.2599 -0.1260
C14 C 0.8645(5) -0.1658(5) -0.0396(3)
H8 H 0.8659 -0.0779 -0.0566
C15 C 0.8656(5) -0.0672(5) 0.0723(3)
C16 C 0.8741(5) -0.5664(5) 0.0333(3)
O9 O 1.5862(4) -0.0075(4) -0.0677(2)
H9 H 1.5185 0.0123 -0.0903
C17 C 1.5260(8) -0.1239(8) -0.0382(4)
H10 H 1.4506 -0.1560 -0.0647
H11 H 1.5924 -0.1965 -0.0346
C18 C 1.4802(8) -0.0871(8) 0.0234(4)
H12 H 1.4391 -0.1644 0.0443
H13 H 1.4141 -0.0155 0.0194
H14 H 1.5555 -0.0557 0.0493
O10 O 1.5548(4) 0.3024(4) -0.0722(2)
H15 H 1.4967 0.2681 -0.0969
C19 C 1.5446(8) 0.4426(7) -0.0721(4)
H16 H 1.6197 0.4803 -0.0471
H17 H 1.4607 0.4689 -0.0504
C20 C 1.5464(7) 0.4993(8) -0.1369(4)
H18 H 1.5394 0.5966 -0.1343
H19 H 1.4710 0.4640 -0.1616
H20 H 1.6300 0.4752 -0.1583
Co1_2 Co 1.88157(7) 0.20999(6) 0.10560(4)
Co1_3 Co 0.88157(7) -0.79001(6) 0.10560(4)
Na1B Na 0.8456(2) 0.0429(2) 0.22802(11)
Na1B_2 Na 1.8456(2) 0.0429(2) 0.22802(11)
Na1_2 Na 1.0429(2) -0.8456(2) -0.02198(11)
Na2B Na 0.8291(2) -0.2890(2) 0.22500(11)
Na2_2 Na 0.7110(2) 0.1709(2) -0.02500(11)
Na2_3 Na 0.7110(2) -0.8291(2) -0.02500(11)
O2C O 1.1804(3) -0.0189(3) -0.07532(18)
O4_2 O 0.7324(3) 0.1985(3) 0.1681(2)
O4C O 1.1985(3) 0.2676(3) -0.0819(2)
O5C O 0.9122(4) 0.1362(4) -0.11870(17)
O5C_2 O 1.9122(4) 0.1362(4) -0.11870(17)
O6_2 O 1.8722(3) 0.0488(3) 0.04595(18)
O7_2 O 0.8835(4) 0.4170(4) 0.0939(2)
O8_2 O 0.8736(4) 0.3391(4) -0.0049(2)
O8_3 O 1.8736(4) 0.3391(4) -0.0049(2)
loop_
_geom_bond_atom_site_label_1
_geom_bond_atom_site_label_2
_geom_bond_site_symmetry_1
_geom_bond_site_symmetry_2
Co1 O2 1_555 1_555
Na1 O1 1_555 1_555
Na2 O3 1_555 1_555
O1 C7 1_555 1_555
O2 C7 1_555 1_555
O3 C8 1_555 1_555
O4 C8 1_555 1_555
O5 C15 1_555 1_555
O6 Co1 1_555 1_555
O7 C16 1_555 1_555
O8 C16 1_555 1_555
C1 C2 1_555 1_555
C2 H1 1_555 1_555
C3 C2 1_555 1_555
C4 C3 1_555 1_555
H2 C4 1_555 1_555
C5 C4 1_555 1_555
H3 C5 1_555 1_555
C6 C1 1_555 1_555
H4 C6 1_555 1_555
C7 C1 1_555 1_555
C8 C3 1_555 1_555
C9 C10 1_555 1_555
C10 H5 1_555 1_555
C11 C10 1_555 1_555
C12 C11 1_555 1_555
H6 C12 1_555 1_555
C13 C12 1_555 1_555
H7 C13 1_555 1_555
C14 C9 1_555 1_555
H8 C14 1_555 1_555
C15 O6 1_555 1_555
C16 C11 1_555 1_555
O9 Na2 1_555 1_555
H9 O9 1_555 1_555
C17 O9 1_555 1_555
H10 C17 1_555 1_555
H11 C17 1_555 1_555
C18 C17 1_555 1_555
H12 C18 1_555 1_555
H13 C18 1_555 1_555
H14 C18 1_555 1_555
O10 Na2 1_555 1_555
H15 O10 1_555 1_555
C19 O10 1_555 1_555
H16 C19 1_555 1_555
H17 C19 1_555 1_555
C20 C19 1_555 1_555
H18 C20 1_555 1_555
H19 C20 1_555 1_555
H20 C20 1_555 1_555
Co1_2 O4 1_555 1_555
Co1_3 O7 1_555 1_555
Na1B O2 1_555 1_555
Na1B_2 O4 1_555 1_555
Na1_2 O8 1_555 1_555
Na2B O5 1_555 1_555
Na2_2 O6 1_555 1_555
Na2_3 O8 1_555 1_555
O2C Na1 1_555 1_555
O4_2 Co1 1_555 1_555
O4C Na1 1_555 1_555
O5C Na1 1_555 1_555
O5C_2 Na2 1_555 1_555
O6_2 Na2 1_555 1_555
O7_2 Co1 1_555 1_555
O8_2 Na1 1_555 1_555
O8_3 Na2 1_555 1_555
Na1 O6 1_555 1_555
O5 Na1B 1_555 1_555
C5 C6 1_555 1_555
C9 C15 1_555 1_555
C13 C14 1_555 1_555
Co1_2 O6_2 1_555 1_555
Na1B O4_2 1_555 1_555
Na2_2 O5C 1_555 1_555
Na2_2 O8_2 1_555 1_555

#END
