
#######################################################################
#
#                 Cambridge Crystallographic Data Centre
#                                CCDC 
#
#######################################################################
#
# If this CIF has been generated from an entry in the Cambridge 
# Structural Database, then it will include bibliographic, chemical, 
# crystal, experimental, refinement or atomic coordinate data resulting 
# from the CCDC's data processing and validation procedures.
#
#######################################################################

data_LUMYID
_symmetry_cell_setting           monoclinic
_symmetry_space_group_name_H-M   'C 2/c'
_symmetry_Int_Tables_number      15
_space_group_name_Hall           '-C 2yn'
loop_
_symmetry_equiv_pos_site_id
_symmetry_equiv_pos_as_xyz
1 x,y,z
2 -x,y,1/2-z
3 1/2+x,1/2+y,z
4 1/2-x,1/2+y,1/2-z
5 -x,-y,-z
6 x,-y,1/2+z
7 1/2-x,1/2-y,-z
8 1/2+x,1/2-y,1/2+z
_cell_length_a                   24.321(5)
_cell_length_b                   9.4098(19)
_cell_length_c                   16.628(3)
_cell_angle_alpha                90
_cell_angle_beta                 119.24(3)
_cell_angle_gamma                90
_cell_volume                     3320.53
loop_
_atom_site_label
_atom_site_type_symbol
_atom_site_fract_x
_atom_site_fract_y
_atom_site_fract_z
O1 O 0.7717(12) 0.858(2) 0.3185(17)
O2 O 0.915(2) 0.817(5) 0.739(3)
Cu1 Cu 1.04273(3) 0.82357(6) 0.04115(4)
Cu2 Cu 0.95723(3) 0.61430(6) 0.12254(4)
N1 N 0.91824(19) 0.7907(5) 0.0373(3)
N2 N 0.95358(19) 0.8803(4) 0.0172(3)
N3 N 0.92015(19) 0.9927(5) -0.0236(3)
N4 N 0.8624(2) 0.9815(5) -0.0325(3)
N5 N 0.8605(2) 0.7907(5) 0.2511(3)
N6 N 0.9180(2) 0.7638(5) 0.3222(3)
N7 N 0.95211(19) 0.6974(5) 0.2926(3)
N8 N 0.91769(19) 0.6812(4) 0.2009(3)
N9 N 1.0449(3) 0.5661(6) -0.0694(4)
C1 C 0.7493(2) 0.6964(6) 0.0764(3)
H1 H 0.7491 0.6593 0.1281
C2 C 0.8064(2) 0.7438(5) 0.0845(3)
C3 C 0.8068(2) 0.7970(6) 0.0061(3)
C4 C 0.8628(2) 0.8557(6) 0.0060(3)
C5 C 0.8623(2) 0.7401(5) 0.1776(3)
C6 C 1.0452(3) 0.6683(5) -0.0326(4)
N1F N 0.58176(19) 0.7093(5) -0.0373(3)
N2F N 0.54642(19) 0.6197(4) -0.0172(3)
N3F N 0.57985(19) 0.5073(5) 0.0236(3)
N4F N 0.6376(2) 0.5185(5) 0.0325(3)
N5F N 0.6395(2) 0.7093(5) -0.2511(3)
N6F N 0.5820(2) 0.7362(5) -0.3222(3)
N7F N 0.54789(19) 0.8026(5) -0.2926(3)
N8F N 0.58231(19) 0.8188(4) -0.2009(3)
C1F C 0.7507(2) 0.8036(6) -0.0764(3)
H1F H 0.7509 0.8407 -0.1281
C2F C 0.6936(2) 0.7562(5) -0.0845(3)
C3F C 0.6932(2) 0.7030(6) -0.0061(3)
C4F C 0.6372(2) 0.6443(6) -0.0060(3)
C5F C 0.6377(2) 0.7599(5) -0.1776(3)
Cu1A Cu 0.95727(3) 0.82357(6) 0.45885(4)
Cu2A Cu 1.04277(3) 0.61430(6) 0.37746(4)
N9A N 0.9551(3) 0.5661(6) 0.5694(4)
C6A C 0.9548(3) 0.6683(5) 0.5326(4)
Cu1B Cu 0.54273(3) 0.32357(6) 0.04115(4)
Cu1D Cu 0.95727(3) 1.17643(6) -0.04115(4)
Cu1F Cu 0.45727(3) 0.67643(6) -0.04115(4)
Cu1G Cu 0.54273(3) 0.67643(6) -0.45885(4)
Cu2D Cu 1.04277(3) 0.38570(6) -0.12254(4)
Cu2E Cu 0.95723(3) 0.38570(6) 0.62254(4)
Cu2F Cu 0.54277(3) 0.88570(6) -0.12254(4)
Cu2G Cu 0.45723(3) 0.88570(6) -0.37746(4)
N1A N 1.08176(19) 0.7907(5) 0.4627(3)
N2A N 1.04642(19) 0.8803(4) 0.4828(3)
N3D N 1.07985(19) 1.0073(5) 0.0236(3)
N3E N 0.92015(19) 1.0073(5) 0.4764(3)
N6A N 1.0820(2) 0.7638(5) 0.1778(3)
N7A N 1.04789(19) 0.6974(5) 0.2074(3)
N8A N 1.08231(19) 0.6812(4) 0.2991(3)
N9D N 0.9551(3) 0.4339(6) 0.0694(4)
N9E N 1.0449(3) 0.4339(6) 0.4306(4)
O3 O 0.8804(11) 0.583(2) 0.8486(15)
loop_
_geom_bond_atom_site_label_1
_geom_bond_atom_site_label_2
_geom_bond_site_symmetry_1
_geom_bond_site_symmetry_2
Cu1 N2 1_555 1_555
Cu2 N1 1_555 1_555
N1 N2 1_555 1_555
N2 N3 1_555 1_555
N3 N4 1_555 1_555
N4 C4 1_555 1_555
N5 N6 1_555 1_555
N6 N7 1_555 1_555
N7 N8 1_555 1_555
N8 Cu2 1_555 1_555
N9 C6 1_555 1_555
C1 H1 1_555 1_555
C2 C1 1_555 1_555
C3 C2 1_555 1_555
C4 N1 1_555 1_555
C5 N5 1_555 1_555
C6 Cu1 1_555 1_555
N1F N2F 1_555 1_555
N2F N3F 1_555 1_555
N3F N4F 1_555 1_555
N4F C4F 1_555 1_555
N5F N6F 1_555 1_555
N6F N7F 1_555 1_555
N7F N8F 1_555 1_555
N8F C5F 1_555 1_555
C1F C3 1_555 1_555
H1F C1F 1_555 1_555
C2F C1F 1_555 1_555
C3F C1 1_555 1_555
C4F N1F 1_555 1_555
C5F N5F 1_555 1_555
Cu1A N6 1_555 1_555
Cu2A N7 1_555 1_555
N9A C6A 1_555 1_555
C6A Cu1A 1_555 1_555
Cu1B N3F 1_555 1_555
Cu1D N3 1_555 1_555
Cu1F N2F 1_555 1_555
Cu1G N6F 1_555 1_555
Cu2D N9 1_555 1_555
Cu2E N9A 1_555 1_555
Cu2F N1F 1_555 1_555
Cu2G N7F 1_555 1_555
N1A Cu2A 1_555 1_555
N2A Cu1A 1_555 1_555
N3D Cu1 1_555 1_555
N3E Cu1A 1_555 1_555
N6A Cu1 1_555 1_555
N7A Cu2 1_555 1_555
N8A Cu2A 1_555 1_555
N9D Cu2 1_555 1_555
N9E Cu2A 1_555 1_555
N8 C5 1_555 1_555
C2 C5 1_555 1_555
C3 C4 1_555 1_555
N8F Cu2F 1_555 1_555
C2F C3F 1_555 1_555
C2F C5F 1_555 1_555
C3F C4F 1_555 1_555
N1A N2A 1_555 1_555
N6A N7A 1_555 1_555
N7A N8A 1_555 1_555

#END
