
#######################################################################
#
#                 Cambridge Crystallographic Data Centre
#                                CCDC 
#
#######################################################################
#
# If this CIF has been generated from an entry in the Cambridge 
# Structural Database, then it will include bibliographic, chemical, 
# crystal, experimental, refinement or atomic coordinate data resulting 
# from the CCDC's data processing and validation procedures.
#
#######################################################################

data_LUMYEZ
_symmetry_cell_setting           monoclinic
_symmetry_space_group_name_H-M   'C 2/c'
_symmetry_Int_Tables_number      15
_space_group_name_Hall           '-C 2yn'
loop_
_symmetry_equiv_pos_site_id
_symmetry_equiv_pos_as_xyz
1 x,y,z
2 -x,y,1/2-z
3 1/2+x,1/2+y,z
4 1/2-x,1/2+y,1/2-z
5 -x,-y,-z
6 x,-y,1/2+z
7 1/2-x,1/2-y,-z
8 1/2+x,1/2-y,1/2+z
_cell_length_a                   24.258(5)
_cell_length_b                   9.4877(19)
_cell_length_c                   16.473(3)
_cell_angle_alpha                90
_cell_angle_beta                 118.79(3)
_cell_angle_gamma                90
_cell_volume                     3322.66
loop_
_atom_site_label
_atom_site_type_symbol
_atom_site_fract_x
_atom_site_fract_y
_atom_site_fract_z
Cu1 Cu 0.04272(3) 0.17662(6) 0.03882(4)
Cu2 Cu 0.04255(3) 0.38483(6) 0.37785(4)
N1 N 0.13703(19) 0.0186(5) 0.5300(3)
N2 N 0.07927(18) 0.0066(5) 0.5216(3)
N3 N 0.04633(18) 0.1198(4) 0.4829(3)
N4 N 0.08149(18) 0.2100(4) 0.4640(3)
N5 N 0.08264(18) 0.3183(4) 0.2988(3)
N6 N 0.04816(18) 0.3015(5) 0.2069(3)
N7 N 0.08206(19) 0.2366(5) 0.1764(3)
N8 N 0.13992(18) 0.2109(5) 0.2476(3)
N9 N 0.0440(2) 0.4345(6) -0.0712(4)
C1 C 0.2509(2) 0.3028(6) 0.4230(3)
H1 H 0.2514 0.3390 0.3709
C2 C 0.1937(2) 0.2566(5) 0.4147(3)
C3 C 0.1928(2) 0.2031(5) 0.4938(3)
C4 C 0.1367(2) 0.1450(5) 0.4934(3)
C5 C 0.1379(2) 0.2608(5) 0.3216(3)
C6 C 0.0436(3) 0.3319(5) -0.0363(4)
N1F N 0.36297(19) 0.4814(5) 0.4700(3)
N2F N 0.42073(18) 0.4934(5) 0.4784(3)
N3F N 0.45367(18) 0.3802(4) 0.5171(3)
N4F N 0.41851(18) 0.2900(4) 0.5360(3)
N5F N 0.41736(18) 0.1817(4) 0.7012(3)
N6F N 0.45184(18) 0.1985(5) 0.7931(3)
N7F N 0.41794(19) 0.2634(5) 0.8236(3)
N8F N 0.36008(18) 0.2891(5) 0.7524(3)
C1F C 0.2491(2) 0.1972(6) 0.5770(3)
H1F H 0.2486 0.1610 0.6291
C2F C 0.3063(2) 0.2434(5) 0.5853(3)
C3F C 0.3072(2) 0.2969(5) 0.5062(3)
C4F C 0.3633(2) 0.3550(5) 0.5066(3)
C5F C 0.3621(2) 0.2392(5) 0.6784(3)
Cu1A Cu -0.04272(3) 0.17662(6) 0.46118(4)
Cu2A Cu -0.04255(3) 0.38483(6) 0.12215(4)
N9A N -0.0440(2) 0.4345(6) 0.5712(4)
C6A C -0.0436(3) 0.3319(5) 0.5363(4)
Cu1C Cu 0.45728(3) 0.67662(6) 0.46118(4)
Cu1E Cu 0.04272(3) -0.17662(6) 0.53882(4)
Cu1F Cu 0.45728(3) 0.32338(6) 0.96118(4)
Cu1G Cu 0.54272(3) 0.32338(6) 0.53882(4)
Cu2D Cu -0.04255(3) 0.61517(6) 0.62215(4)
Cu2E Cu 0.04255(3) 0.61517(6) -0.12215(4)
Cu2F Cu 0.45745(3) 0.11517(6) 0.62215(4)
Cu2G Cu 0.54255(3) 0.11517(6) 0.87785(4)
N2D N -0.07927(18) -0.0066(5) 0.4784(3)
N2E N 0.07927(18) -0.0066(5) 0.0216(3)
N3A N -0.04633(18) 0.1198(4) 0.0171(3)
N4A N -0.08149(18) 0.2100(4) 0.0360(3)
N5A N -0.08264(18) 0.3183(4) 0.2012(3)
N6A N -0.04816(18) 0.3015(5) 0.2931(3)
N7A N -0.08206(19) 0.2366(5) 0.3236(3)
N9D N -0.0440(2) 0.5655(6) 0.0712(4)
N9E N 0.0440(2) 0.5655(6) 0.4288(4)
O1 O 0.2311(7) 0.8759(16) 0.6898(11)
O2 O 0.3816(13) 0.916(3) 0.8489(19)
O3 O 0.412(2) 0.687(5) 0.736(3)
loop_
_geom_bond_atom_site_label_1
_geom_bond_atom_site_label_2
_geom_bond_site_symmetry_1
_geom_bond_site_symmetry_2
Cu1 N7 1_555 1_555
Cu2 N4 1_555 1_555
N1 N2 1_555 1_555
N2 N3 1_555 1_555
N3 N4 1_555 1_555
N4 C4 1_555 1_555
N5 Cu2 1_555 1_555
N6 N5 1_555 1_555
N7 N6 1_555 1_555
N8 N7 1_555 1_555
N9 C6 1_555 1_555
C1 H1 1_555 1_555
C2 C1 1_555 1_555
C3 C2 1_555 1_555
C4 N1 1_555 1_555
C5 N5 1_555 1_555
C6 Cu1 1_555 1_555
N1F N2F 1_555 1_555
N2F N3F 1_555 1_555
N3F N4F 1_555 1_555
N4F C4F 1_555 1_555
N5F N6F 1_555 1_555
N6F N7F 1_555 1_555
N7F N8F 1_555 1_555
N8F C5F 1_555 1_555
C1F C3 1_555 1_555
H1F C1F 1_555 1_555
C2F C1F 1_555 1_555
C3F C1 1_555 1_555
C4F N1F 1_555 1_555
C5F N5F 1_555 1_555
Cu1A N3 1_555 1_555
Cu2A N6 1_555 1_555
N9A C6A 1_555 1_555
C6A Cu1A 1_555 1_555
Cu1C N2F 1_555 1_555
Cu1E N2 1_555 1_555
Cu1F N7F 1_555 1_555
Cu1G N3F 1_555 1_555
Cu2D N9A 1_555 1_555
Cu2E N9 1_555 1_555
Cu2F N4F 1_555 1_555
Cu2G N6F 1_555 1_555
N2D Cu1A 1_555 1_555
N2E Cu1 1_555 1_555
N3A Cu1 1_555 1_555
N4A Cu2A 1_555 1_555
N5A Cu2A 1_555 1_555
N6A Cu2 1_555 1_555
N7A Cu1A 1_555 1_555
N9D Cu2A 1_555 1_555
N9E Cu2 1_555 1_555
N8 C5 1_555 1_555
C2 C5 1_555 1_555
C3 C4 1_555 1_555
N5F Cu2F 1_555 1_555
C2F C3F 1_555 1_555
C2F C5F 1_555 1_555
C3F C4F 1_555 1_555
N3A N4A 1_555 1_555
N5A N6A 1_555 1_555
N6A N7A 1_555 1_555

#END
