
#######################################################################
#
#                 Cambridge Crystallographic Data Centre
#                                CCDC 
#
#######################################################################
#
# If this CIF has been generated from an entry in the Cambridge 
# Structural Database, then it will include bibliographic, chemical, 
# crystal, experimental, refinement or atomic coordinate data resulting 
# from the CCDC's data processing and validation procedures.
#
#######################################################################

data_LUMZEA
_symmetry_cell_setting           monoclinic
_symmetry_space_group_name_H-M   'P 21/c'
_symmetry_Int_Tables_number      14
_space_group_name_Hall           '-P 2ybc'
loop_
_symmetry_equiv_pos_site_id
_symmetry_equiv_pos_as_xyz
1 x,y,z
2 -x,1/2+y,1/2-z
3 -x,-y,-z
4 x,1/2-y,1/2+z
_cell_length_a                   8.105(3)
_cell_length_b                   16.969(5)
_cell_length_c                   17.666(6)
_cell_angle_alpha                90
_cell_angle_beta                 102.495(5)
_cell_angle_gamma                90
_cell_volume                     2372.12
loop_
_atom_site_label
_atom_site_type_symbol
_atom_site_fract_x
_atom_site_fract_y
_atom_site_fract_z
Cu1 Cu 0.00577(10) 0.70429(5) 0.28783(5)
Cu2 Cu 0.20535(10) 0.60267(5) 0.17002(5)
Cu3 Cu 0.53558(10) 0.66737(5) -0.02707(5)
Cu4 Cu 0.40762(11) 0.58083(5) -0.20244(6)
C1 C -0.1085(9) 0.6557(5) 0.0586(4)
H1 H -0.0739 0.6367 0.0139
C2 C -0.2579(9) 0.7021(4) 0.1338(4)
H2 H -0.3500 0.7228 0.1529
C3 C -0.2799(9) 0.8275(4) 0.2783(4)
H3 H -0.2816 0.8455 0.2273
C4 C -0.2176(8) 0.7659(4) 0.3839(4)
H4 H -0.1654 0.7309 0.4239
C5 C 0.3047(10) 0.6978(4) 0.3974(4)
C6 C 0.3482(10) 0.6543(4) 0.3268(4)
H5 H 0.4478 0.6814 0.3134
C7 C 0.3965(12) 0.5704(5) 0.3462(4)
H6 H 0.2981 0.5423 0.3581
H7 H 0.4884 0.5691 0.3933
C8 C 0.4541(9) 0.5276(5) 0.2820(4)
C9 C 0.2884(10) 0.5872(5) 0.0237(4)
C10 C 0.2711(12) 0.5553(8) -0.0588(5)
H8 H 0.3089 0.4991 -0.0571
C11 C 0.1135(15) 0.5622(9) -0.1050(6)
H9 H 0.0873 0.6191 -0.1115
H10 H 0.0321 0.5392 -0.0767
C12 C 0.0796(10) 0.5248(5) -0.1863(4)
N1 N -0.3420(7) 0.8139(3) 0.3898(3)
N2 N -0.3820(7) 0.8540(3) 0.3206(3)
N3 N -0.1722(7) 0.7720(3) 0.3146(3)
N4 N -0.1050(7) 0.6876(3) 0.1778(3)
N5 N -0.0103(7) 0.6583(4) 0.1291(3)
N6 N -0.2652(7) 0.6837(4) 0.0589(3)
O1 O 0.1557(6) 0.7234(3) 0.3897(3)
O2 O -0.1144(8) 0.5957(3) 0.3379(3)
O3 O 0.4187(6) 0.7065(3) 0.4567(3)
O4 O 0.2535(13) 0.6820(6) -0.2832(6)
O5 O 0.2099(6) 0.6623(3) 0.2626(3)
O6 O 0.4176(6) 0.5512(3) 0.2118(3)
O7 O 0.5370(6) 0.4637(3) 0.2994(3)
O8 O 0.1947(6) 0.5578(3) 0.0656(3)
O9 O 0.4012(6) 0.6378(3) 0.0472(3)
O10 O 0.3824(7) 0.6059(4) -0.0989(4)
O11 O 0.1979(7) 0.5208(4) -0.2227(4)
O12 O -0.0627(7) 0.5044(3) -0.2143(3)
Cu2B Cu -0.20535(10) 0.39733(5) -0.17002(5)
Cu3_2 Cu -0.46442(10) 0.66737(5) -0.02707(5)
Cu3C Cu -0.46442(10) 0.83263(5) 0.47293(5)
Cu3C_2 Cu 0.53558(10) 0.83263(5) 0.47293(5)
Cu4B Cu 0.59238(11) 0.41917(5) 0.20244(6)
Cu4C Cu -0.59238(11) 0.91917(5) 0.29756(6)
N1C N 0.6580(7) 0.6861(3) -0.1102(3)
N2C N 0.6180(7) 0.6460(3) -0.1794(3)
N6_2 N 0.7348(7) 0.6837(4) 0.0589(3)
O3C O 0.4187(6) 0.7935(3) -0.0433(3)
O6B O 0.5824(6) 0.4488(3) -0.2118(3)
O7B O 0.4630(6) 0.5363(3) -0.2994(3)
O12B O 0.0627(7) 0.4956(3) 0.2143(3)
loop_
_geom_bond_atom_site_label_1
_geom_bond_atom_site_label_2
_geom_bond_site_symmetry_1
_geom_bond_site_symmetry_2
Cu1 N3 1_555 1_555
Cu2 N5 1_555 1_555
Cu3 O9 1_555 1_555
Cu4 O4 1_555 1_555
C1 H1 1_555 1_555
C2 H2 1_555 1_555
C3 H3 1_555 1_555
C4 H4 1_555 1_555
C5 C6 1_555 1_555
C6 H5 1_555 1_555
C7 C6 1_555 1_555
H6 C7 1_555 1_555
H7 C7 1_555 1_555
C8 C7 1_555 1_555
C9 C10 1_555 1_555
C10 H8 1_555 1_555
C11 C10 1_555 1_555
H9 C11 1_555 1_555
H10 C11 1_555 1_555
C12 C11 1_555 1_555
N1 C4 1_555 1_555
N2 C3 1_555 1_555
N3 C3 1_555 1_555
N4 Cu1 1_555 1_555
N5 C1 1_555 1_555
N6 C1 1_555 1_555
O1 Cu1 1_555 1_555
O2 Cu1 1_555 1_555
O3 C5 1_555 1_555
O5 Cu1 1_555 1_555
O6 Cu2 1_555 1_555
O7 C8 1_555 1_555
O8 Cu2 1_555 1_555
O9 C9 1_555 1_555
O10 Cu3 1_555 1_555
O11 Cu4 1_555 1_555
O12 C12 1_555 1_555
Cu2B O12 1_555 1_555
Cu3_2 N6 1_555 1_555
Cu3C N1 1_555 1_555
Cu3C_2 O3 1_555 1_555
Cu4B O6 1_555 1_555
Cu4C N2 1_555 1_555
N1C Cu3 1_555 1_555
N2C Cu4 1_555 1_555
N6_2 Cu3 1_555 1_555
O3C Cu3 1_555 1_555
O6B Cu4 1_555 1_555
O7B Cu4 1_555 1_555
O12B Cu2 1_555 1_555
Cu2 O5 1_555 1_555
Cu4 O10 1_555 1_555
C2 N4 1_555 1_555
C2 N6 1_555 1_555
C4 N3 1_555 1_555
C5 O1 1_555 1_555
C6 O5 1_555 1_555
C8 O6 1_555 1_555
C9 O8 1_555 1_555
C10 O10 1_555 1_555
C12 O11 1_555 1_555
N1 N2 1_555 1_555
N4 N5 1_555 1_555
O7 Cu4B 1_555 1_555
N1C N2C 1_555 1_555

#END
