
#######################################################################
#
#                 Cambridge Crystallographic Data Centre
#                                CCDC 
#
#######################################################################
#
# If this CIF has been generated from an entry in the Cambridge 
# Structural Database, then it will include bibliographic, chemical, 
# crystal, experimental, refinement or atomic coordinate data resulting 
# from the CCDC's data processing and validation procedures.
#
#######################################################################

data_LUPVOJ
_symmetry_cell_setting           cubic
_symmetry_space_group_name_H-M   'I -4 3 m'
_symmetry_Int_Tables_number      217
_space_group_name_Hall           'I -4 2 3'
loop_
_symmetry_equiv_pos_site_id
_symmetry_equiv_pos_as_xyz
1 x,y,z
2 -x,-y,z
3 -x,y,-z
4 x,-y,-z
5 z,x,y
6 z,-x,-y
7 -z,-x,y
8 -z,x,-y
9 y,z,x
10 -y,z,-x
11 y,-z,-x
12 -y,-z,x
13 y,x,z
14 -y,-x,z
15 y,-x,-z
16 -y,x,-z
17 x,z,y
18 -x,z,-y
19 -x,-z,y
20 x,-z,-y
21 z,y,x
22 z,-y,-x
23 -z,y,-x
24 -z,-y,x
25 1/2+x,1/2+y,1/2+z
26 1/2-x,1/2-y,1/2+z
27 1/2-x,1/2+y,1/2-z
28 1/2+x,1/2-y,1/2-z
29 1/2+z,1/2+x,1/2+y
30 1/2+z,1/2-x,1/2-y
31 1/2-z,1/2-x,1/2+y
32 1/2-z,1/2+x,1/2-y
33 1/2+y,1/2+z,1/2+x
34 1/2-y,1/2+z,1/2-x
35 1/2+y,1/2-z,1/2-x
36 1/2-y,1/2-z,1/2+x
37 1/2+y,1/2+x,1/2+z
38 1/2-y,1/2-x,1/2+z
39 1/2+y,1/2-x,1/2-z
40 1/2-y,1/2+x,1/2-z
41 1/2+x,1/2+z,1/2+y
42 1/2-x,1/2+z,1/2-y
43 1/2-x,1/2-z,1/2+y
44 1/2+x,1/2-z,1/2-y
45 1/2+z,1/2+y,1/2+x
46 1/2+z,1/2-y,1/2-x
47 1/2-z,1/2+y,1/2-x
48 1/2-z,1/2-y,1/2+x
_cell_length_a                   23.570(3)
_cell_length_b                   23.570(3)
_cell_length_c                   23.570(3)
_cell_angle_alpha                90
_cell_angle_beta                 90
_cell_angle_gamma                90
_cell_volume                     13094.2
loop_
_atom_site_label
_atom_site_type_symbol
_atom_site_fract_x
_atom_site_fract_y
_atom_site_fract_z
Co1 Co 0.38784(4) 0.71608(3) 0.71608(3)
O1 O 0.43055(18) 0.7267(2) 0.63753(18)
O2 O 0.3279(2) 0.6721(2) 0.6721(2)
N1 N 0.2551(2) 0.7449(2) 1.0414(3)
N2 N 0.3409(2) 0.6989(2) 0.79270(19)
N3 N 0.3435(2) 0.7244(2) 0.8437(2)
C1 C 0.2987(3) 0.7701(3) 1.0152(3)
H1 H 0.3181 0.7987 1.0343
C2 C 0.3162(3) 0.7555(3) 0.9610(3)
H2 H 0.3461 0.7746 0.9438
C3 C 0.2882(3) 0.7118(3) 0.9328(3)
C4 C 0.3036(3) 0.6964(3) 0.8727(4)
C5 C 0.4130(2) 0.7278(4) 0.5870(2)
C6 C 0.4579(3) 0.7304(6) 0.5421(3)
C7 C 0.5156(3) 0.7315(5) 0.5571(3)
H3 H 0.5260 0.7322 0.5952
O1T O 0.63753(18) 0.7267(2) 0.43055(18)
C5B C 0.5870(2) 0.7278(4) 0.4130(2)
C6B C 0.5421(3) 0.7304(6) 0.4579(3)
C7T C 0.5571(3) 0.7315(5) 0.5156(3)
H3T H 0.5952 0.7322 0.5260
O1V O 0.36247(18) 0.7267(2) 0.56945(18)
C7V C 0.4429(3) 0.7315(5) 0.4844(3)
H3V H 0.4048 0.7322 0.4740
O1B O 0.56945(18) 0.7267(2) 0.36247(18)
C7B C 0.4844(3) 0.7315(5) 0.4429(3)
H3B H 0.4740 0.7322 0.4048
N2M N 0.3011(2) 0.6591(2) 0.79270(19)
N3M N 0.2756(2) 0.6565(2) 0.8437(2)
C1M C 0.2299(3) 0.7013(3) 1.0152(3)
H1M H 0.2013 0.6819 1.0343
C2M C 0.2445(3) 0.6838(3) 0.9610(3)
H2M H 0.2254 0.6539 0.9438
Co1B Co 0.61216(4) 0.71608(3) 0.28392(3)
O2B O 0.6721(2) 0.6721(2) 0.3279(2)
N1B N 0.7449(2) 0.7449(2) -0.0414(3)
N2B N 0.6591(2) 0.6989(2) 0.20730(19)
N3B N 0.6565(2) 0.7244(2) 0.1563(2)
C1B C 0.7013(3) 0.7701(3) -0.0152(3)
H1B H 0.6819 0.7987 -0.0343
C2B C 0.6838(3) 0.7555(3) 0.0390(3)
H2B H 0.6539 0.7746 0.0562
C3B C 0.7118(3) 0.7118(3) 0.0672(3)
C4B C 0.6964(3) 0.6964(3) 0.1273(4)
N2N N 0.6989(2) 0.6591(2) 0.20730(19)
N3N N 0.7244(2) 0.6565(2) 0.1563(2)
C1N C 0.7701(3) 0.7013(3) -0.0152(3)
H1N H 0.7987 0.6819 -0.0343
C2N C 0.7555(3) 0.6838(3) 0.0390(3)
H2N H 0.7746 0.6539 0.0562
Co1D Co 0.71608(3) 0.38784(4) 0.71608(3)
O1D O 0.63753(18) 0.43055(18) 0.7267(2)
N1D N 1.0414(3) 0.2551(2) 0.7449(2)
N2D N 0.79270(19) 0.3409(2) 0.6989(2)
N3D N 0.8437(2) 0.3435(2) 0.7244(2)
C1D C 1.0152(3) 0.2987(3) 0.7701(3)
H1D H 1.0343 0.3181 0.7987
C2D C 0.9610(3) 0.3162(3) 0.7555(3)
H2D H 0.9438 0.3461 0.7746
C3D C 0.9328(3) 0.2882(3) 0.7118(3)
C4D C 0.8727(4) 0.3036(3) 0.6964(3)
C5D C 0.5870(2) 0.4130(2) 0.7278(4)
C6D C 0.5421(3) 0.4579(3) 0.7304(6)
C7D C 0.5571(3) 0.5156(3) 0.7315(5)
H3D H 0.5952 0.5260 0.7322
O1P O 0.43055(18) 0.63753(18) 0.7267(2)
C5F C 0.4130(2) 0.5870(2) 0.7278(4)
C6F C 0.4579(3) 0.5421(3) 0.7304(6)
C7P C 0.5156(3) 0.5571(3) 0.7315(5)
H3P H 0.5260 0.5952 0.7322
O1R O 0.56945(18) 0.36247(18) 0.7267(2)
C7R C 0.4844(3) 0.4429(3) 0.7315(5)
H3R H 0.4740 0.4048 0.7322
O1F O 0.36247(18) 0.56945(18) 0.7267(2)
C7F C 0.4429(3) 0.4844(3) 0.7315(5)
H3F H 0.4048 0.4740 0.7322
N2U N 0.79270(19) 0.3011(2) 0.6591(2)
N3U N 0.8437(2) 0.2756(2) 0.6565(2)
C1U C 1.0152(3) 0.2299(3) 0.7013(3)
H1U H 1.0343 0.2013 0.6819
C2U C 0.9610(3) 0.2445(3) 0.6838(3)
H2U H 0.9438 0.2254 0.6539
Co1E Co 0.71608(3) 0.61216(4) 0.28392(3)
O1E O 0.63753(18) 0.56945(18) 0.2733(2)
N1E N 1.0414(3) 0.7449(2) 0.2551(2)
N2E N 0.79270(19) 0.6591(2) 0.3011(2)
N3E N 0.8437(2) 0.6565(2) 0.2756(2)
C1E C 1.0152(3) 0.7013(3) 0.2299(3)
H1E H 1.0343 0.6819 0.2013
C2E C 0.9610(3) 0.6838(3) 0.2445(3)
H2E H 0.9438 0.6539 0.2254
C3E C 0.9328(3) 0.7118(3) 0.2882(3)
C4E C 0.8727(4) 0.6964(3) 0.3036(3)
C5E C 0.5870(2) 0.5870(2) 0.2722(4)
C6E C 0.5421(3) 0.5421(3) 0.2696(6)
C7E C 0.5571(3) 0.4844(3) 0.2685(5)
H3E H 0.5952 0.4740 0.2678
O1S O 0.43055(18) 0.36247(18) 0.2733(2)
C5G C 0.4130(2) 0.4130(2) 0.2722(4)
C6G C 0.4579(3) 0.4579(3) 0.2696(6)
C7S C 0.5156(3) 0.4429(3) 0.2685(5)
H3S H 0.5260 0.4048 0.2678
O1Q O 0.56945(18) 0.63753(18) 0.2733(2)
C7Q C 0.4844(3) 0.5571(3) 0.2685(5)
H3Q H 0.4740 0.5952 0.2678
O1G O 0.36247(18) 0.43055(18) 0.2733(2)
C7G C 0.4429(3) 0.5156(3) 0.2685(5)
H3G H 0.4048 0.5260 0.2678
N2T N 0.79270(19) 0.6989(2) 0.3409(2)
N3T N 0.8437(2) 0.7244(2) 0.3435(2)
C1T C 1.0152(3) 0.7701(3) 0.2987(3)
H1T H 1.0343 0.7987 0.3181
C2T C 0.9610(3) 0.7555(3) 0.3162(3)
H2T H 0.9438 0.7746 0.3461
Co1F Co 0.28392(3) 0.61216(4) 0.71608(3)
N1F N -0.0414(3) 0.7449(2) 0.7449(2)
N2F N 0.20730(19) 0.6591(2) 0.6989(2)
N3F N 0.1563(2) 0.6565(2) 0.7244(2)
C1F C -0.0152(3) 0.7013(3) 0.7701(3)
H1F H -0.0343 0.6819 0.7987
C2F C 0.0390(3) 0.6838(3) 0.7555(3)
H2F H 0.0562 0.6539 0.7746
C3F C 0.0672(3) 0.7118(3) 0.7118(3)
C4F C 0.1273(4) 0.6964(3) 0.6964(3)
N2V N 0.20730(19) 0.6989(2) 0.6591(2)
N3V N 0.1563(2) 0.7244(2) 0.6565(2)
C1V C -0.0152(3) 0.7701(3) 0.7013(3)
H1V H -0.0343 0.7987 0.6819
C2V C 0.0390(3) 0.7555(3) 0.6838(3)
H2V H 0.0562 0.7746 0.6539
Co1G Co 0.28392(3) 0.38784(4) 0.28392(3)
N1G N -0.0414(3) 0.2551(2) 0.2551(2)
N2G N 0.20730(19) 0.3409(2) 0.3011(2)
N3G N 0.1563(2) 0.3435(2) 0.2756(2)
C1G C -0.0152(3) 0.2987(3) 0.2299(3)
H1G H -0.0343 0.3181 0.2013
C2G C 0.0390(3) 0.3162(3) 0.2445(3)
H2G H 0.0562 0.3461 0.2254
C3G C 0.0672(3) 0.2882(3) 0.2882(3)
C4G C 0.1273(4) 0.3036(3) 0.3036(3)
N2W N 0.20730(19) 0.3011(2) 0.3409(2)
N3W N 0.1563(2) 0.2756(2) 0.3435(2)
C1W C -0.0152(3) 0.2299(3) 0.2987(3)
H1W H -0.0343 0.2013 0.3181
C2W C 0.0390(3) 0.2445(3) 0.3162(3)
H2W H 0.0562 0.2254 0.3461
Co1A Co 0.61216(4) 0.28392(3) 0.71608(3)
Co1C Co 0.38784(4) 0.28392(3) 0.28392(3)
Co1H Co 0.71608(3) 0.71608(3) 0.38784(4)
Co1I Co 0.28392(3) 0.71608(3) 0.61216(4)
Co1J Co 0.71608(3) 0.28392(3) 0.61216(4)
Co1K Co 0.28392(3) 0.28392(3) 0.38784(4)
Co1X Co -0.11216(4) 0.21608(3) 0.21608(3)
Co1Y Co 1.11216(4) 0.78392(3) 0.21608(3)
Co1Z Co 1.11216(4) 0.21608(3) 0.78392(3)
Co1AA Co -0.11216(4) 0.78392(3) 0.78392(3)
Co1HA Co 0.21608(3) 0.78392(3) 1.11216(4)
Co1IA Co 0.78392(3) 0.78392(3) -0.11216(4)
O1L O 0.7267(2) 0.43055(18) 0.63753(18)
O1M O 0.2733(2) 0.56945(18) 0.63753(18)
O1N O 0.7267(2) 0.56945(18) 0.36247(18)
O1O O 0.2733(2) 0.43055(18) 0.36247(18)
O2A O 0.6721(2) 0.3279(2) 0.6721(2)
O2C O 0.3279(2) 0.3279(2) 0.3279(2)
N1BA N 0.5414(3) 0.7551(2) 0.2449(2)
N1EA N 0.4586(3) 0.7551(2) 0.7551(2)
N1FA N 0.2449(2) 0.5414(3) 0.7551(2)
N1GA N 0.7551(2) 0.5414(3) 0.2449(2)
N1HA N 0.2449(2) 0.4586(3) 0.2449(2)
N1IA N 0.7551(2) 0.4586(3) 0.7551(2)
N2L N 0.6989(2) 0.3409(2) 0.79270(19)
N2O N 0.3011(2) 0.3409(2) 0.20730(19)
N2P N 0.3409(2) 0.79270(19) 0.6989(2)
N2Q N 0.6591(2) 0.79270(19) 0.3011(2)
loop_
_geom_bond_atom_site_label_1
_geom_bond_atom_site_label_2
_geom_bond_site_symmetry_1
_geom_bond_site_symmetry_2
Co1 O1 1_555 1_555
O1 C5 1_555 1_555
O2 Co1 1_555 1_555
N1 C1 1_555 1_555
N2 Co1 1_555 1_555
N3 N2 1_555 1_555
C1 H1 1_555 1_555
C2 C1 1_555 1_555
H2 C2 1_555 1_555
C3 C2 1_555 1_555
C4 N3 1_555 1_555
C5 C6 1_555 1_555
C6 C7 1_555 1_555
C7 H3 1_555 1_555
O1T C5B 1_555 1_555
C5B C6B 1_555 1_555
C6B C7T 1_555 1_555
C7T C7 1_555 1_555
H3T C7T 1_555 1_555
O1V C5 1_555 1_555
C7V C6 1_555 1_555
H3V C7V 1_555 1_555
O1B C5B 1_555 1_555
C7B C6B 1_555 1_555
H3B C7B 1_555 1_555
N2M N2 1_555 1_555
N3M C4 1_555 1_555
C1M N1 1_555 1_555
H1M C1M 1_555 1_555
C2M C3 1_555 1_555
H2M C2M 1_555 1_555
Co1B O1B 1_555 1_555
O2B Co1B 1_555 1_555
N1B C1B 1_555 1_555
N2B Co1B 1_555 1_555
N3B N2B 1_555 1_555
C1B H1B 1_555 1_555
C2B C1B 1_555 1_555
H2B C2B 1_555 1_555
C3B C2B 1_555 1_555
C4B N3B 1_555 1_555
N2N N2B 1_555 1_555
N3N C4B 1_555 1_555
C1N N1B 1_555 1_555
H1N C1N 1_555 1_555
C2N C3B 1_555 1_555
H2N C2N 1_555 1_555
Co1D O1D 1_555 1_555
O1D C5D 1_555 1_555
N1D C1D 1_555 1_555
N2D Co1D 1_555 1_555
N3D N2D 1_555 1_555
C1D H1D 1_555 1_555
C2D C1D 1_555 1_555
H2D C2D 1_555 1_555
C3D C2D 1_555 1_555
C4D N3D 1_555 1_555
C5D C6D 1_555 1_555
C6D C7D 1_555 1_555
C7D H3D 1_555 1_555
O1P Co1 1_555 1_555
C5F O1P 1_555 1_555
C6F C5F 1_555 1_555
C7P C7D 1_555 1_555
H3P C7P 1_555 1_555
O1R C5D 1_555 1_555
C7R C6D 1_555 1_555
H3R C7R 1_555 1_555
O1F C5F 1_555 1_555
C7F C6F 1_555 1_555
H3F C7F 1_555 1_555
N2U N2D 1_555 1_555
N3U C4D 1_555 1_555
C1U N1D 1_555 1_555
H1U C1U 1_555 1_555
C2U C3D 1_555 1_555
H2U C2U 1_555 1_555
Co1E O2B 1_555 1_555
O1E Co1E 1_555 1_555
N1E C1E 1_555 1_555
N2E Co1E 1_555 1_555
N3E N2E 1_555 1_555
C1E H1E 1_555 1_555
C2E C1E 1_555 1_555
H2E C2E 1_555 1_555
C3E C2E 1_555 1_555
C4E N3E 1_555 1_555
C5E O1E 1_555 1_555
C6E C5E 1_555 1_555
C7E C6E 1_555 1_555
H3E C7E 1_555 1_555
O1S C5G 1_555 1_555
C5G C6G 1_555 1_555
C6G C7S 1_555 1_555
C7S C7E 1_555 1_555
H3S C7S 1_555 1_555
O1Q Co1B 1_555 1_555
C7Q C6E 1_555 1_555
H3Q C7Q 1_555 1_555
O1G C5G 1_555 1_555
C7G C6G 1_555 1_555
H3G C7G 1_555 1_555
N2T N2E 1_555 1_555
N3T C4E 1_555 1_555
C1T N1E 1_555 1_555
H1T C1T 1_555 1_555
C2T C3E 1_555 1_555
H2T C2T 1_555 1_555
Co1F O2 1_555 1_555
N1F C1F 1_555 1_555
N2F Co1F 1_555 1_555
N3F N2F 1_555 1_555
C1F H1F 1_555 1_555
C2F C1F 1_555 1_555
H2F C2F 1_555 1_555
C3F C2F 1_555 1_555
C4F N3F 1_555 1_555
N2V N2F 1_555 1_555
N3V C4F 1_555 1_555
C1V N1F 1_555 1_555
H1V C1V 1_555 1_555
C2V C3F 1_555 1_555
H2V C2V 1_555 1_555
Co1G O1G 1_555 1_555
N1G C1G 1_555 1_555
N2G Co1G 1_555 1_555
N3G N2G 1_555 1_555
C1G H1G 1_555 1_555
C2G C1G 1_555 1_555
H2G C2G 1_555 1_555
C3G C2G 1_555 1_555
C4G N3G 1_555 1_555
N2W N2G 1_555 1_555
N3W C4G 1_555 1_555
C1W N1G 1_555 1_555
H1W C1W 1_555 1_555
C2W C3G 1_555 1_555
H2W C2W 1_555 1_555
Co1A O1R 1_555 1_555
Co1C O1S 1_555 1_555
Co1H O1T 1_555 1_555
Co1I O2 1_555 1_555
Co1J N2U 1_555 1_555
Co1K N2W 1_555 1_555
Co1X N1G 1_555 1_555
Co1Y N1E 1_555 1_555
Co1Z N1D 1_555 1_555
Co1AA N1F 1_555 1_555
Co1HA N1 1_555 1_555
Co1IA N1B 1_555 1_555
O1L Co1D 1_555 1_555
O1M Co1F 1_555 1_555
O1N Co1E 1_555 1_555
O1O Co1G 1_555 1_555
O2A Co1D 1_555 1_555
O2C Co1G 1_555 1_555
N1BA Co1B 1_555 1_555
N1EA Co1 1_555 1_555
N1FA Co1F 1_555 1_555
N1GA Co1E 1_555 1_555
N1HA Co1G 1_555 1_555
N1IA Co1D 1_555 1_555
N2L Co1D 1_555 1_555
N2O Co1G 1_555 1_555
N2P Co1 1_555 1_555
N2Q Co1B 1_555 1_555
C3 C4 1_555 1_555
O1V Co1I 1_555 1_555
C7V C7B 1_555 1_555
N2M N3M 1_555 1_555
N2M Co1F 1_555 1_555
C1M C2M 1_555 1_555
O2B Co1H 1_555 1_555
C3B C4B 1_555 1_555
N2N N3N 1_555 1_555
N2N Co1E 1_555 1_555
C1N C2N 1_555 1_555
C3D C4D 1_555 1_555
C6F C7P 1_555 1_555
C7R C7F 1_555 1_555
O1F Co1F 1_555 1_555
N2U N3U 1_555 1_555
C1U C2U 1_555 1_555
C3E C4E 1_555 1_555
C5E O1Q 1_555 1_555
C7Q C7G 1_555 1_555
N2T N3T 1_555 1_555
N2T Co1H 1_555 1_555
C1T C2T 1_555 1_555
C3F C4F 1_555 1_555
N2V N3V 1_555 1_555
N2V Co1I 1_555 1_555
C1V C2V 1_555 1_555
C3G C4G 1_555 1_555
N2W N3W 1_555 1_555
C1W C2W 1_555 1_555
Co1A O2A 1_555 1_555
Co1C O2C 1_555 1_555
Co1J O2A 1_555 1_555
Co1K O2C 1_555 1_555

#END
