
#######################################################################
#
#                 Cambridge Crystallographic Data Centre
#                                CCDC 
#
#######################################################################
#
# If this CIF has been generated from an entry in the Cambridge 
# Structural Database, then it will include bibliographic, chemical, 
# crystal, experimental, refinement or atomic coordinate data resulting 
# from the CCDC's data processing and validation procedures.
#
#######################################################################

data_LUPZED
_symmetry_cell_setting           orthorhombic
_symmetry_space_group_name_H-M   'A c a a'
_symmetry_Int_Tables_number      68
_space_group_name_Hall           '-A 2ab 2b'
loop_
_symmetry_equiv_pos_site_id
_symmetry_equiv_pos_as_xyz
1 x,y,z
2 1/2-x,-y,1/2+z
3 x,-y,1/2-z
4 1/2-x,y,-z
5 x,1/2+y,1/2+z
6 1/2-x,1/2-y,z
7 x,1/2-y,-z
8 1/2-x,1/2+y,1/2-z
9 -x,-y,-z
10 1/2+x,y,1/2-z
11 -x,y,1/2+z
12 1/2+x,-y,z
13 -x,1/2-y,1/2-z
14 1/2+x,1/2+y,-z
15 -x,1/2+y,z
16 1/2+x,1/2-y,1/2+z
_cell_length_a                   23.717(4)
_cell_length_b                   29.432(5)
_cell_length_c                   34.422(6)
_cell_angle_alpha                90
_cell_angle_beta                 90
_cell_angle_gamma                90
_cell_volume                     24027.9
loop_
_atom_site_label
_atom_site_type_symbol
_atom_site_fract_x
_atom_site_fract_y
_atom_site_fract_z
Mn1 Mn 0.99769(6) 1.0000 0.7500
N1 N 0.9995(3) 0.9384(2) 0.70663(17)
Cl1 Cl 1.10114(10) 1.0000 0.7500
Cl2 Cl 0.89392(10) 1.0000 0.7500
N2 N 0.9957(3) 1.0474(2) 0.69639(17)
C1 C 1.0477(4) 0.9223(3) 0.6923(3)
C2 C 0.9539(4) 0.9218(3) 0.6903(3)
C3 C 0.9514(4) 0.9276(3) 0.8136(3)
C4 C 1.0377(4) 0.9505(4) 0.8284(3)
H1 H 1.0812 0.9319 0.7037
C5 C 1.0512(4) 0.8925(3) 0.6618(3)
C6 C 0.9531(4) 0.8924(3) 0.6597(3)
H2 H 0.9193 0.9308 0.7005
C7 C 0.9486(4) 0.8994(3) 0.8449(3)
H3 H 0.9197 0.9295 0.7978
C8 C 1.0377(4) 0.9242(4) 0.8617(3)
H4 H 1.0696 0.9679 0.8232
H5 H 1.0863 0.8827 0.6531
C9 C 1.0022(3) 0.8768(3) 0.6438(2)
H6 H 0.9187 0.8829 0.6494
C10 C 0.9934(3) 0.8956(3) 0.8696(2)
H7 H 0.9160 0.8827 0.8494
H8 H 1.0680 0.9259 0.8788
C11 C 1.0033(3) 0.8481(2) 0.6081(2)
C12 C 0.9937(3) 0.8641(3) 0.9038(2)
C13 C 1.0458(3) 0.8533(3) 0.5806(2)
C14 C 0.9619(3) 0.8166(3) 0.6010(2)
C15 C 1.0337(3) 0.8672(3) 0.9326(2)
C16 C 0.9539(3) 0.8294(3) 0.9066(2)
H9 H 1.0750 0.8736 0.5852
C17 C 1.0450(3) 0.8287(2) 0.5467(2)
C18 C 0.9617(3) 0.7906(2) 0.5672(2)
H10 H 0.9333 0.8125 0.6192
C19 C 1.0347(3) 0.8373(3) 0.9633(2)
H11 H 1.0607 0.8900 0.9312
H12 H 0.9265 0.8264 0.8874
C20 C 0.9544(3) 0.7995(2) 0.9375(2)
H13 H 1.0732 0.8332 0.5283
C21 C 1.0026(3) 0.7971(2) 0.53934(19)
H14 H 0.9339 0.7688 0.5635
C22 C 0.9951(3) 0.8028(2) 0.96629(19)
H15 H 1.0623 0.8404 0.9823
H16 H 0.9271 0.7769 0.9390
C23 C 1.0034(3) 0.7726(2) 0.5013(2)
N2B N 0.9957(3) 0.9526(2) 0.80361(17)
N1B N 0.9995(3) 1.0616(2) 0.79337(17)
C23J C 0.9966(3) 0.7726(2) 1.0013(2)
C22J C 1.0049(3) 0.8028(2) 0.46629(19)
C23F C 1.0034(3) 0.7274(2) 0.4987(2)
C23L C 0.9966(3) 0.7274(2) 0.9987(2)
C21J C 0.9974(3) 0.7971(2) 1.03934(19)
C19J C 0.9653(3) 0.8373(3) 0.4633(2)
C20J C 1.0456(3) 0.7995(2) 0.4375(2)
C22L C 1.0049(3) 0.6972(2) 0.53371(19)
C21F C 1.0026(3) 0.7029(2) 0.46066(19)
C21L C 0.9974(3) 0.7029(2) 0.96066(19)
C22F C 0.9951(3) 0.6972(2) 1.03371(19)
C17J C 0.9550(3) 0.8287(2) 1.0467(2)
C18J C 1.0383(3) 0.7906(2) 1.0672(2)
C15J C 0.9663(3) 0.8672(3) 0.4326(2)
H15J H 0.9377 0.8404 0.4823
H16J H 1.0729 0.7769 0.4390
C16J C 1.0461(3) 0.8294(3) 0.4066(2)
C19L C 0.9653(3) 0.6627(3) 0.5367(2)
C20L C 1.0456(3) 0.7005(2) 0.5625(2)
C17F C 1.0450(3) 0.6713(2) 0.4533(2)
C18F C 0.9617(3) 0.7094(2) 0.4328(2)
C17L C 0.9550(3) 0.6713(2) 0.9533(2)
C18L C 1.0383(3) 0.7094(2) 0.9328(2)
C20F C 0.9544(3) 0.7005(2) 1.0625(2)
C19F C 1.0347(3) 0.6627(3) 1.0367(2)
C13J C 0.9542(3) 0.8533(3) 1.0806(2)
H13J H 0.9268 0.8332 1.0283
H14J H 1.0661 0.7688 1.0635
C14J C 1.0381(3) 0.8166(3) 1.1010(2)
C12J C 1.0063(3) 0.8641(3) 0.4038(2)
H11J H 0.9393 0.8900 0.4312
H12J H 1.0735 0.8264 0.3874
C15L C 0.9663(3) 0.6328(3) 0.5674(2)
H15L H 0.9377 0.6596 0.5177
H16L H 1.0729 0.7231 0.5610
C16L C 1.0461(3) 0.6706(3) 0.5934(2)
C13F C 1.0458(3) 0.6467(3) 0.4194(2)
H13F H 1.0732 0.6668 0.4717
H14F H 0.9339 0.7312 0.4365
C14F C 0.9619(3) 0.6834(3) 0.3990(2)
H13L H 0.9268 0.6668 0.9717
C13L C 0.9542(3) 0.6467(3) 0.9194(2)
C14L C 1.0381(3) 0.6834(3) 0.8990(2)
H14L H 1.0661 0.7312 0.9365
C16F C 0.9539(3) 0.6706(3) 1.0934(2)
H16F H 0.9271 0.7231 1.0610
C15F C 1.0337(3) 0.6328(3) 1.0674(2)
H15F H 1.0623 0.6596 1.0177
C11J C 0.9967(3) 0.8481(2) 1.1081(2)
H9J H 0.9250 0.8736 1.0852
H10J H 1.0667 0.8125 1.1192
C10J C 1.0066(3) 0.8956(3) 0.3696(2)
C12L C 1.0063(3) 0.6359(3) 0.5962(2)
H11L H 0.9393 0.6100 0.5688
H12L H 1.0735 0.6736 0.6126
C11F C 1.0033(3) 0.6519(2) 0.3919(2)
H9F H 1.0750 0.6264 0.4148
H10F H 0.9333 0.6875 0.3808
C11L C 0.9967(3) 0.6519(2) 0.8919(2)
H9L H 0.9250 0.6264 0.9148
H10L H 1.0667 0.6875 0.8808
C12F C 0.9937(3) 0.6359(3) 1.0962(2)
H12F H 0.9265 0.6736 1.1126
H11F H 1.0607 0.6100 1.0688
C9J C 0.9978(3) 0.8768(3) 1.1438(2)
C8J C 0.9623(4) 0.9242(4) 0.3617(3)
C7J C 1.0514(4) 0.8994(3) 0.3449(3)
C10L C 1.0066(3) 0.6044(3) 0.6304(2)
C9F C 1.0022(3) 0.6232(3) 0.3562(2)
C9L C 0.9978(3) 0.6232(3) 0.8562(2)
C10F C 0.9934(3) 0.6044(3) 1.1304(2)
C5J C 0.9488(4) 0.8925(3) 1.1618(3)
C6J C 1.0469(4) 0.8924(3) 1.1597(3)
C4J C 0.9623(4) 0.9505(4) 0.3284(3)
H8J H 0.9320 0.9259 0.3788
H7J H 1.0840 0.8827 0.3494
C3J C 1.0486(4) 0.9276(3) 0.3136(3)
C8L C 0.9623(4) 0.5758(4) 0.6383(3)
C7L C 1.0514(4) 0.6006(3) 0.6551(3)
C5F C 1.0512(4) 0.6075(3) 0.3382(3)
C6F C 0.9531(4) 0.6076(3) 0.3403(3)
C5L C 0.9488(4) 0.6075(3) 0.8382(3)
C6L C 1.0469(4) 0.6076(3) 0.8403(3)
C8F C 1.0377(4) 0.5758(4) 1.1383(3)
C7F C 0.9486(4) 0.6006(3) 1.1551(3)
C1J C 0.9523(4) 0.9223(3) 1.1923(3)
H5J H 0.9137 0.8827 1.1531
C2J C 1.0461(4) 0.9218(3) 1.1903(3)
H6J H 1.0813 0.8829 1.1494
H4J H 0.9304 0.9679 0.3232
N2H N 1.0043(3) 0.9526(2) 0.30361(17)
H3J H 1.0803 0.9295 0.2978
C4L C 0.9623(4) 0.5495(4) 0.6716(3)
H8L H 0.9320 0.5741 0.6212
H7L H 1.0840 0.6173 0.6506
C3L C 1.0486(4) 0.5724(3) 0.6864(3)
C1F C 1.0477(4) 0.5777(3) 0.3077(3)
H5F H 1.0863 0.6173 0.3469
H6F H 0.9187 0.6171 0.3506
C2F C 0.9539(4) 0.5782(3) 0.3097(3)
H5L H 0.9137 0.6173 0.8469
C1L C 0.9523(4) 0.5777(3) 0.8077(3)
C2L C 1.0461(4) 0.5782(3) 0.8097(3)
H6L H 1.0813 0.6171 0.8506
H8F H 1.0680 0.5741 1.1212
C4F C 1.0377(4) 0.5495(4) 1.1716(3)
C3F C 0.9514(4) 0.5724(3) 1.1864(3)
H7F H 0.9160 0.6173 1.1506
N1J N 1.0005(3) 0.9384(2) 1.20663(17)
H1J H 0.9188 0.9319 1.2037
H2J H 1.0807 0.9308 1.2005
Mn1H Mn 1.00231(6) 1.0000 0.2500
H4L H 0.9304 0.5321 0.6768
N2N N 1.0043(3) 0.5474(2) 0.69639(17)
H3L H 1.0803 0.5705 0.7022
H1F H 1.0812 0.5681 0.2963
N1F N 0.9995(3) 0.5616(2) 0.29337(17)
H2F H 0.9193 0.5692 0.2995
N1L N 1.0005(3) 0.5616(2) 0.79337(17)
H1L H 0.9188 0.5681 0.7963
H2L H 1.0807 0.5692 0.7995
N2D N 0.9957(3) 0.5474(2) 1.19639(17)
H4F H 1.0696 0.5321 1.1768
H3F H 0.9197 0.5705 1.2022
Mn1H_2 Mn 1.00231(6) 1.0000 1.2500
Mn1L Mn 1.00231(6) 0.5000 0.7500
Mn1D Mn 0.99769(6) 0.5000 0.2500
Mn1D_2 Mn 0.99769(6) 0.5000 1.2500
Cl2H Cl 1.10608(10) 1.0000 1.2500
Cl1H Cl 0.89886(10) 1.0000 1.2500
N2H_2 N 1.0043(3) 0.9526(2) 1.30361(17)
N2J N 1.0043(3) 1.0474(2) 1.19639(17)
N1H N 1.0005(3) 1.0616(2) 1.29337(17)
C24 C 0.7960(3) 0.8232(3) 0.5620(2)
H17 H 0.8297 0.8159 0.5496
C25 C 0.7981(3) 0.8524(3) 0.5934(2)
H18 H 0.8326 0.8635 0.6019
C26 C 0.7488(3) 0.8654(2) 0.6123(2)
C27 C 0.6992(4) 0.8474(3) 0.5973(3)
H19 H 0.6648 0.8548 0.6085
C28 C 0.7009(4) 0.8187(3) 0.5658(3)
H20 H 0.6670 0.8081 0.5557
C29 C 0.7490(3) 0.8952(2) 0.64645(19)
C30 C 0.7904(3) 0.8914(3) 0.6741(2)
H21 H 0.8191 0.8702 0.6708
C31 C 0.7901(3) 0.9186(3) 0.7067(2)
H22 H 0.8187 0.9155 0.7251
C32 C 0.7483(3) 0.9504(2) 0.71263(19)
C33 C 0.7056(3) 0.9547(3) 0.6852(2)
H23 H 0.6768 0.9758 0.6889
C34 C 0.7062(3) 0.9275(3) 0.6524(2)
H24 H 0.6778 0.9306 0.6339
C35 C 0.7496(3) 0.9766(2) 0.7497(2)
C36 C 0.7503(3) 0.9495(2) 0.78617(19)
C37 C 0.7867(3) 0.9570(3) 0.8167(2)
H25 H 0.8116 0.9814 0.8155
C38 C 0.7873(3) 0.9291(3) 0.8493(2)
H26 H 0.8127 0.9347 0.8693
C39 C 0.7504(3) 0.8931(2) 0.85220(19)
C40 C 0.7134(3) 0.8848(3) 0.8206(2)
H27 H 0.6886 0.8603 0.8215
C41 C 0.7140(3) 0.9126(3) 0.7888(2)
H28 H 0.6894 0.9066 0.7683
C42 C 0.7495(3) 0.8629(2) 0.88640(19)
C43 C 0.7947(3) 0.8605(3) 0.9121(2)
H29 H 0.8263 0.8788 0.9083
C44 C 0.7927(3) 0.8308(3) 0.9435(2)
H30 H 0.8234 0.8299 0.9602
C45 C 0.7057(3) 0.8060(3) 0.9262(2)
H31 H 0.6745 0.7877 0.9311
C46 C 0.7046(3) 0.8340(3) 0.8943(2)
H32 H 0.6735 0.8336 0.8778
N3 N 0.7493(3) 0.8051(2) 0.54866(16)
N4 N 0.7498(3) 0.8038(2) 0.95088(16)
Cl3 Cl 0.85452(10) 0.7500 0.5000
Mn2 Mn 0.7500 0.7500 0.5000
Mn3 Mn 0.7500 0.7500 1.0000
Cl4 Cl 0.64659(10) 0.7500 1.0000
C24B C 0.7960(3) 1.1768(3) 0.9380(2)
H17B H 0.8297 1.1841 0.9504
C25B C 0.7981(3) 1.1476(3) 0.9066(2)
H18B H 0.8326 1.1365 0.8981
C26B C 0.7488(3) 1.1346(2) 0.8877(2)
C27B C 0.6992(4) 1.1526(3) 0.9027(3)
H19B H 0.6648 1.1452 0.8915
C28B C 0.7009(4) 1.1813(3) 0.9342(3)
H20B H 0.6670 1.1919 0.9443
C29B C 0.7490(3) 1.1048(2) 0.85355(19)
C30B C 0.7904(3) 1.1086(3) 0.8259(2)
H21B H 0.8191 1.1298 0.8292
C31B C 0.7901(3) 1.0814(3) 0.7933(2)
H22B H 0.8187 1.0845 0.7749
C32B C 0.7483(3) 1.0496(2) 0.78737(19)
C33B C 0.7056(3) 1.0453(3) 0.8148(2)
H23B H 0.6768 1.0242 0.8111
C34B C 0.7062(3) 1.0725(3) 0.8476(2)
H24B H 0.6778 1.0694 0.8661
C35B C 0.7496(3) 1.0234(2) 0.7503(2)
C36B C 0.7503(3) 1.0505(2) 0.71383(19)
C37B C 0.7867(3) 1.0430(3) 0.6833(2)
H25B H 0.8116 1.0186 0.6845
C38B C 0.7873(3) 1.0709(3) 0.6507(2)
H26B H 0.8127 1.0653 0.6307
C39B C 0.7504(3) 1.1069(2) 0.64780(19)
C40B C 0.7134(3) 1.1152(3) 0.6794(2)
H27B H 0.6886 1.1397 0.6785
C41B C 0.7140(3) 1.0874(3) 0.7112(2)
H28B H 0.6894 1.0934 0.7317
C42B C 0.7495(3) 1.1371(2) 0.61360(19)
C43B C 0.7947(3) 1.1395(3) 0.5879(2)
H29B H 0.8263 1.1212 0.5917
C44B C 0.7927(3) 1.1692(3) 0.5565(2)
H30B H 0.8234 1.1701 0.5398
C45B C 0.7057(3) 1.1940(3) 0.5738(2)
H31B H 0.6745 1.2123 0.5689
C46B C 0.7046(3) 1.1660(3) 0.6057(2)
H32B H 0.6735 1.1664 0.6222
N3B N 0.7493(3) 1.1949(2) 0.95134(16)
N4B N 0.7498(3) 1.1962(2) 0.54912(16)
C24C C 0.7040(3) 0.8232(3) 0.4380(2)
H17C H 0.6703 0.8159 0.4504
C25C C 0.7019(3) 0.8524(3) 0.4066(2)
H18C H 0.6674 0.8635 0.3981
C26C C 0.7512(3) 0.8654(2) 0.3877(2)
C27C C 0.8008(4) 0.8474(3) 0.4027(3)
H19C H 0.8352 0.8548 0.3915
C28C C 0.7991(4) 0.8187(3) 0.4342(3)
H20C H 0.8330 0.8081 0.4443
C29C C 0.7510(3) 0.8952(2) 0.35355(19)
C30C C 0.7096(3) 0.8914(3) 0.3259(2)
H21C H 0.6809 0.8702 0.3292
C31C C 0.7099(3) 0.9186(3) 0.2933(2)
H22C H 0.6813 0.9155 0.2749
C32C C 0.7517(3) 0.9504(2) 0.28737(19)
C33C C 0.7944(3) 0.9547(3) 0.3148(2)
H23C H 0.8232 0.9758 0.3111
C34C C 0.7938(3) 0.9275(3) 0.3476(2)
H24C H 0.8222 0.9306 0.3661
C35C C 0.7504(3) 0.9766(2) 0.2503(2)
C36C C 0.7497(3) 0.9495(2) 0.21383(19)
C37C C 0.7133(3) 0.9570(3) 0.1833(2)
H25C H 0.6884 0.9814 0.1845
C38C C 0.7127(3) 0.9291(3) 0.1507(2)
H26C H 0.6873 0.9347 0.1307
C39C C 0.7496(3) 0.8931(2) 0.14780(19)
C40C C 0.7866(3) 0.8848(3) 0.1794(2)
H27C H 0.8114 0.8603 0.1785
C41C C 0.7860(3) 0.9126(3) 0.2112(2)
H28C H 0.8106 0.9066 0.2317
C42C C 0.7505(3) 0.8629(2) 0.11360(19)
C43C C 0.7053(3) 0.8605(3) 0.0879(2)
H29C H 0.6737 0.8788 0.0917
C44C C 0.7073(3) 0.8308(3) 0.0565(2)
H30C H 0.6766 0.8299 0.0398
C45C C 0.7943(3) 0.8060(3) 0.0738(2)
H31C H 0.8255 0.7877 0.0689
C46C C 0.7954(3) 0.8340(3) 0.1057(2)
H32C H 0.8265 0.8336 0.1222
N3C N 0.7507(3) 0.8051(2) 0.45134(16)
N4C N 0.7502(3) 0.8038(2) 0.04912(16)
Cl3C Cl 0.64548(10) 0.7500 0.5000
C24A C 0.7040(3) 1.1768(3) 0.0620(2)
H17A H 0.6703 1.1841 0.0496
C25A C 0.7019(3) 1.1476(3) 0.0934(2)
H18A H 0.6674 1.1365 0.1019
C26A C 0.7512(3) 1.1346(2) 0.1123(2)
C27A C 0.8008(4) 1.1526(3) 0.0973(3)
H19A H 0.8352 1.1452 0.1085
C28A C 0.7991(4) 1.1813(3) 0.0658(3)
H20A H 0.8330 1.1919 0.0557
C29A C 0.7510(3) 1.1048(2) 0.14645(19)
C30A C 0.7096(3) 1.1086(3) 0.1741(2)
H21A H 0.6809 1.1298 0.1708
C31A C 0.7099(3) 1.0814(3) 0.2067(2)
H22A H 0.6813 1.0845 0.2251
C32A C 0.7517(3) 1.0496(2) 0.21263(19)
C33A C 0.7944(3) 1.0453(3) 0.1852(2)
H23A H 0.8232 1.0242 0.1889
C34A C 0.7938(3) 1.0725(3) 0.1524(2)
H24A H 0.8222 1.0694 0.1339
C35A C 0.7504(3) 1.0234(2) 0.2497(2)
C36A C 0.7497(3) 1.0505(2) 0.28617(19)
C37A C 0.7133(3) 1.0430(3) 0.3167(2)
H25A H 0.6884 1.0186 0.3155
C38A C 0.7127(3) 1.0709(3) 0.3493(2)
H26A H 0.6873 1.0653 0.3693
C39A C 0.7496(3) 1.1069(2) 0.35220(19)
C40A C 0.7866(3) 1.1152(3) 0.3206(2)
H27A H 0.8114 1.1397 0.3215
C41A C 0.7860(3) 1.0874(3) 0.2888(2)
H28A H 0.8106 1.0934 0.2683
C42A C 0.7505(3) 1.1371(2) 0.38640(19)
C43A C 0.7053(3) 1.1395(3) 0.4121(2)
H29A H 0.6737 1.1212 0.4083
C44A C 0.7073(3) 1.1692(3) 0.4435(2)
H30A H 0.6766 1.1701 0.4602
C45A C 0.7943(3) 1.1940(3) 0.4262(2)
H31A H 0.8255 1.2123 0.4311
C46A C 0.7954(3) 1.1660(3) 0.3943(2)
H32A H 0.8265 1.1664 0.3778
N3A N 0.7507(3) 1.1949(2) 0.04866(16)
N4A N 0.7502(3) 1.1962(2) 0.45088(16)
Cl4C Cl 0.85341(10) 0.7500 1.0000
N3E N 0.7507(3) 0.6949(2) 0.54866(16)
N3F N 0.7493(3) 0.6949(2) 0.45134(16)
N4C_2 N 0.7502(3) 0.8038(2) 1.04912(16)
N4E N 0.7502(3) 0.6962(2) 0.95088(16)
N4F N 0.7498(3) 0.6962(2) 1.04912(16)
Mn2A Mn 0.7500 1.2500 0.0000
Mn2A_2 Mn 0.7500 1.2500 1.0000
Mn3_2 Mn 0.7500 0.7500 0.0000
Mn3A Mn 0.7500 1.2500 0.5000
C47 C 1.1273(8) 0.7850(5) 0.8198(5)
C48 C 1.1424(7) 0.8067(5) 0.7924(4)
Cl5 Cl 1.20068(17) 0.80059(14) 0.76405(13)
Cl6 Cl 1.17161(19) 0.73969(13) 0.83441(14)
Cl7 Cl 1.09785(18) 0.85362(14) 0.77794(13)
Cl8 Cl 1.06953(18) 0.79260(14) 0.84765(13)
C49 C 1.1112(6) 0.7026(4) 0.7162(4)
C50 C 1.1169(7) 0.7309(4) 0.6901(4)
Cl9 Cl 1.1755(2) 0.73057(16) 0.66149(14)
Cl10 Cl 1.15883(18) 0.66220(14) 0.72644(15)
Cl11 Cl 1.0698(2) 0.77282(17) 0.6780(2)
Cl12 Cl 1.0521(2) 0.7032(2) 0.74640(18)
C51 C 0.6218(5) 0.9409(4) 0.9774(4)
C52 C 0.6057(6) 0.9678(4) 0.9510(4)
Cl13 Cl 0.64662(18) 0.97461(15) 0.90896(11)
Cl14 Cl 0.68157(15) 0.91088(13) 0.97574(11)
Cl15 Cl 0.54579(18) 0.99944(16) 0.95240(19)
Cl16 Cl 0.57973(16) 0.93158(13) 1.01791(11)
C53 C 0.8475(6) 1.0307(5) 0.9386(4)
C54 C 0.8685(6) 1.0586(4) 0.9610(4)
Cl17 Cl 0.88669(18) 1.01447(15) 0.89709(11)
Cl18 Cl 0.93032(16) 1.08618(13) 0.95542(12)
Cl19 Cl 0.78568(16) 1.00279(15) 0.94319(13)
Cl20 Cl 0.83035(17) 1.07398(13) 1.00327(11)
loop_
_geom_bond_atom_site_label_1
_geom_bond_atom_site_label_2
_geom_bond_site_symmetry_1
_geom_bond_site_symmetry_2
Mn1 N1 1_555 1_555
N1 C1 1_555 1_555
Cl1 Mn1 1_555 1_555
Cl2 Mn1 1_555 1_555
N2 Mn1 1_555 1_555
C1 H1 1_555 1_555
C2 N1 1_555 1_555
C3 C7 1_555 1_555
C4 C8 1_555 1_555
C5 C1 1_555 1_555
C6 C2 1_555 1_555
H2 C2 1_555 1_555
C7 C10 1_555 1_555
H3 C3 1_555 1_555
C8 C10 1_555 1_555
H4 C4 1_555 1_555
H5 C5 1_555 1_555
C9 C5 1_555 1_555
H6 C6 1_555 1_555
C10 C12 1_555 1_555
H7 C7 1_555 1_555
H8 C8 1_555 1_555
C11 C9 1_555 1_555
C12 C15 1_555 1_555
C13 C11 1_555 1_555
C14 C11 1_555 1_555
C15 C19 1_555 1_555
C16 C12 1_555 1_555
H9 C13 1_555 1_555
C17 C13 1_555 1_555
C18 C14 1_555 1_555
H10 C14 1_555 1_555
C19 C22 1_555 1_555
H11 C15 1_555 1_555
H12 C16 1_555 1_555
C20 C16 1_555 1_555
H13 C17 1_555 1_555
C21 C17 1_555 1_555
H14 C18 1_555 1_555
C22 C20 1_555 1_555
H15 C19 1_555 1_555
H16 C20 1_555 1_555
C23 C21 1_555 1_555
C24 H17 1_555 1_555
C25 C24 1_555 1_555
H18 C25 1_555 1_555
C26 C25 1_555 1_555
C27 C26 1_555 1_555
H19 C27 1_555 1_555
C28 C27 1_555 1_555
H20 C28 1_555 1_555
C29 C26 1_555 1_555
C30 C29 1_555 1_555
H21 C30 1_555 1_555
C31 C30 1_555 1_555
H22 C31 1_555 1_555
C32 C31 1_555 1_555
C33 C32 1_555 1_555
H23 C33 1_555 1_555
C34 C29 1_555 1_555
H24 C34 1_555 1_555
C35 C32 1_555 1_555
C36 C35 1_555 1_555
C37 C36 1_555 1_555
H25 C37 1_555 1_555
C38 C37 1_555 1_555
H26 C38 1_555 1_555
C39 C38 1_555 1_555
C40 C39 1_555 1_555
H27 C40 1_555 1_555
C41 C36 1_555 1_555
H28 C41 1_555 1_555
C42 C39 1_555 1_555
C43 C42 1_555 1_555
H29 C43 1_555 1_555
C44 C43 1_555 1_555
H30 C44 1_555 1_555
C45 H31 1_555 1_555
C46 C42 1_555 1_555
H32 C46 1_555 1_555
N3 C24 1_555 1_555
N4 C44 1_555 1_555
Cl3 Mn2 1_555 1_555
Mn2 N3 1_555 1_555
Mn3 N4 1_555 1_555
Cl4 Mn3 1_555 1_555
C47 C48 1_555 1_555
C48 Cl5 1_555 1_555
Cl6 C47 1_555 1_555
Cl7 C48 1_555 1_555
Cl8 C47 1_555 1_555
C49 C50 1_555 1_555
C50 Cl9 1_555 1_555
Cl10 C49 1_555 1_555
Cl11 C50 1_555 1_555
Cl12 C49 1_555 1_555
C51 C52 1_555 1_555
C52 Cl13 1_555 1_555
Cl14 C51 1_555 1_555
Cl15 C52 1_555 1_555
Cl16 C51 1_555 1_555
C53 C54 1_555 1_555
C54 Cl18 1_555 1_555
Cl17 C53 1_555 1_555
Cl19 C53 1_555 1_555
Cl20 C54 1_555 1_555
N2B Mn1 1_555 1_555
N1B Mn1 1_555 1_555
C23J C22 1_555 1_555
C22J C23 1_555 1_555
C23F C23 1_555 1_555
C23L C23J 1_555 1_555
C21J C23J 1_555 1_555
C19J C22J 1_555 1_555
C20J C22J 1_555 1_555
C22L C23F 1_555 1_555
C21F C23F 1_555 1_555
C21L C23L 1_555 1_555
C22F C23L 1_555 1_555
C17J C21J 1_555 1_555
C18J C21J 1_555 1_555
C15J C19J 1_555 1_555
H15J C19J 1_555 1_555
H16J C20J 1_555 1_555
C16J C20J 1_555 1_555
C19L C22L 1_555 1_555
C20L C22L 1_555 1_555
C17F C21F 1_555 1_555
C18F C21F 1_555 1_555
C17L C21L 1_555 1_555
C18L C21L 1_555 1_555
C20F C22F 1_555 1_555
C19F C22F 1_555 1_555
C13J C17J 1_555 1_555
H13J C17J 1_555 1_555
H14J C18J 1_555 1_555
C14J C18J 1_555 1_555
C12J C15J 1_555 1_555
H11J C15J 1_555 1_555
H12J C16J 1_555 1_555
C15L C19L 1_555 1_555
H15L C19L 1_555 1_555
H16L C20L 1_555 1_555
C16L C20L 1_555 1_555
C13F C17F 1_555 1_555
H13F C17F 1_555 1_555
H14F C18F 1_555 1_555
C14F C18F 1_555 1_555
H13L C17L 1_555 1_555
C13L C17L 1_555 1_555
C14L C18L 1_555 1_555
H14L C18L 1_555 1_555
C16F C20F 1_555 1_555
H16F C20F 1_555 1_555
C15F C19F 1_555 1_555
H15F C19F 1_555 1_555
C11J C13J 1_555 1_555
H9J C13J 1_555 1_555
H10J C14J 1_555 1_555
C10J C12J 1_555 1_555
C12L C15L 1_555 1_555
H11L C15L 1_555 1_555
H12L C16L 1_555 1_555
C11F C13F 1_555 1_555
H9F C13F 1_555 1_555
H10F C14F 1_555 1_555
C11L C13L 1_555 1_555
H9L C13L 1_555 1_555
H10L C14L 1_555 1_555
C12F C16F 1_555 1_555
H12F C16F 1_555 1_555
H11F C15F 1_555 1_555
C9J C11J 1_555 1_555
C8J C10J 1_555 1_555
C7J C10J 1_555 1_555
C10L C12L 1_555 1_555
C9F C11F 1_555 1_555
C9L C11L 1_555 1_555
C10F C12F 1_555 1_555
C5J C9J 1_555 1_555
C6J C9J 1_555 1_555
C4J C8J 1_555 1_555
H8J C8J 1_555 1_555
H7J C7J 1_555 1_555
C3J C7J 1_555 1_555
C8L C10L 1_555 1_555
C7L C10L 1_555 1_555
C5F C9F 1_555 1_555
C6F C9F 1_555 1_555
C5L C9L 1_555 1_555
C6L C9L 1_555 1_555
C8F C10F 1_555 1_555
C7F C10F 1_555 1_555
C1J C5J 1_555 1_555
H5J C5J 1_555 1_555
C2J C6J 1_555 1_555
H6J C6J 1_555 1_555
H4J C4J 1_555 1_555
N2H C4J 1_555 1_555
H3J C3J 1_555 1_555
C4L C8L 1_555 1_555
H8L C8L 1_555 1_555
H7L C7L 1_555 1_555
C3L C7L 1_555 1_555
C1F C5F 1_555 1_555
H5F C5F 1_555 1_555
H6F C6F 1_555 1_555
C2F C6F 1_555 1_555
H5L C5L 1_555 1_555
C1L C5L 1_555 1_555
C2L C6L 1_555 1_555
H6L C6L 1_555 1_555
H8F C8F 1_555 1_555
C4F C8F 1_555 1_555
C3F C7F 1_555 1_555
H7F C7F 1_555 1_555
N1J C1J 1_555 1_555
H1J C1J 1_555 1_555
H2J C2J 1_555 1_555
Mn1H N2H 1_555 1_555
H4L C4L 1_555 1_555
N2N C4L 1_555 1_555
H3L C3L 1_555 1_555
H1F C1F 1_555 1_555
N1F C1F 1_555 1_555
H2F C2F 1_555 1_555
N1L C1L 1_555 1_555
H1L C1L 1_555 1_555
H2L C2L 1_555 1_555
N2D C4F 1_555 1_555
H4F C4F 1_555 1_555
H3F C3F 1_555 1_555
Mn1H_2 N1J 1_555 1_555
Mn1L N2N 1_555 1_555
Mn1D N1F 1_555 1_555
Mn1D_2 N2D 1_555 1_555
Cl2H Mn1H_2 1_555 1_555
Cl1H Mn1H_2 1_555 1_555
N2H_2 Mn1H_2 1_555 1_555
N2J Mn1H_2 1_555 1_555
N1H Mn1H_2 1_555 1_555
C24B H17B 1_555 1_555
C25B C24B 1_555 1_555
H18B C25B 1_555 1_555
C26B C25B 1_555 1_555
C27B C26B 1_555 1_555
H19B C27B 1_555 1_555
C28B C27B 1_555 1_555
H20B C28B 1_555 1_555
C29B C26B 1_555 1_555
C30B C29B 1_555 1_555
H21B C30B 1_555 1_555
C31B C30B 1_555 1_555
H22B C31B 1_555 1_555
C32B C31B 1_555 1_555
C33B C32B 1_555 1_555
H23B C33B 1_555 1_555
C34B C29B 1_555 1_555
H24B C34B 1_555 1_555
C35B C35 1_555 1_555
C36B C35B 1_555 1_555
C37B C36B 1_555 1_555
H25B C37B 1_555 1_555
C38B C37B 1_555 1_555
H26B C38B 1_555 1_555
C39B C38B 1_555 1_555
C40B C39B 1_555 1_555
H27B C40B 1_555 1_555
C41B C36B 1_555 1_555
H28B C41B 1_555 1_555
C42B C39B 1_555 1_555
C43B C42B 1_555 1_555
H29B C43B 1_555 1_555
C44B C43B 1_555 1_555
H30B C44B 1_555 1_555
C45B H31B 1_555 1_555
C46B C42B 1_555 1_555
H32B C46B 1_555 1_555
N3B C24B 1_555 1_555
N4B C44B 1_555 1_555
C24C H17C 1_555 1_555
C25C C24C 1_555 1_555
H18C C25C 1_555 1_555
C26C C25C 1_555 1_555
C27C C26C 1_555 1_555
H19C C27C 1_555 1_555
C28C C27C 1_555 1_555
H20C C28C 1_555 1_555
C29C C26C 1_555 1_555
C30C C29C 1_555 1_555
H21C C30C 1_555 1_555
C31C C30C 1_555 1_555
H22C C31C 1_555 1_555
C32C C31C 1_555 1_555
C33C C32C 1_555 1_555
H23C C33C 1_555 1_555
C34C C29C 1_555 1_555
H24C C34C 1_555 1_555
C35C C32C 1_555 1_555
C36C C35C 1_555 1_555
C37C C36C 1_555 1_555
H25C C37C 1_555 1_555
C38C C37C 1_555 1_555
H26C C38C 1_555 1_555
C39C C38C 1_555 1_555
C40C C39C 1_555 1_555
H27C C40C 1_555 1_555
C41C C36C 1_555 1_555
H28C C41C 1_555 1_555
C42C C39C 1_555 1_555
C43C C42C 1_555 1_555
H29C C43C 1_555 1_555
C44C C43C 1_555 1_555
H30C C44C 1_555 1_555
C45C H31C 1_555 1_555
C46C C42C 1_555 1_555
H32C C46C 1_555 1_555
N3C Mn2 1_555 1_555
N4C C44C 1_555 1_555
Cl3C Mn2 1_555 1_555
C24A H17A 1_555 1_555
C25A C24A 1_555 1_555
H18A C25A 1_555 1_555
C26A C25A 1_555 1_555
C27A C26A 1_555 1_555
H19A C27A 1_555 1_555
C28A C27A 1_555 1_555
H20A C28A 1_555 1_555
C29A C26A 1_555 1_555
C30A C29A 1_555 1_555
H21A C30A 1_555 1_555
C31A C30A 1_555 1_555
H22A C31A 1_555 1_555
C32A C31A 1_555 1_555
C33A C32A 1_555 1_555
H23A C33A 1_555 1_555
C34A C29A 1_555 1_555
H24A C34A 1_555 1_555
C35A C35C 1_555 1_555
C36A C35A 1_555 1_555
C37A C36A 1_555 1_555
H25A C37A 1_555 1_555
C38A C37A 1_555 1_555
H26A C38A 1_555 1_555
C39A C38A 1_555 1_555
C40A C39A 1_555 1_555
H27A C40A 1_555 1_555
C41A C36A 1_555 1_555
H28A C41A 1_555 1_555
C42A C39A 1_555 1_555
C43A C42A 1_555 1_555
H29A C43A 1_555 1_555
C44A C43A 1_555 1_555
H30A C44A 1_555 1_555
C45A H31A 1_555 1_555
C46A C42A 1_555 1_555
H32A C46A 1_555 1_555
N3A C24A 1_555 1_555
N4A C44A 1_555 1_555
Cl4C Mn3 1_555 1_555
N3E Mn2 1_555 1_555
N3F Mn2 1_555 1_555
N4C_2 Mn3 1_555 1_555
N4E Mn3 1_555 1_555
N4F Mn3 1_555 1_555
Mn2A N3A 1_555 1_555
Mn2A_2 N3B 1_555 1_555
Mn3_2 N4C 1_555 1_555
Mn3A N4B 1_555 1_555
C3 N2B 1_555 1_555
C4 N2B 1_555 1_555
C6 C9 1_555 1_555
C18 C21 1_555 1_555
C28 N3 1_555 1_555
C33 C34 1_555 1_555
C40 C41 1_555 1_555
C45 C46 1_555 1_555
C45 N4 1_555 1_555
C16J C12J 1_555 1_555
C14J C11J 1_555 1_555
C16L C12L 1_555 1_555
C14F C11F 1_555 1_555
C14L C11L 1_555 1_555
C15F C12F 1_555 1_555
C3J N2H 1_555 1_555
C2J N1J 1_555 1_555
C3L N2N 1_555 1_555
C2F N1F 1_555 1_555
C2L N1L 1_555 1_555
C3F N2D 1_555 1_555
N1L Mn1L 1_555 1_555
C28B N3B 1_555 1_555
C32B C35B 1_555 1_555
C33B C34B 1_555 1_555
C40B C41B 1_555 1_555
C45B C46B 1_555 1_555
C45B N4B 1_555 1_555
C24C N3C 1_555 1_555
C28C N3C 1_555 1_555
C33C C34C 1_555 1_555
C40C C41C 1_555 1_555
C45C C46C 1_555 1_555
C45C N4C 1_555 1_555
C28A N3A 1_555 1_555
C32A C35A 1_555 1_555
C33A C34A 1_555 1_555
C40A C41A 1_555 1_555
C45A C46A 1_555 1_555
C45A N4A 1_555 1_555
N4A Mn3A 1_555 1_555

#END
