
#######################################################################
#
#                 Cambridge Crystallographic Data Centre
#                                CCDC 
#
#######################################################################
#
# If this CIF has been generated from an entry in the Cambridge 
# Structural Database, then it will include bibliographic, chemical, 
# crystal, experimental, refinement or atomic coordinate data resulting 
# from the CCDC's data processing and validation procedures.
#
#######################################################################

data_LUPZIH
_symmetry_cell_setting           orthorhombic
_symmetry_space_group_name_H-M   'A c a a'
_symmetry_Int_Tables_number      68
_space_group_name_Hall           '-A 2ab 2b'
loop_
_symmetry_equiv_pos_site_id
_symmetry_equiv_pos_as_xyz
1 x,y,z
2 1/2-x,-y,1/2+z
3 x,-y,1/2-z
4 1/2-x,y,-z
5 x,1/2+y,1/2+z
6 1/2-x,1/2-y,z
7 x,1/2-y,-z
8 1/2-x,1/2+y,1/2-z
9 -x,-y,-z
10 1/2+x,y,1/2-z
11 -x,y,1/2+z
12 1/2+x,-y,z
13 -x,1/2-y,1/2-z
14 1/2+x,1/2+y,-z
15 -x,1/2+y,z
16 1/2+x,1/2-y,1/2+z
_cell_length_a                   23.675(3)
_cell_length_b                   29.299(4)
_cell_length_c                   34.539(4)
_cell_angle_alpha                90
_cell_angle_beta                 90
_cell_angle_gamma                90
_cell_volume                     23958.1
loop_
_atom_site_label
_atom_site_type_symbol
_atom_site_fract_x
_atom_site_fract_y
_atom_site_fract_z
Cu1 Cu 0.7500 0.2500 0.5000
N1 N 0.7496(3) 0.3042(2) 0.54931(19)
Cl1 Cl 0.64680(11) 0.2500 0.5000
C1 C 0.7931(3) 0.3306(3) 0.5567(2)
C2 C 0.7055(4) 0.3059(3) 0.5731(2)
H1 H 0.8249 0.3294 0.5399
C3 C 0.7944(4) 0.3602(3) 0.5880(2)
C4 C 0.7047(4) 0.3339(3) 0.6052(3)
H2 H 0.6735 0.2873 0.5678
H3 H 0.8264 0.3792 0.5920
C5 C 0.7492(4) 0.3620(3) 0.6137(2)
H4 H 0.6727 0.3336 0.6218
C6 C 0.7508(3) 0.3928(3) 0.6477(2)
C7 C 0.7872(3) 0.4295(3) 0.6511(2)
C8 C 0.7133(4) 0.3848(3) 0.6792(2)
H5 H 0.8128 0.4360 0.6307
C9 C 0.7869(3) 0.4570(3) 0.6838(2)
C10 C 0.7136(3) 0.4119(3) 0.7114(2)
H6 H 0.6874 0.3601 0.6778
H7 H 0.8130 0.4815 0.6855
C11 C 0.7496(3) 0.4495(3) 0.7138(2)
H8 H 0.6891 0.4051 0.7324
C12 C 0.7494(3) 0.4766(3) 0.7505(2)
C13 C 0.7481(3) 0.4503(3) 0.7872(2)
C14 C 0.7898(3) 0.4183(3) 0.7927(2)
C15 C 0.7059(3) 0.4548(3) 0.8149(2)
H9 H 0.8187 0.4150 0.7738
C16 C 0.7904(4) 0.3909(3) 0.8252(3)
C17 C 0.7071(4) 0.4279(3) 0.8473(2)
H10 H 0.6765 0.4764 0.8114
H11 H 0.8196 0.3690 0.8284
C18 C 0.7489(3) 0.3952(3) 0.8533(2)
H12 H 0.6784 0.4317 0.8663
C19 C 0.7480(4) 0.3661(3) 0.8882(2)
C20 C 0.7987(4) 0.3523(3) 0.9061(3)
C21 C 0.6988(4) 0.3477(3) 0.9033(3)
H13 H 0.8339 0.3632 0.8969
C22 C 0.7969(4) 0.3228(3) 0.9371(3)
C23 C 0.7011(4) 0.3192(3) 0.9349(3)
H14 H 0.6634 0.3548 0.8918
H15 H 0.8316 0.3144 0.9491
N2 N 0.7491(3) 0.3053(2) 0.95133(19)
H16 H 0.6665 0.3088 0.9456
Cu2 Cu 0.7500 0.2500 1.0000
Cl2 Cl 0.64547(11) 0.2500 1.0000
N1C N 0.7504(3) 0.3042(2) 0.45069(19)
Cl1C Cl 0.85320(11) 0.2500 0.5000
N1E N 0.7504(3) 0.1958(2) 0.54931(19)
N1F N 0.7496(3) 0.1958(2) 0.45069(19)
C1C C 0.7069(3) 0.3306(3) 0.4433(2)
C2C C 0.7945(4) 0.3059(3) 0.4269(2)
H1C H 0.6751 0.3294 0.4601
C3C C 0.7056(4) 0.3602(3) 0.4120(2)
C4C C 0.7953(4) 0.3339(3) 0.3948(3)
H2C H 0.8265 0.2873 0.4322
H3C H 0.6736 0.3792 0.4080
C5C C 0.7508(4) 0.3620(3) 0.3863(2)
H4C H 0.8273 0.3336 0.3782
C6C C 0.7492(3) 0.3928(3) 0.3523(2)
C7C C 0.7128(3) 0.4295(3) 0.3489(2)
C8C C 0.7867(4) 0.3848(3) 0.3208(2)
H5C H 0.6872 0.4360 0.3693
C9C C 0.7131(3) 0.4570(3) 0.3162(2)
C10C C 0.7864(3) 0.4119(3) 0.2886(2)
H6C H 0.8126 0.3601 0.3222
H7C H 0.6870 0.4815 0.3145
C11C C 0.7504(3) 0.4495(3) 0.2862(2)
H8C H 0.8109 0.4051 0.2676
C12C C 0.7506(3) 0.4766(3) 0.2495(2)
C12B C 0.7494(3) 0.5234(3) 0.7495(2)
C13C C 0.7519(3) 0.4503(3) 0.2128(2)
C12A C 0.7506(3) 0.5234(3) 0.2505(2)
C11B C 0.7496(3) 0.5505(3) 0.7862(2)
C13B C 0.7481(3) 0.5497(3) 0.7128(2)
C14C C 0.7102(3) 0.4183(3) 0.2073(2)
C15C C 0.7941(3) 0.4548(3) 0.1851(2)
C11A C 0.7504(3) 0.5505(3) 0.2138(2)
C13A C 0.7519(3) 0.5497(3) 0.2872(2)
C9B C 0.7869(3) 0.5430(3) 0.8162(2)
C10B C 0.7136(3) 0.5881(3) 0.7886(2)
C14B C 0.7898(3) 0.5817(3) 0.7073(2)
C15B C 0.7059(3) 0.5452(3) 0.6851(2)
H9C H 0.6813 0.4150 0.2262
C16C C 0.7096(4) 0.3909(3) 0.1748(3)
C17C C 0.7929(4) 0.4279(3) 0.1527(2)
H10C H 0.8235 0.4764 0.1886
C9A C 0.7131(3) 0.5430(3) 0.1838(2)
C10A C 0.7864(3) 0.5881(3) 0.2114(2)
C14A C 0.7102(3) 0.5817(3) 0.2927(2)
C15A C 0.7941(3) 0.5452(3) 0.3149(2)
C7B C 0.7872(3) 0.5705(3) 0.8489(2)
H7B H 0.8130 0.5185 0.8145
H8B H 0.6891 0.5949 0.7676
C8B C 0.7133(4) 0.6152(3) 0.8208(2)
H9B H 0.8187 0.5850 0.7262
C16B C 0.7904(4) 0.6091(3) 0.6748(3)
C17B C 0.7071(4) 0.5721(3) 0.6527(2)
H10B H 0.6765 0.5236 0.6886
H11C H 0.6804 0.3690 0.1716
C18C C 0.7511(3) 0.3952(3) 0.1467(2)
H12C H 0.8216 0.4317 0.1337
C7A C 0.7128(3) 0.5705(3) 0.1511(2)
H7A H 0.6870 0.5185 0.1855
H8A H 0.8109 0.5949 0.2324
C8A C 0.7867(4) 0.6152(3) 0.1792(2)
H9A H 0.6813 0.5850 0.2738
C16A C 0.7096(4) 0.6091(3) 0.3252(3)
C17A C 0.7929(4) 0.5721(3) 0.3473(2)
H10A H 0.8235 0.5236 0.3114
C6B C 0.7508(3) 0.6072(3) 0.8523(2)
H5B H 0.8128 0.5640 0.8693
H6B H 0.6874 0.6399 0.8222
H11B H 0.8196 0.6310 0.6716
C18B C 0.7489(3) 0.6048(3) 0.6467(2)
H12B H 0.6784 0.5683 0.6337
C19C C 0.7520(4) 0.3661(3) 0.1118(2)
C6A C 0.7492(3) 0.6072(3) 0.1477(2)
H5A H 0.6872 0.5640 0.1307
H6A H 0.8126 0.6399 0.1778
H11A H 0.6804 0.6310 0.3284
C18A C 0.7511(3) 0.6048(3) 0.3533(2)
H12A H 0.8216 0.5683 0.3663
C5B C 0.7492(4) 0.6380(3) 0.8863(2)
C19B C 0.7480(4) 0.6339(3) 0.6118(2)
C20C C 0.7013(4) 0.3523(3) 0.0939(3)
C21C C 0.8012(4) 0.3477(3) 0.0967(3)
C5A C 0.7508(4) 0.6380(3) 0.1137(2)
C19A C 0.7520(4) 0.6339(3) 0.3882(2)
C3B C 0.7944(4) 0.6398(3) 0.9120(2)
C4B C 0.7047(4) 0.6661(3) 0.8948(3)
C20B C 0.7987(4) 0.6477(3) 0.5939(3)
C21B C 0.6988(4) 0.6523(3) 0.5967(3)
H13C H 0.6661 0.3632 0.1031
C22C C 0.7031(4) 0.3228(3) 0.0629(3)
C23C C 0.7989(4) 0.3192(3) 0.0651(3)
H14C H 0.8366 0.3548 0.1082
C3A C 0.7056(4) 0.6398(3) 0.0880(2)
C4A C 0.7953(4) 0.6661(3) 0.1052(3)
C20A C 0.7013(4) 0.6477(3) 0.4061(3)
C21A C 0.8012(4) 0.6523(3) 0.4033(3)
C1B C 0.7931(3) 0.6694(3) 0.9433(2)
H3B H 0.8264 0.6208 0.9080
H4B H 0.6727 0.6664 0.8782
C2B C 0.7055(4) 0.6941(3) 0.9269(2)
H13B H 0.8339 0.6368 0.6031
C22B C 0.7969(4) 0.6772(3) 0.5629(3)
C23B C 0.7011(4) 0.6808(3) 0.5651(3)
H14B H 0.6634 0.6452 0.6082
H15C H 0.6684 0.3144 0.0509
N2C N 0.7509(3) 0.3053(2) 0.04867(19)
H16C H 0.8335 0.3088 0.0544
C1A C 0.7069(3) 0.6694(3) 0.0567(2)
H3A H 0.6736 0.6208 0.0920
H4A H 0.8273 0.6664 0.1218
C2A C 0.7945(4) 0.6941(3) 0.0731(2)
H13A H 0.6661 0.6368 0.3969
C22A C 0.7031(4) 0.6772(3) 0.4371(3)
C23A C 0.7989(4) 0.6808(3) 0.4349(3)
H14A H 0.8366 0.6452 0.3918
H1B H 0.8249 0.6706 0.9601
N1B N 0.7496(3) 0.6958(2) 0.95069(19)
H2B H 0.6735 0.7127 0.9322
H15B H 0.8316 0.6856 0.5509
N2B N 0.7491(3) 0.6947(2) 0.54867(19)
H16B H 0.6665 0.6912 0.5544
Cu2_2 Cu 0.7500 0.2500 0.0000
H1A H 0.6751 0.6706 0.0399
N1A N 0.7504(3) 0.6958(2) 0.04931(19)
H2A H 0.8265 0.7127 0.0678
H15A H 0.6684 0.6856 0.4491
N2A N 0.7509(3) 0.6947(2) 0.45133(19)
H16A H 0.8335 0.6912 0.4456
Cl2C Cl 0.85453(11) 0.2500 1.0000
N2C_2 N 0.7509(3) 0.3053(2) 1.04867(19)
N2E N 0.7509(3) 0.1947(2) 0.95133(19)
N2F N 0.7491(3) 0.1947(2) 1.04867(19)
Cu1A Cu 0.7500 0.7500 1.0000
Cu2A Cu 0.7500 0.7500 0.5000
Cu1A_2 Cu 0.7500 0.7500 0.0000
C24 C 0.4617(4) 0.4489(4) 0.3278(3)
H17 H 0.4284 0.4656 0.3219
C25 C 0.4616(4) 0.4224(4) 0.3606(3)
H18 H 0.4296 0.4227 0.3771
C26 C 0.5067(3) 0.3957(3) 0.3697(2)
C27 C 0.5516(4) 0.4003(4) 0.3456(3)
H19 H 0.5854 0.3840 0.3511
C28 C 0.5492(5) 0.4279(4) 0.3136(3)
H20 H 0.5815 0.4294 0.2973
C29 C 0.5068(3) 0.3645(3) 0.4037(2)
C30 C 0.4662(4) 0.3673(3) 0.4330(2)
H21 H 0.4383 0.3906 0.4317
C31 C 0.4656(3) 0.3379(3) 0.4633(2)
H22 H 0.4374 0.3410 0.4828
C32 C 0.5054(3) 0.3032(3) 0.4664(2)
C33 C 0.5453(3) 0.3000(3) 0.4377(2)
H23 H 0.5729 0.2766 0.4391
C34 C 0.5465(3) 0.3295(3) 0.4071(2)
H24 H 0.5748 0.3261 0.3878
C35 C 0.5030(3) 0.2723(3) 0.5015(2)
C36 C 0.5021(3) 0.2969(3) 0.5395(2)
C37 C 0.5443(3) 0.3290(3) 0.5466(2)
H25 H 0.5724 0.3343 0.5275
C38 C 0.5460(3) 0.3532(3) 0.5807(2)
H26 H 0.5763 0.3737 0.5855
C39 C 0.5033(4) 0.3475(3) 0.6083(2)
C40 C 0.4623(3) 0.3158(3) 0.6009(2)
H27 H 0.4333 0.3113 0.6195
C41 C 0.4616(3) 0.2903(3) 0.5677(2)
H28 H 0.4330 0.2680 0.5640
C42 C 0.5021(3) 0.3769(3) 0.6437(2)
C43 C 0.5513(4) 0.3926(4) 0.6611(3)
H29 H 0.5871 0.3828 0.6519
C44 C 0.5479(4) 0.4224(3) 0.6921(3)
H30 H 0.5822 0.4325 0.7036
C45 C 0.4534(4) 0.4226(4) 0.6904(3)
H31 H 0.4182 0.4332 0.7001
C46 C 0.4524(4) 0.3920(3) 0.6596(3)
H32 H 0.4173 0.3815 0.6496
N3 N 0.5043(3) 0.4527(2) 0.30414(19)
N4 N 0.4996(3) 0.4379(2) 0.70693(19)
Cl3 Cl 0.39418(11) 0.5000 0.7500
Cl4 Cl 0.60139(11) 0.5000 0.7500
Cu3 Cu 0.49774(6) 0.5000 0.7500
C24F C 0.4617(4) 0.0511(4) 0.6722(3)
H17F H 0.4284 0.0344 0.6781
C25F C 0.4616(4) 0.0776(4) 0.6394(3)
H18F H 0.4296 0.0773 0.6229
C26F C 0.5067(3) 0.1043(3) 0.6303(2)
C27F C 0.5516(4) 0.0997(4) 0.6544(3)
H19F H 0.5854 0.1160 0.6489
C28F C 0.5492(5) 0.0721(4) 0.6864(3)
H20F H 0.5815 0.0706 0.7027
C29F C 0.5068(3) 0.1355(3) 0.5963(2)
C30F C 0.4662(4) 0.1327(3) 0.5670(2)
H21F H 0.4383 0.1094 0.5683
C31F C 0.4656(3) 0.1621(3) 0.5367(2)
H22F H 0.4374 0.1590 0.5172
C32F C 0.5054(3) 0.1968(3) 0.5336(2)
C33F C 0.5453(3) 0.2000(3) 0.5623(2)
H23F H 0.5729 0.2234 0.5609
C34F C 0.5465(3) 0.1705(3) 0.5929(2)
H24F H 0.5748 0.1739 0.6122
C35F C 0.5030(3) 0.2277(3) 0.4985(2)
C36F C 0.5021(3) 0.2031(3) 0.4605(2)
C37F C 0.5443(3) 0.1710(3) 0.4534(2)
H25F H 0.5724 0.1657 0.4725
C38F C 0.5460(3) 0.1468(3) 0.4193(2)
H26F H 0.5763 0.1263 0.4145
C39F C 0.5033(4) 0.1525(3) 0.3917(2)
C40F C 0.4623(3) 0.1842(3) 0.3991(2)
H27F H 0.4333 0.1887 0.3805
C41F C 0.4616(3) 0.2097(3) 0.4323(2)
H28F H 0.4330 0.2320 0.4360
C42F C 0.5021(3) 0.1231(3) 0.3563(2)
C43F C 0.5513(4) 0.1074(4) 0.3389(3)
H29F H 0.5871 0.1172 0.3481
C44F C 0.5479(4) 0.0776(3) 0.3079(3)
H30F H 0.5822 0.0675 0.2964
C45F C 0.4534(4) 0.0774(4) 0.3096(3)
H31F H 0.4182 0.0668 0.2999
C46F C 0.4524(4) 0.1080(3) 0.3404(3)
H32F H 0.4173 0.1185 0.3504
N3F N 0.5043(3) 0.0473(2) 0.69586(19)
N4F N 0.4996(3) 0.0621(2) 0.29307(19)
N3H N 0.4957(3) 0.5473(2) 0.69586(19)
N3J N 0.4957(3) 0.4527(2) 0.80414(19)
N4B N 0.4996(3) 0.5621(2) 0.79307(19)
Cu3D Cu 0.49774(6) 0.0000 0.2500
Cu3H Cu 0.50226(6) 0.5000 0.2500
Cu3L Cu 0.50226(6) 0.0000 0.7500
C35J C 0.4970(3) 0.2723(3) 1.0015(2)
C35L C 0.4970(3) 0.2277(3) 0.9985(2)
C39J C 0.4967(4) 0.3475(3) 1.1083(2)
C40J C 0.5377(3) 0.3158(3) 1.1009(2)
C36J C 0.4979(3) 0.2969(3) 1.0395(2)
Cu3H_2 Cu 0.50226(6) 0.5000 1.2500
N4H N 0.5004(3) 0.5621(2) 1.29307(19)
Cl4H Cl 0.39861(11) 0.5000 1.2500
C42J C 0.4979(3) 0.3769(3) 1.1437(2)
C46J C 0.5476(4) 0.3920(3) 1.1596(3)
C34L C 0.4535(3) 0.1705(3) 1.0929(2)
H24L H 0.4252 0.1739 1.1122
C33J C 0.4547(3) 0.3000(3) 0.9377(2)
H23J H 0.4271 0.2766 0.9391
C27L C 0.4484(4) 0.0997(4) 1.1544(3)
C28L C 0.4508(5) 0.0721(4) 1.1864(3)
C30L C 0.5338(4) 0.1327(3) 1.0670(2)
H21L H 0.5617 0.1094 1.0683
C36L C 0.4979(3) 0.2031(3) 0.9605(2)
C37L C 0.4557(3) 0.1710(3) 0.9534(2)
C24L C 0.5383(4) 0.0511(4) 1.1722(3)
C25L C 0.5384(4) 0.0776(4) 1.1394(3)
C27J C 0.4484(4) 0.4003(4) 0.8456(3)
C28J C 0.4508(5) 0.4279(4) 0.8136(3)
C26L C 0.4933(3) 0.1043(3) 1.1303(2)
C32L C 0.4946(3) 0.1968(3) 1.0336(2)
C33L C 0.4547(3) 0.2000(3) 1.0623(2)
C34J C 0.4535(3) 0.3295(3) 0.9071(2)
C37J C 0.4557(3) 0.3290(3) 1.0466(2)
H25J H 0.4276 0.3343 1.0275
C31L C 0.5344(3) 0.1621(3) 1.0367(2)
H22L H 0.5626 0.1590 1.0172
C38L C 0.4540(3) 0.1468(3) 0.9193(2)
C39L C 0.4967(4) 0.1525(3) 0.8917(2)
N4J N 0.5004(3) 0.4379(2) 1.20693(19)
C44J C 0.4521(4) 0.4224(3) 1.1921(3)
H24J H 0.4252 0.3261 0.8878
H17L H 0.5716 0.0344 1.1781
C43J C 0.4487(4) 0.3926(4) 1.1611(3)
H19J H 0.4146 0.3840 0.8511
C31J C 0.5344(3) 0.3379(3) 0.9633(2)
H22J H 0.5626 0.3410 0.9828
C38J C 0.4540(3) 0.3532(3) 1.0807(2)
H19L H 0.4146 0.1160 1.1489
C26J C 0.4933(3) 0.3957(3) 0.8697(2)
C29J C 0.4932(3) 0.3645(3) 0.9037(2)
C30J C 0.5338(4) 0.3673(3) 0.9330(2)
C44L C 0.4521(4) 0.0776(3) 0.8079(3)
N4L N 0.5004(3) 0.0621(2) 0.79307(19)
C45L C 0.5466(4) 0.0774(4) 0.8096(3)
H31L H 0.5818 0.0668 0.7999
H21J H 0.5617 0.3906 0.9317
C40L C 0.5377(3) 0.1842(3) 0.8991(2)
H27L H 0.5667 0.1887 0.8805
C29L C 0.4932(3) 0.1355(3) 1.0963(2)
C45J C 0.5466(4) 0.4226(4) 1.1904(3)
C32J C 0.4946(3) 0.3032(3) 0.9664(2)
C41J C 0.5384(3) 0.2903(3) 1.0677(2)
H28J H 0.5670 0.2680 1.0640
C24J C 0.5383(4) 0.4489(4) 0.8278(3)
C25J C 0.5384(4) 0.4224(4) 0.8606(3)
C42L C 0.4979(3) 0.1231(3) 0.8563(2)
C43L C 0.4487(4) 0.1074(4) 0.8389(3)
C41L C 0.5384(3) 0.2097(3) 0.9323(2)
H18L H 0.5704 0.0773 1.1229
H29L H 0.4129 0.1172 0.8481
H30L H 0.4178 0.0675 0.7964
H29J H 0.4129 0.3828 1.1519
N3L N 0.4957(3) 0.0473(2) 1.19586(19)
N3_2 N 0.5043(3) 0.4527(2) 1.30414(19)
Cl3H Cl 0.60582(11) 0.5000 1.2500
H31J H 0.5818 0.4332 1.2001
N3B N 0.5043(3) 0.5473(2) 1.19586(19)
H28L H 0.5670 0.2320 0.9360
Cu3D_2 Cu 0.49774(6) 0.0000 1.2500
H32J H 0.5827 0.3815 1.1496
H26J H 0.4237 0.3737 1.0855
H20J H 0.4185 0.4294 0.7973
H20L H 0.4185 0.0706 1.2027
H17J H 0.5716 0.4656 0.8219
H18J H 0.5704 0.4227 0.8771
H27J H 0.5667 0.3113 1.1195
H26L H 0.4237 0.1263 0.9145
C46L C 0.5476(4) 0.1080(3) 0.8404(3)
H30J H 0.4178 0.4325 1.2036
H25L H 0.4276 0.1657 0.9725
H32L H 0.5827 0.1185 0.8504
H23L H 0.4271 0.2234 1.0609
C47 C 0.3791(6) 0.5578(4) 0.4758(4)
C48 C 0.3948(6) 0.5311(5) 0.4508(5)
Cl5 Cl 0.45433(19) 0.50083(17) 0.45194(19)
Cl6 Cl 0.35305(18) 0.52513(16) 0.40935(12)
Cl7 Cl 0.31886(15) 0.58943(14) 0.47605(12)
Cl8 Cl 0.42059(17) 0.56816(14) 0.51748(12)
C49 C 0.3475(6) 0.4702(5) 0.5618(4)
C50 C 0.3676(6) 0.4421(5) 0.5401(4)
Cl9 Cl 0.42987(16) 0.41355(14) 0.54479(12)
Cl10 Cl 0.33002(17) 0.42619(14) 0.49718(12)
Cl11 Cl 0.28519(17) 0.49714(15) 0.55664(14)
Cl12 Cl 0.38697(19) 0.48537(15) 0.60275(12)
C51 C 0.6263(8) 0.2860(6) 0.8189(5)
C52 C 0.6430(7) 0.3063(6) 0.7928(5)
Cl13 Cl 0.6719(2) 0.24068(15) 0.83465(16)
Cl14 Cl 0.70078(18) 0.30062(15) 0.76430(14)
Cl15 Cl 0.5975(2) 0.35386(16) 0.77784(15)
Cl16 Cl 0.56945(19) 0.29302(15) 0.84773(15)
C53 C 0.6116(7) 0.2042(6) 0.7152(5)
C54 C 0.6132(8) 0.2321(6) 0.6903(5)
Cl17 Cl 0.65890(19) 0.16255(16) 0.72578(16)
Cl18 Cl 0.6754(2) 0.23171(17) 0.66137(15)
Cl19 Cl 0.5690(2) 0.27267(19) 0.6778(2)
Cl20 Cl 0.5524(2) 0.2036(2) 0.7451(2)
loop_
_geom_bond_atom_site_label_1
_geom_bond_atom_site_label_2
_geom_bond_site_symmetry_1
_geom_bond_site_symmetry_2
Cu1 N1 1_555 1_555
N1 C1 1_555 1_555
Cl1 Cu1 1_555 1_555
C1 H1 1_555 1_555
C2 N1 1_555 1_555
C3 C1 1_555 1_555
C4 C2 1_555 1_555
H2 C2 1_555 1_555
H3 C3 1_555 1_555
C5 C3 1_555 1_555
H4 C4 1_555 1_555
C6 C5 1_555 1_555
C7 C6 1_555 1_555
C8 C6 1_555 1_555
H5 C7 1_555 1_555
C9 C7 1_555 1_555
C10 C8 1_555 1_555
H6 C8 1_555 1_555
H7 C9 1_555 1_555
C11 C9 1_555 1_555
H8 C10 1_555 1_555
C12 C11 1_555 1_555
C13 C12 1_555 1_555
C14 C13 1_555 1_555
C15 C13 1_555 1_555
H9 C14 1_555 1_555
C16 C14 1_555 1_555
C17 C15 1_555 1_555
H10 C15 1_555 1_555
H11 C16 1_555 1_555
C18 C16 1_555 1_555
H12 C17 1_555 1_555
C19 C18 1_555 1_555
C20 C19 1_555 1_555
C21 C19 1_555 1_555
H13 C20 1_555 1_555
C22 C20 1_555 1_555
C23 C21 1_555 1_555
H14 C21 1_555 1_555
H15 C22 1_555 1_555
N2 C22 1_555 1_555
H16 C23 1_555 1_555
Cu2 N2 1_555 1_555
Cl2 Cu2 1_555 1_555
C24 H17 1_555 1_555
C25 C24 1_555 1_555
H18 C25 1_555 1_555
C26 C25 1_555 1_555
C27 C26 1_555 1_555
H19 C27 1_555 1_555
C28 C27 1_555 1_555
H20 C28 1_555 1_555
C29 C26 1_555 1_555
C30 C29 1_555 1_555
H21 C30 1_555 1_555
C31 C30 1_555 1_555
H22 C31 1_555 1_555
C32 C31 1_555 1_555
C33 C32 1_555 1_555
H23 C33 1_555 1_555
C34 C29 1_555 1_555
H24 C34 1_555 1_555
C35 C32 1_555 1_555
C36 C35 1_555 1_555
C37 C36 1_555 1_555
H25 C37 1_555 1_555
C38 C37 1_555 1_555
H26 C38 1_555 1_555
C39 C38 1_555 1_555
C40 C39 1_555 1_555
H27 C40 1_555 1_555
C41 C36 1_555 1_555
H28 C41 1_555 1_555
C42 C39 1_555 1_555
C43 C42 1_555 1_555
H29 C43 1_555 1_555
C44 C43 1_555 1_555
H30 C44 1_555 1_555
C45 H31 1_555 1_555
C46 C42 1_555 1_555
H32 C46 1_555 1_555
N3 C24 1_555 1_555
N4 C44 1_555 1_555
Cl3 Cu3 1_555 1_555
Cl4 Cu3 1_555 1_555
Cu3 N4 1_555 1_555
C47 C48 1_555 1_555
C48 Cl5 1_555 1_555
Cl6 C48 1_555 1_555
Cl7 C47 1_555 1_555
Cl8 C47 1_555 1_555
C49 C50 1_555 1_555
C50 Cl9 1_555 1_555
Cl10 C50 1_555 1_555
Cl11 C49 1_555 1_555
Cl12 C49 1_555 1_555
C51 C52 1_555 1_555
C52 Cl14 1_555 1_555
Cl13 C51 1_555 1_555
Cl15 C52 1_555 1_555
Cl16 C51 1_555 1_555
C53 C54 1_555 1_555
C54 Cl18 1_555 1_555
Cl17 C53 1_555 1_555
Cl19 C54 1_555 1_555
Cl20 C53 1_555 1_555
N1C Cu1 1_555 1_555
Cl1C Cu1 1_555 1_555
N1E Cu1 1_555 1_555
N1F Cu1 1_555 1_555
C1C N1C 1_555 1_555
C2C N1C 1_555 1_555
H1C C1C 1_555 1_555
C3C C1C 1_555 1_555
C4C C2C 1_555 1_555
H2C C2C 1_555 1_555
H3C C3C 1_555 1_555
C5C C3C 1_555 1_555
H4C C4C 1_555 1_555
C6C C5C 1_555 1_555
C7C C6C 1_555 1_555
C8C C6C 1_555 1_555
H5C C7C 1_555 1_555
C9C C7C 1_555 1_555
C10C C8C 1_555 1_555
H6C C8C 1_555 1_555
H7C C9C 1_555 1_555
C11C C9C 1_555 1_555
H8C C10C 1_555 1_555
C12C C11C 1_555 1_555
C12B C12 1_555 1_555
C13C C12C 1_555 1_555
C12A C12C 1_555 1_555
C11B C12B 1_555 1_555
C13B C12B 1_555 1_555
C14C C13C 1_555 1_555
C15C C13C 1_555 1_555
C11A C12A 1_555 1_555
C13A C12A 1_555 1_555
C9B C11B 1_555 1_555
C10B C11B 1_555 1_555
C14B C13B 1_555 1_555
C15B C13B 1_555 1_555
H9C C14C 1_555 1_555
C16C C14C 1_555 1_555
C17C C15C 1_555 1_555
H10C C15C 1_555 1_555
C9A C11A 1_555 1_555
C10A C11A 1_555 1_555
C14A C13A 1_555 1_555
C15A C13A 1_555 1_555
C7B C9B 1_555 1_555
H7B C9B 1_555 1_555
H8B C10B 1_555 1_555
C8B C10B 1_555 1_555
H9B C14B 1_555 1_555
C16B C14B 1_555 1_555
C17B C15B 1_555 1_555
H10B C15B 1_555 1_555
H11C C16C 1_555 1_555
C18C C16C 1_555 1_555
H12C C17C 1_555 1_555
C7A C9A 1_555 1_555
H7A C9A 1_555 1_555
H8A C10A 1_555 1_555
C8A C10A 1_555 1_555
H9A C14A 1_555 1_555
C16A C14A 1_555 1_555
C17A C15A 1_555 1_555
H10A C15A 1_555 1_555
C6B C7B 1_555 1_555
H5B C7B 1_555 1_555
H6B C8B 1_555 1_555
H11B C16B 1_555 1_555
C18B C16B 1_555 1_555
H12B C17B 1_555 1_555
C19C C18C 1_555 1_555
C6A C7A 1_555 1_555
H5A C7A 1_555 1_555
H6A C8A 1_555 1_555
H11A C16A 1_555 1_555
C18A C16A 1_555 1_555
H12A C17A 1_555 1_555
C5B C6B 1_555 1_555
C19B C18B 1_555 1_555
C20C C19C 1_555 1_555
C21C C19C 1_555 1_555
C5A C6A 1_555 1_555
C19A C18A 1_555 1_555
C3B C5B 1_555 1_555
C4B C5B 1_555 1_555
C20B C19B 1_555 1_555
C21B C19B 1_555 1_555
H13C C20C 1_555 1_555
C22C C20C 1_555 1_555
C23C C21C 1_555 1_555
H14C C21C 1_555 1_555
C3A C5A 1_555 1_555
C4A C5A 1_555 1_555
C20A C19A 1_555 1_555
C21A C19A 1_555 1_555
C1B C3B 1_555 1_555
H3B C3B 1_555 1_555
H4B C4B 1_555 1_555
C2B C4B 1_555 1_555
H13B C20B 1_555 1_555
C22B C20B 1_555 1_555
C23B C21B 1_555 1_555
H14B C21B 1_555 1_555
H15C C22C 1_555 1_555
N2C C22C 1_555 1_555
H16C C23C 1_555 1_555
C1A C3A 1_555 1_555
H3A C3A 1_555 1_555
H4A C4A 1_555 1_555
C2A C4A 1_555 1_555
H13A C20A 1_555 1_555
C22A C20A 1_555 1_555
C23A C21A 1_555 1_555
H14A C21A 1_555 1_555
H1B C1B 1_555 1_555
N1B C1B 1_555 1_555
H2B C2B 1_555 1_555
H15B C22B 1_555 1_555
N2B C22B 1_555 1_555
H16B C23B 1_555 1_555
Cu2_2 N2C 1_555 1_555
H1A C1A 1_555 1_555
N1A C1A 1_555 1_555
H2A C2A 1_555 1_555
H15A C22A 1_555 1_555
N2A C22A 1_555 1_555
H16A C23A 1_555 1_555
Cl2C Cu2 1_555 1_555
N2C_2 Cu2 1_555 1_555
N2E Cu2 1_555 1_555
N2F Cu2 1_555 1_555
Cu1A N1B 1_555 1_555
Cu2A N2B 1_555 1_555
Cu1A_2 N1A 1_555 1_555
C24F H17F 1_555 1_555
C25F C24F 1_555 1_555
H18F C25F 1_555 1_555
C26F C25F 1_555 1_555
C27F C26F 1_555 1_555
H19F C27F 1_555 1_555
C28F C27F 1_555 1_555
H20F C28F 1_555 1_555
C29F C26F 1_555 1_555
C30F C29F 1_555 1_555
H21F C30F 1_555 1_555
C31F C30F 1_555 1_555
H22F C31F 1_555 1_555
C32F C31F 1_555 1_555
C33F C32F 1_555 1_555
H23F C33F 1_555 1_555
C34F C29F 1_555 1_555
H24F C34F 1_555 1_555
C35F C35 1_555 1_555
C36F C35F 1_555 1_555
C37F C36F 1_555 1_555
H25F C37F 1_555 1_555
C38F C37F 1_555 1_555
H26F C38F 1_555 1_555
C39F C38F 1_555 1_555
C40F C39F 1_555 1_555
H27F C40F 1_555 1_555
C41F C36F 1_555 1_555
H28F C41F 1_555 1_555
C42F C39F 1_555 1_555
C43F C42F 1_555 1_555
H29F C43F 1_555 1_555
C44F C43F 1_555 1_555
H30F C44F 1_555 1_555
C45F H31F 1_555 1_555
C46F C42F 1_555 1_555
H32F C46F 1_555 1_555
N3F C24F 1_555 1_555
N4F C44F 1_555 1_555
N3H Cu3 1_555 1_555
N3J Cu3 1_555 1_555
N4B Cu3 1_555 1_555
Cu3D N4F 1_555 1_555
Cu3H N3 1_555 1_555
Cu3L N3F 1_555 1_555
C35J C35L 1_555 1_555
C35L C36L 1_555 1_555
C39J C40J 1_555 1_555
C40J C41J 1_555 1_555
C36J C35J 1_555 1_555
Cu3H_2 N4H 1_555 1_555
Cl4H Cu3H_2 1_555 1_555
C42J C39J 1_555 1_555
C46J C42J 1_555 1_555
C34L H24L 1_555 1_555
C33J H23J 1_555 1_555
C27L C28L 1_555 1_555
C28L N3L 1_555 1_555
C30L H21L 1_555 1_555
C36L C37L 1_555 1_555
C37L C38L 1_555 1_555
C24L C25L 1_555 1_555
C25L C26L 1_555 1_555
C27J C28J 1_555 1_555
C28J N3J 1_555 1_555
C26L C27L 1_555 1_555
C32L C35L 1_555 1_555
C33L C34L 1_555 1_555
C34J C33J 1_555 1_555
C37J C36J 1_555 1_555
H25J C37J 1_555 1_555
C31L C30L 1_555 1_555
H22L C31L 1_555 1_555
C38L C39L 1_555 1_555
C39L C40L 1_555 1_555
N4J Cu3H_2 1_555 1_555
C44J N4J 1_555 1_555
H24J C34J 1_555 1_555
H17L C24L 1_555 1_555
C43J C42J 1_555 1_555
H19J C27J 1_555 1_555
C31J H22J 1_555 1_555
C38J C39J 1_555 1_555
H19L C27L 1_555 1_555
C26J C27J 1_555 1_555
C29J C34J 1_555 1_555
C30J C31J 1_555 1_555
C44L N4L 1_555 1_555
N4L Cu3L 1_555 1_555
C45L N4L 1_555 1_555
H31L C45L 1_555 1_555
H21J C30J 1_555 1_555
C40L H27L 1_555 1_555
C29L C34L 1_555 1_555
C45J C46J 1_555 1_555
C32J C35J 1_555 1_555
C41J C36J 1_555 1_555
H28J C41J 1_555 1_555
C24J N3J 1_555 1_555
C25J C26J 1_555 1_555
C42L C39L 1_555 1_555
C43L C44L 1_555 1_555
C41L C36L 1_555 1_555
H18L C25L 1_555 1_555
H29L C43L 1_555 1_555
H30L C44L 1_555 1_555
H29J C43J 1_555 1_555
N3L C24L 1_555 1_555
N3_2 Cu3H_2 1_555 1_555
Cl3H Cu3H_2 1_555 1_555
H31J C45J 1_555 1_555
N3B Cu3H_2 1_555 1_555
H28L C41L 1_555 1_555
Cu3D_2 N3L 1_555 1_555
H32J C46J 1_555 1_555
H26J C38J 1_555 1_555
H20J C28J 1_555 1_555
H20L C28L 1_555 1_555
H17J C24J 1_555 1_555
H18J C25J 1_555 1_555
H27J C40J 1_555 1_555
H26L C38L 1_555 1_555
C46L C45L 1_555 1_555
H30J C44J 1_555 1_555
H25L C37L 1_555 1_555
H32L C46L 1_555 1_555
H23L C33L 1_555 1_555
C4 C5 1_555 1_555
C10 C11 1_555 1_555
C17 C18 1_555 1_555
C23 N2 1_555 1_555
C28 N3 1_555 1_555
C33 C34 1_555 1_555
C40 C41 1_555 1_555
C45 C46 1_555 1_555
C45 N4 1_555 1_555
C4C C5C 1_555 1_555
C10C C11C 1_555 1_555
C17C C18C 1_555 1_555
C8B C6B 1_555 1_555
C17B C18B 1_555 1_555
C8A C6A 1_555 1_555
C17A C18A 1_555 1_555
C23C N2C 1_555 1_555
C2B N1B 1_555 1_555
C23B N2B 1_555 1_555
C2A N1A 1_555 1_555
C23A N2A 1_555 1_555
N2A Cu2A 1_555 1_555
C28F N3F 1_555 1_555
C32F C35F 1_555 1_555
C33F C34F 1_555 1_555
C40F C41F 1_555 1_555
C45F C46F 1_555 1_555
C45F N4F 1_555 1_555
C33J C32J 1_555 1_555
C30L C29L 1_555 1_555
C26L C29L 1_555 1_555
C32L C33L 1_555 1_555
C32L C31L 1_555 1_555
C37J C38J 1_555 1_555
N4J C45J 1_555 1_555
C44J C43J 1_555 1_555
C31J C32J 1_555 1_555
C26J C29J 1_555 1_555
C29J C30J 1_555 1_555
C40L C41L 1_555 1_555
C24J C25J 1_555 1_555
C42L C43L 1_555 1_555
C42L C46L 1_555 1_555

#END
