
#######################################################################
#
#                 Cambridge Crystallographic Data Centre
#                                CCDC 
#
#######################################################################
#
# If this CIF has been generated from an entry in the Cambridge 
# Structural Database, then it will include bibliographic, chemical, 
# crystal, experimental, refinement or atomic coordinate data resulting 
# from the CCDC's data processing and validation procedures.
#
#######################################################################

data_LURGEL
_symmetry_cell_setting           triclinic
_symmetry_space_group_name_H-M   'P 1'
_symmetry_Int_Tables_number      1
_space_group_name_Hall           'P 1'
loop_
_symmetry_equiv_pos_site_id
_symmetry_equiv_pos_as_xyz
1 x,y,z
_cell_length_a                   11.8137(8)
_cell_length_b                   15.5303(11)
_cell_length_c                   16.3912(15)
_cell_angle_alpha                90.00
_cell_angle_beta                 90.00
_cell_angle_gamma                90.00
_cell_volume                     3007.3
loop_
_atom_site_label
_atom_site_type_symbol
_atom_site_fract_x
_atom_site_fract_y
_atom_site_fract_z
Zn1 Zn 0.3062(5) 0.3220(3) 0.1763(3)
Zn2 Zn 0.3079(5) 0.3224(3) 0.9982(3)
N1 N 0.3161(8) 0.3179(5) 0.8725(5)
N2 N 0.3115(8) 0.3177(5) 0.2981(5)
O1 O 0.1962(9) -0.5806(6) 0.0191(5)
O2 O 0.2012(8) 0.2237(6) 0.0201(5)
O3 O 0.2002(8) 0.2189(5) 0.1564(5)
O4 O 0.2060(7) -0.5767(5) 0.1544(5)
O5 O -0.5674(11) 0.2356(8) 0.1536(7)
O6 O -0.5615(8) -0.5966(6) 0.1488(5)
O7 O -0.5581(8) -0.5997(5) 0.0152(5)
O8 O -0.5568(7) 0.2437(5) 0.0213(4)
C1 C -0.0076(10) 0.0062(8) 0.0179(8)
H1 H -0.0162 -0.0237 -0.0309
C2 C -0.0081(11) -0.3682(8) 0.1579(9)
H2 H -0.0206 -0.3400 0.2071
C3 C 0.0244(11) 0.1006(8) 0.1589(8)
H3 H 0.0330 0.1306 0.2076
C4 C 0.0644(12) -0.4383(8) 0.1614(9)
H4 H 0.0986 -0.4556 0.2097
C5 C 0.0304(12) -0.4519(8) 0.0187(9)
H5 H 0.0429 -0.4804 -0.0303
C6 C 0.0783(9) 0.1263(6) 0.0883(6)
C7 C 0.0828(9) -0.4809(7) 0.0882(7)
C8 C 0.0617(11) 0.0783(8) 0.0190(8)
H6 H 0.0982 0.0947 -0.0288
C9 C 0.1585(10) -0.5579(7) 0.0868(5)
C10 C 0.1578(9) 0.2015(7) 0.0874(5)
C11 C -0.5388(11) 0.2031(7) 0.0864(5)
C12 C -0.5408(11) -0.5599(7) 0.0810(6)
C13 C -0.4695(9) 0.0685(6) 0.0185(6)
H7 H -0.5220 0.0778 -0.0228
C14 C -0.4711(8) -0.4263(6) 0.1553(6)
H8 H -0.5238 -0.4362 0.1963
C15 C -0.4620(8) -0.4849(6) 0.0899(6)
C16 C -0.4599(8) 0.1275(6) 0.0830(5)
C17 C -0.3999(8) -0.0046(6) 0.0166(6)
H9 H -0.4054 -0.0437 -0.0262
C18 C -0.4015(8) -0.3532(6) 0.1591(6)
H10 H -0.4072 -0.3147 0.2023
C19 C -0.3846(7) 0.1150(5) 0.1456(5)
H11 H -0.3792 0.1539 0.1885
C20 C -0.3827(8) -0.4689(6) 0.0287(6)
H12 H -0.3763 -0.5074 -0.0145
C21 C -0.3226(8) -0.3393(6) 0.0956(6)
C22 C -0.3223(8) -0.0182(6) 0.0794(6)
C23 C -0.3071(11) -0.1783(6) 0.0899(6)
H13 H -0.3857 -0.1784 0.0867
C24 C -0.3128(8) -0.3965(6) 0.0307(6)
H14 H -0.2604 -0.3867 -0.0106
C25 C -0.3155(8) 0.0412(5) 0.1425(5)
H15 H -0.2635 0.0319 0.1841
C26 C -0.2562(8) -0.2577(6) 0.0873(6)
C27 C -0.2577(8) -0.0994(6) 0.0965(6)
C28 C -0.1397(9) -0.1003(6) 0.1013(6)
C29 C -0.1386(9) -0.2550(7) 0.0922(6)
C30 C -0.0801(9) -0.1776(6) 0.0991(6)
H16 H -0.0015 -0.1774 0.1023
C31 C -0.0647(9) -0.0235(7) 0.0867(7)
C32 C -0.0647(9) -0.3343(7) 0.0908(7)
C33 C -0.0432(11) 0.0278(8) 0.1534(9)
H17 H -0.0789 0.0114 0.2015
C34 C -0.0413(12) -0.3806(8) 0.0202(10)
H18 H -0.0750 -0.3632 -0.0283
C35 C 0.2574(2) 0.37606(12) 0.42501(11)
C36 C 0.2562(7) 0.3753(5) 0.3408(5)
H19 H 0.2148 0.4173 0.3135
C37 C 0.2425(11) 0.2498(8) 0.7513(7)
H20 H 0.1939 0.2088 0.7292
C38 C 0.2486(9) 0.2607(7) 0.8351(6)
H21 H 0.2030 0.2260 0.8676
C39 C 0.3171(8) 0.3169(6) 0.4691(6)
C40 C 0.3069(10) 0.2987(8) 0.7018(6)
C41 C 0.3495(14) 0.3324(10) 0.5559(5)
H22 H 0.4032 0.3740 0.5689
C42 C 0.303(2) 0.2884(14) 0.6115(6)
H23 H 0.2598 0.2424 0.5932
C43 C 0.3791(10) 0.3655(7) 0.8216(7)
H24 H 0.4275 0.4063 0.8440
C44 C 0.3734(11) 0.2570(7) 0.4245(6)
H25 H 0.4146 0.2144 0.4513
C45 C 0.3760(10) 0.3571(7) 0.7374(6)
H26 H 0.4219 0.3919 0.7051
C46 C 0.3709(10) 0.2579(5) 0.3419(4)
H27 H 0.4114 0.2160 0.3138
Si1 Si 0.0653(5) 0.5721(3) 0.5628(3)
C47 C 0.1449(4) 0.4913(2) 0.50602(18)
C48 C 0.1959(2) 0.43905(12) 0.46929(9)
C49 C 0.0815(14) 0.5615(9) 0.6743(5)
H28 H 0.0380 0.6054 0.7011
H29 H 0.1599 0.5678 0.6886
H30 H 0.0552 0.5059 0.6913
C50 C 0.1172(13) 0.6807(5) 0.5300(9)
H31 H 0.0766 0.7246 0.5591
H32 H 0.1051 0.6875 0.4725
H33 H 0.1966 0.6855 0.5417
C51 C -0.0872(7) 0.5624(11) 0.5351(11)
H34 H -0.1303 0.6045 0.5646
H35 H -0.1138 0.5058 0.5488
H36 H -0.0961 0.5718 0.4775
Zn1_2 Zn 0.3062(5) -0.6780(3) 0.1763(3)
Zn1_3 Zn -0.6938(5) 0.3220(3) 0.1763(3)
Zn1_4 Zn -0.6938(5) -0.6780(3) 0.1763(3)
Zn2_2 Zn 0.3079(5) -0.6776(3) -0.0018(3)
Zn2_3 Zn 0.3079(5) 0.3224(3) -0.0018(3)
Zn2_4 Zn -0.6921(5) -0.6776(3) -0.0018(3)
Zn2_5 Zn -0.6921(5) 0.3224(3) -0.0018(3)
O1_2 O 0.1962(9) 0.4194(6) 1.0191(5)
O2_2 O 0.2012(8) 0.2237(6) 1.0201(5)
O4_2 O 0.2060(7) 0.4233(5) 0.1544(5)
O5_2 O 0.4326(11) 0.2356(8) 0.1536(7)
O6_2 O 0.4385(8) 0.4034(6) 0.1488(5)
O7_2 O 0.4419(8) 0.4003(5) 1.0152(5)
O8_2 O 0.4432(7) 0.2437(5) 1.0213(4)
loop_
_geom_bond_atom_site_label_1
_geom_bond_atom_site_label_2
_geom_bond_site_symmetry_1
_geom_bond_site_symmetry_2
Zn1 N2 1_555 1_555
Zn2 N1 1_555 1_555
N1 C38 1_555 1_555
N2 C36 1_555 1_555
O1 C9 1_555 1_555
O2 C10 1_555 1_555
O3 Zn1 1_555 1_555
O4 C9 1_555 1_555
O5 C11 1_555 1_555
O6 C12 1_555 1_555
O7 C12 1_555 1_555
O8 C11 1_555 1_555
C1 H1 1_555 1_555
C2 H2 1_555 1_555
C3 H3 1_555 1_555
C4 C2 1_555 1_555
H4 C4 1_555 1_555
C5 H5 1_555 1_555
C6 C3 1_555 1_555
C7 C4 1_555 1_555
C8 C1 1_555 1_555
H6 C8 1_555 1_555
C9 C7 1_555 1_555
C10 O3 1_555 1_555
C11 C16 1_555 1_555
C12 C15 1_555 1_555
C13 H7 1_555 1_555
C14 H8 1_555 1_555
C15 C14 1_555 1_555
C16 C13 1_555 1_555
C17 C13 1_555 1_555
H9 C17 1_555 1_555
C18 C14 1_555 1_555
H10 C18 1_555 1_555
C19 C16 1_555 1_555
H11 C19 1_555 1_555
C20 C15 1_555 1_555
H12 C20 1_555 1_555
C21 C18 1_555 1_555
C22 C17 1_555 1_555
C23 H13 1_555 1_555
C24 C20 1_555 1_555
H14 C24 1_555 1_555
C25 C19 1_555 1_555
H15 C25 1_555 1_555
C26 C21 1_555 1_555
C27 C22 1_555 1_555
C28 C27 1_555 1_555
C29 C26 1_555 1_555
C30 C28 1_555 1_555
H16 C30 1_555 1_555
C31 C1 1_555 1_555
C32 C2 1_555 1_555
C33 C3 1_555 1_555
H17 C33 1_555 1_555
C34 C5 1_555 1_555
H18 C34 1_555 1_555
C35 C36 1_555 1_555
C36 H19 1_555 1_555
C37 H20 1_555 1_555
C38 C37 1_555 1_555
H21 C38 1_555 1_555
C39 C35 1_555 1_555
C40 C37 1_555 1_555
C41 C39 1_555 1_555
H22 C41 1_555 1_555
C42 C40 1_555 1_555
H23 C42 1_555 1_555
C43 N1 1_555 1_555
H24 C43 1_555 1_555
C44 C39 1_555 1_555
H25 C44 1_555 1_555
C45 C40 1_555 1_555
H26 C45 1_555 1_555
C46 N2 1_555 1_555
H27 C46 1_555 1_555
Si1 C47 1_555 1_555
C47 C48 1_555 1_555
C48 C35 1_555 1_555
C49 Si1 1_555 1_555
H28 C49 1_555 1_555
H29 C49 1_555 1_555
H30 C49 1_555 1_555
C50 Si1 1_555 1_555
H31 C50 1_555 1_555
H32 C50 1_555 1_555
H33 C50 1_555 1_555
C51 Si1 1_555 1_555
H34 C51 1_555 1_555
H35 C51 1_555 1_555
H36 C51 1_555 1_555
Zn1_2 O4 1_555 1_555
Zn1_3 O5 1_555 1_555
Zn1_4 O6 1_555 1_555
Zn2_2 O1 1_555 1_555
Zn2_3 O2 1_555 1_555
Zn2_4 O7 1_555 1_555
Zn2_5 O8 1_555 1_555
O1_2 Zn2 1_555 1_555
O2_2 Zn2 1_555 1_555
O4_2 Zn1 1_555 1_555
O5_2 Zn1 1_555 1_555
O6_2 Zn1 1_555 1_555
O7_2 Zn2 1_555 1_555
O8_2 Zn2 1_555 1_555
C5 C7 1_555 1_555
C6 C8 1_555 1_555
C6 C10 1_555 1_555
C21 C24 1_555 1_555
C22 C25 1_555 1_555
C23 C26 1_555 1_555
C23 C27 1_555 1_555
C28 C31 1_555 1_555
C29 C30 1_555 1_555
C29 C32 1_555 1_555
C31 C33 1_555 1_555
C32 C34 1_555 1_555
C41 C42 1_555 1_555
C43 C45 1_555 1_555
C44 C46 1_555 1_555

#END
