
#######################################################################
#
#                 Cambridge Crystallographic Data Centre
#                                CCDC 
#
#######################################################################
#
# If this CIF has been generated from an entry in the Cambridge 
# Structural Database, then it will include bibliographic, chemical, 
# crystal, experimental, refinement or atomic coordinate data resulting 
# from the CCDC's data processing and validation procedures.
#
#######################################################################

data_LUSHUD
_symmetry_cell_setting           monoclinic
_symmetry_space_group_name_H-M   'C 2/c'
_symmetry_Int_Tables_number      15
_space_group_name_Hall           '-C 2yn'
loop_
_symmetry_equiv_pos_site_id
_symmetry_equiv_pos_as_xyz
1 x,y,z
2 -x,y,1/2-z
3 1/2+x,1/2+y,z
4 1/2-x,1/2+y,1/2-z
5 -x,-y,-z
6 x,-y,1/2+z
7 1/2-x,1/2-y,-z
8 1/2+x,1/2-y,1/2+z
_cell_length_a                   17.627(3)
_cell_length_b                   18.138(3)
_cell_length_c                   12.564(2)
_cell_angle_alpha                90
_cell_angle_beta                 125.495(2)
_cell_angle_gamma                90
_cell_volume                     3270.46
loop_
_atom_site_label
_atom_site_type_symbol
_atom_site_fract_x
_atom_site_fract_y
_atom_site_fract_z
C1 C 0.6612(3) 0.1716(2) 0.7316(4)
C2 C 0.6657(2) 0.10465(19) 0.6661(4)
C3 C 0.5902(3) 0.0849(2) 0.5411(4)
H1 H 0.5387 0.1159 0.4952
C4 C 0.5909(3) 0.0196(2) 0.4842(4)
H2 H 0.5410 0.0081 0.3994
C5 C 0.6658(3) -0.02870(19) 0.5533(4)
C6 C 0.7418(3) -0.0081(2) 0.6766(4)
H3 H 0.7932 -0.0392 0.7231
C7 C 0.7420(3) 0.0579(2) 0.7307(4)
H4 H 0.7943 0.0714 0.8124
C8 C 0.6613(2) -0.1023(2) 0.4937(4)
C9 C 0.5917(3) 0.4069(2) 0.8991(4)
H5 H 0.6253 0.4104 0.8634
C10 C 0.5633(3) 0.4702(2) 0.9273(4)
H6 H 0.5768 0.5159 0.9087
C11 C 0.5146(2) 0.4665(2) 0.9834(4)
C12 C 0.4970(3) 0.3965(3) 1.0084(6)
H7 H 0.4652 0.3914 1.0466
C13 C 0.5257(3) 0.3342(2) 0.9778(5)
H8 H 0.5132 0.2878 0.9955
N1 N 0.5713(2) 0.34068(16) 0.9227(3)
O1 O 0.58338(18) 0.20340(14) 0.6770(3)
O2 O 0.73496(18) 0.19256(14) 0.8374(3)
O3 O 0.59021(19) -0.11427(14) 0.3813(3)
O4 O 0.72906(18) -0.14635(13) 0.5631(3)
O5 O 0.59801(17) 0.28010(13) 0.8930(3)
Mn1 Mn 0.5000 0.19610(4) 0.7500
Mn2 Mn 0.7500 0.2500 1.0000
C1A C 0.3388(3) 0.1716(2) 0.7684(4)
C2A C 0.3343(2) 0.10465(19) 0.8339(4)
C3A C 0.4098(3) 0.0849(2) 0.9589(4)
H1A H 0.4613 0.1159 1.0048
C4A C 0.4091(3) 0.0196(2) 1.0158(4)
H2A H 0.4590 0.0081 1.1006
C5A C 0.3342(3) -0.02870(19) 0.9467(4)
C6A C 0.2582(3) -0.0081(2) 0.8234(4)
H3A H 0.2068 -0.0392 0.7769
C7A C 0.2580(3) 0.0579(2) 0.7693(4)
H4A H 0.2057 0.0714 0.6876
C8A C 0.3387(2) -0.1023(2) 1.0063(4)
C9D C 0.4083(3) 0.5931(2) 1.1009(4)
H5D H 0.3747 0.5896 1.1366
C10D C 0.4367(3) 0.5298(2) 1.0727(4)
H6D H 0.4232 0.4841 1.0913
C11D C 0.4854(2) 0.5335(2) 1.0166(4)
C12D C 0.5030(3) 0.6035(3) 0.9916(6)
H7D H 0.5348 0.6086 0.9534
C13D C 0.4743(3) 0.6658(2) 1.0222(5)
H8D H 0.4868 0.7122 1.0045
N1D N 0.4287(2) 0.65932(16) 1.0773(3)
O1A O 0.41662(18) 0.20340(14) 0.8230(3)
O2A O 0.26504(18) 0.19256(14) 0.6626(3)
O2F O 0.76504(18) 0.30744(14) 1.1626(3)
O3A O 0.40979(19) -0.11427(14) 1.1187(3)
O3D O 0.40979(19) 0.11427(14) 0.6187(3)
O3E O 0.59021(19) 0.11427(14) 0.8813(3)
O4A O 0.27094(18) -0.14635(13) 0.9369(3)
O4C O 0.77094(18) 0.35365(13) 0.9369(3)
O4E O 0.72906(18) 0.14635(13) 1.0631(3)
O5D O 0.40199(17) 0.71990(13) 1.1070(3)
O5A O 0.40199(17) 0.28010(13) 0.6070(3)
O5F O 0.90199(17) 0.21990(13) 1.1070(3)
Mn1D Mn 0.5000 -0.19610(4) 0.2500
Mn1D_2 Mn 0.5000 0.80390(4) 1.2500
Mn1D_3 Mn 0.5000 -0.19610(4) 1.2500
Mn2C Mn 0.7500 -0.2500 0.5000
Mn2B Mn 0.2500 0.7500 1.0000
Mn2A Mn 0.2500 0.2500 0.5000
Mn2B_2 Mn 0.2500 -0.2500 1.0000
C14 C 0.7483(9) 0.3357(11) 0.6218(15)
H9 H 0.7390 0.3864 0.5948
H10 H 0.7109 0.3242 0.6524
H11 H 0.7304 0.3045 0.5490
C15 C 0.8476(11) 0.3235(9) 0.7282(16)
H12 H 0.8875 0.3352 0.7007
H13 H 0.8670 0.3520 0.8054
O6 O 0.8474(7) 0.2459(5) 0.7503(8)
H14 H 0.8125 0.2376 0.7722
loop_
_geom_bond_atom_site_label_1
_geom_bond_atom_site_label_2
_geom_bond_site_symmetry_1
_geom_bond_site_symmetry_2
C1 C2 1_555 1_555
C2 C3 1_555 1_555
C3 H1 1_555 1_555
C4 C3 1_555 1_555
H2 C4 1_555 1_555
C5 C4 1_555 1_555
C6 C5 1_555 1_555
H3 C6 1_555 1_555
C7 C2 1_555 1_555
H4 C7 1_555 1_555
C8 C5 1_555 1_555
C9 H5 1_555 1_555
C10 C9 1_555 1_555
H6 C10 1_555 1_555
C11 C10 1_555 1_555
C12 C11 1_555 1_555
H7 C12 1_555 1_555
C13 C12 1_555 1_555
H8 C13 1_555 1_555
C14 H9 1_555 1_555
H10 C14 1_555 1_555
H11 C14 1_555 1_555
C15 C14 1_555 1_555
H12 C15 1_555 1_555
H13 C15 1_555 1_555
N1 C9 1_555 1_555
O1 C1 1_555 1_555
O2 C1 1_555 1_555
O3 C8 1_555 1_555
O4 C8 1_555 1_555
O5 N1 1_555 1_555
O6 C15 1_555 1_555
H14 O6 1_555 1_555
Mn1 O1 1_555 1_555
Mn2 O2 1_555 1_555
C1A C2A 1_555 1_555
C2A C3A 1_555 1_555
C3A H1A 1_555 1_555
C4A C3A 1_555 1_555
H2A C4A 1_555 1_555
C5A C4A 1_555 1_555
C6A C5A 1_555 1_555
H3A C6A 1_555 1_555
C7A C2A 1_555 1_555
H4A C7A 1_555 1_555
C8A C5A 1_555 1_555
C9D H5D 1_555 1_555
C10D C9D 1_555 1_555
H6D C10D 1_555 1_555
C11D C11 1_555 1_555
C12D C11D 1_555 1_555
H7D C12D 1_555 1_555
C13D C12D 1_555 1_555
H8D C13D 1_555 1_555
N1D C9D 1_555 1_555
O1A Mn1 1_555 1_555
O2A C1A 1_555 1_555
O2F Mn2 1_555 1_555
O3A C8A 1_555 1_555
O3D Mn1 1_555 1_555
O3E Mn1 1_555 1_555
O4A C8A 1_555 1_555
O4C Mn2 1_555 1_555
O4E Mn2 1_555 1_555
O5D N1D 1_555 1_555
O5A Mn1 1_555 1_555
O5F Mn2 1_555 1_555
Mn1D O3 1_555 1_555
Mn1D_2 O5D 1_555 1_555
Mn1D_3 O3A 1_555 1_555
Mn2C O4 1_555 1_555
Mn2B O5D 1_555 1_555
Mn2A O2A 1_555 1_555
Mn2B_2 O4A 1_555 1_555
C6 C7 1_555 1_555
C13 N1 1_555 1_555
O5 Mn1 1_555 1_555
O5 Mn2 1_555 1_555
C1A O1A 1_555 1_555
C6A C7A 1_555 1_555
C10D C11D 1_555 1_555
C13D N1D 1_555 1_555
O5A Mn2A 1_555 1_555

#END
