
#######################################################################
#
#                 Cambridge Crystallographic Data Centre
#                                CCDC 
#
#######################################################################
#
# If this CIF has been generated from an entry in the Cambridge 
# Structural Database, then it will include bibliographic, chemical, 
# crystal, experimental, refinement or atomic coordinate data resulting 
# from the CCDC's data processing and validation procedures.
#
#######################################################################

data_LUSZOP01
_symmetry_cell_setting           monoclinic
_symmetry_space_group_name_H-M   'P 21/n'
_symmetry_Int_Tables_number      14
_space_group_name_Hall           '-P 2yn'
loop_
_symmetry_equiv_pos_site_id
_symmetry_equiv_pos_as_xyz
1 x,y,z
2 1/2-x,1/2+y,1/2-z
3 -x,-y,-z
4 1/2+x,1/2-y,1/2+z
_cell_length_a                   7.3354(19)
_cell_length_b                   18.140(4)
_cell_length_c                   10.179(3)
_cell_angle_alpha                90
_cell_angle_beta                 94.337(4)
_cell_angle_gamma                90
_cell_volume                     1350.58
loop_
_atom_site_label
_atom_site_type_symbol
_atom_site_fract_x
_atom_site_fract_y
_atom_site_fract_z
Cu1 Cu 0.13457(8) 0.09449(3) 0.78304(5)
Cu2 Cu -0.04321(7) 0.06850(3) 1.06845(5)
S1 S 0.12060(15) 0.43463(7) 1.30905(11)
O1 O 0.0526(5) 0.16804(18) 1.0856(3)
O2 O 0.1294(4) 0.03479(17) 0.9426(3)
O3 O 0.3412(5) 0.51353(19) 0.8367(3)
O4 O 0.1188(5) 0.18607(18) 0.8748(3)
O5 O 0.1297(8) 0.5128(3) 1.2981(4)
O6 O 0.3144(6) 0.4104(2) 0.7141(4)
O7 O 0.2737(6) 0.4027(3) 1.3879(4)
O8 O -0.0492(5) 0.4073(3) 1.3549(4)
C1 C 0.1385(6) 0.3959(2) 1.1504(4)
C2 C 0.2290(6) 0.4050(2) 0.9309(5)
C3 C 0.1964(6) 0.3300(2) 0.9139(4)
H1 H 0.2176 0.3077 0.8341
C4 C 0.1321(6) 0.2876(2) 1.0152(4)
C5 C 0.0980(6) 0.2071(2) 0.9909(4)
C6 C 0.1040(6) 0.3208(3) 1.1349(4)
H2 H 0.0627 0.2932 1.2038
C7 C 0.1991(6) 0.4387(2) 1.0496(4)
H3 H 0.2194 0.4889 1.0614
C8 C 0.3013(6) 0.4466(3) 0.8179(5)
O9 O 0.1181(7) 0.1556(2) 0.6226(4)
Cu1B Cu -0.13457(8) -0.09449(3) 1.21696(5)
Cu1A Cu 0.36543(8) -0.40551(3) 0.71696(5)
Cu1A_2 Cu 0.36543(8) 0.59449(3) 0.71696(5)
Cu1C Cu -0.36543(8) -0.59449(3) 1.28304(5)
Cu1C_2 Cu -0.36543(8) 0.40551(3) 1.28304(5)
Cu2B Cu 0.04321(7) -0.06850(3) 0.93155(5)
Cu2A Cu -0.45679(7) -0.43150(3) 0.43155(5)
Cu2A_2 Cu -0.45679(7) -0.43150(3) 1.43155(5)
Cu2C Cu 0.45679(7) 0.43150(3) 0.56845(5)
Cu2C_2 Cu 0.45679(7) 0.43150(3) 1.56845(5)
S1B S -0.12060(15) -0.43463(7) 0.69095(11)
O1B O -0.0526(5) -0.16804(18) 0.9144(3)
O2B O -0.1294(4) -0.03479(17) 1.0574(3)
O3B O -0.3412(5) -0.51353(19) 1.1633(3)
O3A O 0.1588(5) 0.01353(19) 0.6633(3)
O3C O -0.1588(5) -0.01353(19) 1.3367(3)
O4B O -0.1188(5) -0.18607(18) 1.1252(3)
O5B O -0.1297(8) -0.5128(3) 0.7019(4)
O6B O -0.3144(6) -0.4104(2) 1.2859(4)
O6A O 0.1856(6) -0.0896(2) 0.7859(4)
O6C O -0.1856(6) 0.0896(2) 1.2141(4)
O7B O -0.2737(6) -0.4027(3) 0.6121(4)
O7A O 0.2263(6) -0.0973(3) 1.1121(4)
O7C O -0.2263(6) 0.0973(3) 0.8879(4)
O8B O 0.0492(5) -0.4073(3) 0.6451(4)
O8A O -0.4508(5) -0.0927(3) 1.1451(4)
O8C O 0.4508(5) 0.0927(3) 0.8549(4)
C1B C -0.1385(6) -0.3959(2) 0.8496(4)
C2B C -0.2290(6) -0.4050(2) 1.0691(5)
C3B C -0.1964(6) -0.3300(2) 1.0861(4)
H1B H -0.2176 -0.3077 1.1659
C4B C -0.1321(6) -0.2876(2) 0.9848(4)
C5B C -0.0980(6) -0.2071(2) 1.0091(4)
C6B C -0.1040(6) -0.3208(3) 0.8651(4)
H2B H -0.0627 -0.2932 0.7962
C7B C -0.1991(6) -0.4387(2) 0.9504(4)
H3B H -0.2194 -0.4889 0.9386
C8B C -0.3013(6) -0.4466(3) 1.1821(5)
O9B O -0.1181(7) -0.1556(2) 1.3774(4)
O10 O 0.0392(9) 0.3010(3) 0.5870(6)
O11 O 0.2147(11) 0.1337(5) 0.3639(7)
loop_
_geom_bond_atom_site_label_1
_geom_bond_atom_site_label_2
_geom_bond_site_symmetry_1
_geom_bond_site_symmetry_2
Cu1 O2 1_555 1_555
Cu2 O1 1_555 1_555
S1 O5 1_555 1_555
O1 C5 1_555 1_555
O2 Cu2 1_555 1_555
O3 C8 1_555 1_555
O4 Cu1 1_555 1_555
O6 C8 1_555 1_555
O7 S1 1_555 1_555
O8 S1 1_555 1_555
C1 S1 1_555 1_555
C2 C3 1_555 1_555
C3 H1 1_555 1_555
C4 C3 1_555 1_555
C5 O4 1_555 1_555
C6 C1 1_555 1_555
H2 C6 1_555 1_555
C7 C1 1_555 1_555
H3 C7 1_555 1_555
C8 C2 1_555 1_555
O9 Cu1 1_555 1_555
Cu1B O2B 1_555 1_555
Cu1A O8B 1_555 1_555
Cu1A_2 O3 1_555 1_555
Cu1C O3B 1_555 1_555
Cu1C_2 O8 1_555 1_555
Cu2B O2 1_555 1_555
Cu2A O7B 1_555 1_555
Cu2A_2 O6B 1_555 1_555
Cu2C O6 1_555 1_555
Cu2C_2 O7 1_555 1_555
S1B O5B 1_555 1_555
O1B Cu2B 1_555 1_555
O2B Cu2 1_555 1_555
O3B C8B 1_555 1_555
O3A Cu1 1_555 1_555
O3C Cu1B 1_555 1_555
O4B Cu1B 1_555 1_555
O6B C8B 1_555 1_555
O6A Cu2B 1_555 1_555
O6C Cu2 1_555 1_555
O7B S1B 1_555 1_555
O7A Cu2B 1_555 1_555
O7C Cu2 1_555 1_555
O8B S1B 1_555 1_555
O8A Cu1B 1_555 1_555
O8C Cu1 1_555 1_555
C1B S1B 1_555 1_555
C2B C3B 1_555 1_555
C3B H1B 1_555 1_555
C4B C3B 1_555 1_555
C5B O1B 1_555 1_555
C6B C1B 1_555 1_555
H2B C6B 1_555 1_555
C7B C1B 1_555 1_555
H3B C7B 1_555 1_555
C8B C2B 1_555 1_555
O9B Cu1B 1_555 1_555
C2 C7 1_555 1_555
C4 C5 1_555 1_555
C4 C6 1_555 1_555
Cu2B O2B 1_555 1_555
O4B C5B 1_555 1_555
C2B C7B 1_555 1_555
C4B C5B 1_555 1_555
C4B C6B 1_555 1_555

#END
