
#######################################################################
#
#                 Cambridge Crystallographic Data Centre
#                                CCDC 
#
#######################################################################
#
# If this CIF has been generated from an entry in the Cambridge 
# Structural Database, then it will include bibliographic, chemical, 
# crystal, experimental, refinement or atomic coordinate data resulting 
# from the CCDC's data processing and validation procedures.
#
#######################################################################

data_LUTBUY
_symmetry_cell_setting           monoclinic
_symmetry_space_group_name_H-M   'P 21/n'
_symmetry_Int_Tables_number      14
_space_group_name_Hall           '-P 2yn'
loop_
_symmetry_equiv_pos_site_id
_symmetry_equiv_pos_as_xyz
1 x,y,z
2 1/2-x,1/2+y,1/2-z
3 -x,-y,-z
4 1/2+x,1/2-y,1/2+z
_cell_length_a                   7.302(13)
_cell_length_b                   18.15(3)
_cell_length_c                   10.267(18)
_cell_angle_alpha                90
_cell_angle_beta                 94.01(3)
_cell_angle_gamma                90
_cell_volume                     1357.37
loop_
_atom_site_label
_atom_site_type_symbol
_atom_site_fract_x
_atom_site_fract_y
_atom_site_fract_z
Cu1 Cu 0.1359(3) 0.09474(8) 0.7850(2)
Cu2 Cu -0.0375(3) 0.06834(8) 1.0708(2)
S1 S 0.1267(5) 0.43500(18) 1.3093(5)
O1 O 0.0590(16) 0.1682(5) 1.0844(12)
O2 O 0.1297(12) 0.0343(4) 0.9446(11)
O3 O 0.3448(16) 0.5145(5) 0.8398(15)
O4 O 0.1216(17) 0.1866(5) 0.8742(11)
O5 O 0.148(3) 0.5128(6) 1.2988(18)
O6 O 0.327(2) 0.4104(5) 0.7225(16)
O7 O 0.2743(18) 0.4010(7) 1.3906(17)
O8 O -0.0467(17) 0.4100(10) 1.356(2)
C1 C 0.145(2) 0.3964(7) 1.1486(15)
C2 C 0.235(2) 0.4055(7) 0.933(2)
C3 C 0.201(2) 0.3310(6) 0.912(2)
H1 H 0.2192 0.3096 0.8320
C4 C 0.139(2) 0.2885(6) 1.0149(17)
C5 C 0.104(2) 0.2070(6) 0.9954(17)
C6 C 0.107(2) 0.3208(7) 1.1308(19)
H2 H 0.0598 0.2934 1.1973
C7 C 0.205(2) 0.4388(7) 1.044(2)
H3 H 0.2230 0.4893 1.0537
C8 C 0.305(2) 0.4467(7) 0.815(2)
O9 O 0.1228(18) 0.1556(6) 0.6166(12)
Cu1B Cu -0.1359(3) -0.09474(8) 1.2150(2)
Cu1A Cu 0.3641(3) -0.40526(8) 0.7150(2)
Cu1A_2 Cu 0.3641(3) 0.59474(8) 0.7150(2)
Cu1C Cu -0.3641(3) -0.59474(8) 1.2850(2)
Cu1C_2 Cu -0.3641(3) 0.40526(8) 1.2850(2)
Cu2B Cu 0.0375(3) -0.06834(8) 0.9292(2)
Cu2A Cu -0.4625(3) -0.43166(8) 0.4292(2)
Cu2A_2 Cu -0.4625(3) -0.43166(8) 1.4292(2)
Cu2C Cu 0.4625(3) 0.43166(8) 0.5708(2)
Cu2C_2 Cu 0.4625(3) 0.43166(8) 1.5708(2)
S1B S -0.1267(5) -0.43500(18) 0.6907(5)
O1B O -0.0590(16) -0.1682(5) 0.9156(12)
O2B O -0.1297(12) -0.0343(4) 1.0554(11)
O3B O -0.3448(16) -0.5145(5) 1.1602(15)
O3A O 0.1552(16) 0.0145(5) 0.6602(15)
O3C O -0.1552(16) -0.0145(5) 1.3398(15)
O4B O -0.1216(17) -0.1866(5) 1.1258(11)
O5B O -0.148(3) -0.5128(6) 0.7012(18)
O6B O -0.327(2) -0.4104(5) 1.2775(16)
O6A O 0.173(2) -0.0896(5) 0.7775(16)
O6C O -0.173(2) 0.0896(5) 1.2225(16)
O7B O -0.2743(18) -0.4010(7) 0.6094(17)
O7A O 0.2257(18) -0.0990(7) 1.1094(17)
O7C O -0.2257(18) 0.0990(7) 0.8906(17)
O8B O 0.0467(17) -0.4100(10) 0.644(2)
O8A O -0.4533(17) -0.0900(10) 1.144(2)
O8C O 0.4533(17) 0.0900(10) 0.856(2)
C1B C -0.145(2) -0.3964(7) 0.8514(15)
C2B C -0.235(2) -0.4055(7) 1.067(2)
C3B C -0.201(2) -0.3310(6) 1.088(2)
H1B H -0.2192 -0.3096 1.1680
C4B C -0.139(2) -0.2885(6) 0.9851(17)
C5B C -0.104(2) -0.2070(6) 1.0046(17)
C6B C -0.107(2) -0.3208(7) 0.8692(19)
H2B H -0.0598 -0.2934 0.8027
C7B C -0.205(2) -0.4388(7) 0.956(2)
H3B H -0.2230 -0.4893 0.9463
C8B C -0.305(2) -0.4467(7) 1.185(2)
O9B O -0.1228(18) -0.1556(6) 1.3834(12)
O10 O 0.047(3) 0.2998(10) 0.5799(19)
O11 O 0.206(6) 0.134(3) 0.362(3)
loop_
_geom_bond_atom_site_label_1
_geom_bond_atom_site_label_2
_geom_bond_site_symmetry_1
_geom_bond_site_symmetry_2
Cu1 O2 1_555 1_555
Cu2 O1 1_555 1_555
S1 O5 1_555 1_555
O1 C5 1_555 1_555
O2 Cu2 1_555 1_555
O3 C8 1_555 1_555
O4 Cu1 1_555 1_555
O6 C8 1_555 1_555
O7 S1 1_555 1_555
O8 S1 1_555 1_555
C1 S1 1_555 1_555
C2 C3 1_555 1_555
C3 H1 1_555 1_555
C4 C3 1_555 1_555
C5 O4 1_555 1_555
C6 C1 1_555 1_555
H2 C6 1_555 1_555
C7 C1 1_555 1_555
H3 C7 1_555 1_555
C8 C2 1_555 1_555
O9 Cu1 1_555 1_555
Cu1B O2B 1_555 1_555
Cu1A O8B 1_555 1_555
Cu1A_2 O3 1_555 1_555
Cu1C O3B 1_555 1_555
Cu1C_2 O8 1_555 1_555
Cu2B O2 1_555 1_555
Cu2A O7B 1_555 1_555
Cu2A_2 O6B 1_555 1_555
Cu2C O6 1_555 1_555
Cu2C_2 O7 1_555 1_555
S1B O5B 1_555 1_555
O1B Cu2B 1_555 1_555
O2B Cu2 1_555 1_555
O3B C8B 1_555 1_555
O3A Cu1 1_555 1_555
O3C Cu1B 1_555 1_555
O4B Cu1B 1_555 1_555
O6B C8B 1_555 1_555
O6A Cu2B 1_555 1_555
O6C Cu2 1_555 1_555
O7B S1B 1_555 1_555
O7A Cu2B 1_555 1_555
O7C Cu2 1_555 1_555
O8B S1B 1_555 1_555
O8A Cu1B 1_555 1_555
O8C Cu1 1_555 1_555
C1B S1B 1_555 1_555
C2B C3B 1_555 1_555
C3B H1B 1_555 1_555
C4B C3B 1_555 1_555
C5B O1B 1_555 1_555
C6B C1B 1_555 1_555
H2B C6B 1_555 1_555
C7B C1B 1_555 1_555
H3B C7B 1_555 1_555
C8B C2B 1_555 1_555
O9B Cu1B 1_555 1_555
C2 C7 1_555 1_555
C4 C5 1_555 1_555
C4 C6 1_555 1_555
Cu2B O2B 1_555 1_555
O4B C5B 1_555 1_555
C2B C7B 1_555 1_555
C4B C5B 1_555 1_555
C4B C6B 1_555 1_555

#END
