
#######################################################################
#
#                 Cambridge Crystallographic Data Centre
#                                CCDC 
#
#######################################################################
#
# If this CIF has been generated from an entry in the Cambridge 
# Structural Database, then it will include bibliographic, chemical, 
# crystal, experimental, refinement or atomic coordinate data resulting 
# from the CCDC's data processing and validation procedures.
#
#######################################################################

data_LUVTEC
_symmetry_cell_setting           tetragonal
_symmetry_space_group_name_H-M   'P -4 c 2'
_symmetry_Int_Tables_number      116
_space_group_name_Hall           'P -4 -2c'
loop_
_symmetry_equiv_pos_site_id
_symmetry_equiv_pos_as_xyz
1 x,y,z
2 -x,-y,z
3 y,-x,-z
4 -y,x,-z
5 x,-y,1/2+z
6 -x,y,1/2+z
7 y,x,1/2-z
8 -y,-x,1/2-z
_cell_length_a                   17.6776(10)
_cell_length_b                   17.6776(10)
_cell_length_c                   15.1330(18)
_cell_angle_alpha                90
_cell_angle_beta                 90
_cell_angle_gamma                90
_cell_volume                     4729.03
loop_
_atom_site_label
_atom_site_type_symbol
_atom_site_fract_x
_atom_site_fract_y
_atom_site_fract_z
Zn1 Zn 0.14562(3) 0.10359(3) 0.03092(4)
Zn2 Zn 0.14900(3) 0.14900(3) 0.2500
O1 O 0.1440(2) 0.2195(2) 0.0541(3)
O2 O 0.1465(2) 0.2505(2) 0.1974(3)
O3 O 0.1405(2) 0.0761(2) 0.1575(2)
O4 O 0.1264(2) -0.0126(2) 0.0190(2)
O5 O 0.1193(3) -0.1173(2) 0.0985(3)
N1 N 0.1016(2) 0.7366(2) -0.0098(3)
C1 C 0.1304(3) 0.3473(3) 0.0943(4)
C2 C 0.1303(4) 0.4014(3) 0.1596(5)
H1 H 0.1365 0.3868 0.2196
C3 C 0.1212(4) 0.4782(3) 0.1382(4)
H2 H 0.1206 0.5149 0.1841
C4 C 0.1129(3) 0.5013(3) 0.0511(4)
C5 C 0.1118(4) 0.4459(3) -0.0147(4)
H3 H 0.1051 0.4604 -0.0746
C6 C 0.1206(4) 0.3693(3) 0.0063(4)
H4 H 0.1199 0.3323 -0.0392
C7 C 0.1066(3) 0.5818(3) 0.0289(4)
C8 C 0.1358(5) 0.6110(3) -0.0481(4)
H5 H 0.1584 0.5781 -0.0902
C9 C 0.1326(4) 0.6881(4) -0.0647(4)
H6 H 0.1538 0.7066 -0.1182
C10 C 0.0713(4) 0.7087(3) 0.0637(4)
H7 H 0.0474 0.7430 0.1032
C11 C 0.0722(4) 0.6331(3) 0.0860(4)
H8 H 0.0498 0.6162 0.1396
C12 C 0.1414(3) 0.2661(3) 0.1176(4)
C13 C 0.1407(5) -0.0018(3) 0.1756(4)
H9 H 0.1004 -0.0138 0.2199
C14 C 0.1269(3) -0.0462(3) 0.0918(4)
C15 C 0.2175(7) -0.0249(4) 0.2120(6)
H10 H 0.2299 0.0067 0.2632
H11 H 0.2561 -0.0182 0.1663
H12 H 0.2159 -0.0781 0.2301
Zn1F Zn 0.10359(3) 0.14562(3) 0.46908(4)
Zn1B Zn 0.10359(3) -0.14562(3) -0.03092(4)
Zn1B_2 Zn 0.10359(3) 0.85438(3) -0.03092(4)
Zn1E Zn 0.85438(3) 0.10359(3) 0.53092(4)
Zn1E_2 Zn -0.14562(3) 0.10359(3) 0.53092(4)
O1F O 0.2195(2) 0.1440(2) 0.4459(3)
O2F O 0.2505(2) 0.1465(2) 0.3026(3)
O3F O 0.0761(2) 0.1405(2) 0.3425(2)
O4F O -0.0126(2) 0.1264(2) 0.4810(2)
O5F O -0.1173(2) 0.1193(3) 0.4015(3)
O5C O 0.1173(2) 0.1193(3) -0.0985(3)
O5D O 0.1193(3) 0.1173(2) 0.5985(3)
N1F N 0.7366(2) 0.1016(2) 0.5098(3)
N1C N 0.2634(2) 0.1016(2) 0.0098(3)
N1D N 0.1016(2) 0.2634(2) 0.4902(3)
C1F C 0.3473(3) 0.1304(3) 0.4057(4)
C2F C 0.4014(3) 0.1303(4) 0.3404(5)
H1F H 0.3868 0.1365 0.2804
C3F C 0.4782(3) 0.1212(4) 0.3618(4)
H2F H 0.5149 0.1206 0.3159
C4F C 0.5013(3) 0.1129(3) 0.4489(4)
C5F C 0.4459(3) 0.1118(4) 0.5147(4)
H3F H 0.4604 0.1051 0.5746
C6F C 0.3693(3) 0.1206(4) 0.4937(4)
H4F H 0.3323 0.1199 0.5392
C7F C 0.5818(3) 0.1066(3) 0.4711(4)
C8F C 0.6110(3) 0.1358(5) 0.5481(4)
H5F H 0.5781 0.1584 0.5902
C9F C 0.6881(4) 0.1326(4) 0.5647(4)
H6F H 0.7066 0.1538 0.6182
C10F C 0.7087(3) 0.0713(4) 0.4363(4)
H7F H 0.7430 0.0474 0.3968
C11F C 0.6331(3) 0.0722(4) 0.4140(4)
H8F H 0.6162 0.0498 0.3604
C12F C 0.2661(3) 0.1414(3) 0.3824(4)
C13F C -0.0018(3) 0.1407(5) 0.3244(4)
H9F H -0.0138 0.1004 0.2801
C14F C -0.0462(3) 0.1269(3) 0.4082(4)
C15F C -0.0249(4) 0.2175(7) 0.2880(6)
H10F H 0.0067 0.2299 0.2368
H11F H -0.0182 0.2561 0.3337
H12F H -0.0781 0.2159 0.2699
loop_
_geom_bond_atom_site_label_1
_geom_bond_atom_site_label_2
_geom_bond_site_symmetry_1
_geom_bond_site_symmetry_2
Zn1 O1 1_555 1_555
Zn2 O2 1_555 1_555
O1 C12 1_555 1_555
O2 C12 1_555 1_555
O3 Zn1 1_555 1_555
O4 Zn1 1_555 1_555
O5 C14 1_555 1_555
N1 C9 1_555 1_555
C1 C2 1_555 1_555
C2 H1 1_555 1_555
C3 C2 1_555 1_555
H2 C3 1_555 1_555
C4 C3 1_555 1_555
C5 C4 1_555 1_555
H3 C5 1_555 1_555
C6 C1 1_555 1_555
H4 C6 1_555 1_555
C7 C4 1_555 1_555
C8 C7 1_555 1_555
H5 C8 1_555 1_555
C9 C8 1_555 1_555
H6 C9 1_555 1_555
C10 N1 1_555 1_555
H7 C10 1_555 1_555
C11 C7 1_555 1_555
H8 C11 1_555 1_555
C12 C1 1_555 1_555
C13 O3 1_555 1_555
H9 C13 1_555 1_555
C14 O4 1_555 1_555
C15 C13 1_555 1_555
H10 C15 1_555 1_555
H11 C15 1_555 1_555
H12 C15 1_555 1_555
Zn1F O1F 1_555 1_555
Zn1B O5 1_555 1_555
Zn1B_2 N1 1_555 1_555
Zn1E N1F 1_555 1_555
Zn1E_2 O5F 1_555 1_555
O1F C12F 1_555 1_555
O2F Zn2 1_555 1_555
O3F Zn2 1_555 1_555
O4F Zn1F 1_555 1_555
O5F C14F 1_555 1_555
O5C Zn1 1_555 1_555
O5D Zn1F 1_555 1_555
N1F C9F 1_555 1_555
N1C Zn1 1_555 1_555
N1D Zn1F 1_555 1_555
C1F C2F 1_555 1_555
C2F H1F 1_555 1_555
C3F C2F 1_555 1_555
H2F C3F 1_555 1_555
C4F C3F 1_555 1_555
C5F C4F 1_555 1_555
H3F C5F 1_555 1_555
C6F C1F 1_555 1_555
H4F C6F 1_555 1_555
C7F C4F 1_555 1_555
C8F C7F 1_555 1_555
H5F C8F 1_555 1_555
C9F C8F 1_555 1_555
H6F C9F 1_555 1_555
C10F N1F 1_555 1_555
H7F C10F 1_555 1_555
C11F C7F 1_555 1_555
H8F C11F 1_555 1_555
C12F O2F 1_555 1_555
C13F O3F 1_555 1_555
H9F C13F 1_555 1_555
C14F O4F 1_555 1_555
C15F C13F 1_555 1_555
H10F C15F 1_555 1_555
H11F C15F 1_555 1_555
H12F C15F 1_555 1_555
Zn2 O3 1_555 1_555
C5 C6 1_555 1_555
C10 C11 1_555 1_555
C13 C14 1_555 1_555
Zn1F O3F 1_555 1_555
C1F C12F 1_555 1_555
C5F C6F 1_555 1_555
C10F C11F 1_555 1_555
C13F C14F 1_555 1_555

#END
