
#######################################################################
#
#                 Cambridge Crystallographic Data Centre
#                                CCDC 
#
#######################################################################
#
# If this CIF has been generated from an entry in the Cambridge 
# Structural Database, then it will include bibliographic, chemical, 
# crystal, experimental, refinement or atomic coordinate data resulting 
# from the CCDC's data processing and validation procedures.
#
#######################################################################

data_MABLAD
_symmetry_cell_setting           monoclinic
_symmetry_space_group_name_H-M   'C 2/c'
_symmetry_Int_Tables_number      15
_space_group_name_Hall           '-C 2yn'
loop_
_symmetry_equiv_pos_site_id
_symmetry_equiv_pos_as_xyz
1 x,y,z
2 1/2+x,1/2+y,z
3 x,-y,1/2+z
4 1/2+x,1/2-y,1/2+z
5 -x,-y,-z
6 1/2-x,1/2-y,-z
7 -x,y,1/2-z
8 1/2-x,1/2+y,1/2-z
_cell_length_a                   9.523(2)
_cell_length_b                   20.618(4)
_cell_length_c                   25.874(5)
_cell_angle_alpha                90.00
_cell_angle_beta                 96.20(3)
_cell_angle_gamma                90.00
_cell_volume                     5050.52
loop_
_atom_site_label
_atom_site_type_symbol
_atom_site_fract_x
_atom_site_fract_y
_atom_site_fract_z
Co1 Co 0.5947(2) 0.30277(9) 0.95575(6)
O1 O 0.3887(9) 0.3477(5) 0.9344(3)
O2 O 0.5196(10) 0.3194(5) 0.8735(3)
O3 O 0.5670(9) 0.3107(4) 1.0322(3)
O4 O 0.7189(10) 0.2364(5) 1.0602(3)
N1 N 0.6971(13) 0.3963(5) 0.9593(4)
N2 N 0.9998(12) 0.7078(5) 0.9532(4)
C1 C 0.4071(17) 0.3415(7) 0.8868(5)
C2 C 0.2917(16) 0.3596(7) 0.8472(5)
C3 C 0.1542(19) 0.3644(9) 0.8601(6)
H1 H 0.1354 0.3601 0.8945
C4 C 0.0480(17) 0.3754(9) 0.8219(6)
H2 H -0.0418 0.3809 0.8322
C5 C 0.0589(17) 0.3792(7) 0.7710(5)
C6 C 0.1996(18) 0.3763(8) 0.7580(5)
H3 H 0.2167 0.3818 0.7236
C7 C 0.3119(17) 0.3653(8) 0.7956(5)
H4 H 0.4026 0.3617 0.7857
C8 C 0.6296(14) 0.2787(6) 1.0675(5)
C9 C 0.5930(15) 0.2869(6) 1.1220(4)
C10 C 0.6851(15) 0.2686(7) 1.1631(5)
H5 H 0.7711 0.2503 1.1571
C11 C 0.6536(16) 0.2765(7) 1.2147(5)
H6 H 0.7212 0.2679 1.2426
C12 C 0.5188(15) 0.2975(7) 1.2231(5)
C13 C 0.4271(16) 0.3137(8) 1.1812(5)
H7 H 0.3373 0.3282 1.1865
C14 C 0.4633(17) 0.3092(8) 1.1306(5)
H8 H 0.3989 0.3216 1.1027
C15 C 0.666(2) 0.4426(7) 0.9920(7)
H9 H 0.6012 0.4333 1.0155
C16 C 0.724(2) 0.5030(8) 0.9927(7)
H10 H 0.7050 0.5329 1.0180
C17 C 0.8103(15) 0.5194(6) 0.9561(5)
C18 C 0.845(2) 0.4711(8) 0.9251(7)
H11 H 0.9116 0.4786 0.9020
C19 C 0.784(2) 0.4111(8) 0.9268(7)
H12 H 0.8067 0.3797 0.9033
C20 C 0.8718(16) 0.5862(7) 0.9551(5)
C21 C 0.8352(16) 0.6356(7) 0.9852(6)
H13 H 0.7678 0.6289 1.0081
C22 C 0.8958(14) 0.6953(7) 0.9824(6)
H14 H 0.8630 0.7289 1.0019
C23 C 1.036(2) 0.6623(8) 0.9235(7)
H15 H 1.1031 0.6713 0.9008
C24 C 0.978(2) 0.5994(8) 0.9238(8)
H16 H 1.0114 0.5669 0.9033
C5F C -0.0589(17) 0.3792(7) 0.7290(5)
C4F C -0.0480(17) 0.3754(9) 0.6781(6)
C3F C -0.1542(19) 0.3644(9) 0.6399(6)
C2F C -0.2917(16) 0.3596(7) 0.6528(5)
C1F C -0.4071(17) 0.3415(7) 0.6132(5)
O1F O -0.3887(9) 0.3477(5) 0.5656(3)
O2F O -0.5196(10) 0.3194(5) 0.6265(3)
C7F C -0.3119(17) 0.3653(8) 0.7044(5)
C6F C -0.1996(18) 0.3763(8) 0.7420(5)
H3F H -0.2167 0.3818 0.7764
H4F H -0.4026 0.3617 0.7143
H1F H -0.1354 0.3601 0.6055
H2F H 0.0418 0.3809 0.6678
C12F C 0.4812(15) 0.2975(7) 1.2769(5)
C11F C 0.3464(16) 0.2765(7) 1.2853(5)
C10F C 0.3149(15) 0.2686(7) 1.3369(5)
C9F C 0.4070(15) 0.2869(6) 1.3780(4)
C8F C 0.3704(14) 0.2787(6) 1.4325(5)
O3F O 0.4330(9) 0.3107(4) 1.4678(3)
O4F O 0.2811(10) 0.2364(5) 1.4398(3)
C14F C 0.5367(17) 0.3092(8) 1.3694(5)
C13F C 0.5729(16) 0.3137(8) 1.3188(5)
H7F H 0.6627 0.3282 1.3135
H8F H 0.6011 0.3216 1.3973
H5F H 0.2289 0.2503 1.3429
H6F H 0.2788 0.2679 1.2574
N1A N 0.1971(13) -0.1037(5) 0.9593(4)
N2A N 0.4998(12) 0.2078(5) 0.9532(4)
C15A C 0.166(2) -0.0574(7) 0.9920(7)
H9A H 0.1012 -0.0667 1.0155
C16A C 0.224(2) 0.0030(8) 0.9927(7)
H10A H 0.2050 0.0329 1.0180
C17A C 0.3103(15) 0.0194(6) 0.9561(5)
C18A C 0.345(2) -0.0289(8) 0.9251(7)
H11A H 0.4116 -0.0214 0.9020
C19A C 0.284(2) -0.0889(8) 0.9268(7)
H12A H 0.3067 -0.1203 0.9033
C20A C 0.3718(16) 0.0862(7) 0.9551(5)
C21A C 0.3352(16) 0.1356(7) 0.9852(6)
H13A H 0.2678 0.1289 1.0081
C22A C 0.3958(14) 0.1953(7) 0.9824(6)
H14A H 0.3630 0.2289 1.0019
C23A C 0.536(2) 0.1623(8) 0.9235(7)
H15A H 0.6031 0.1713 0.9008
C24A C 0.478(2) 0.0994(8) 0.9238(8)
H16A H 0.5114 0.0669 0.9033
Co1F Co -0.5947(2) 0.30277(9) 0.54425(6)
O4E O 0.7811(10) 0.2636(5) 0.9398(3)
Co1E Co 0.9053(2) 0.19723(9) 1.04425(6)
Co1A Co 1.0947(2) 0.80277(9) 0.95575(6)
Co1F_2 Co 0.4053(2) 0.30277(9) 1.54425(6)
Co1C Co 0.0947(2) 0.19723(9) 1.45575(6)
Co1A_2 Co 0.0947(2) -0.19723(9) 0.95575(6)
O3F_2 O -0.5670(9) 0.3107(4) 0.4678(3)
O4C O -0.7811(10) 0.2636(5) 0.5602(3)
N1F N -0.6971(13) 0.3963(5) 0.5407(4)
N2G N -0.4998(12) 0.2078(5) 0.5468(4)
C25 C 0.387(2) 0.532(3) 0.8074(9)
O5 O 0.419(4) 0.522(4) 0.7603(13)
N3 N 0.290(3) 0.540(3) 0.8197(10)
C26 C 0.293(6) 0.529(4) 0.8771(12)
C27 C 0.182(4) 0.556(4) 0.7748(18)
O6? O 0.502(4) 0.511(4) 0.834(2)
loop_
_geom_bond_atom_site_label_1
_geom_bond_atom_site_label_2
_geom_bond_site_symmetry_1
_geom_bond_site_symmetry_2
Co1 O1 1_555 1_555
O1 C1 1_555 1_555
O2 Co1 1_555 1_555
O3 Co1 1_555 1_555
O4 C8 1_555 1_555
N1 Co1 1_555 1_555
N2 C22 1_555 1_555
C1 O2 1_555 1_555
C2 C1 1_555 1_555
C3 C2 1_555 1_555
H1 C3 1_555 1_555
C4 C3 1_555 1_555
H2 C4 1_555 1_555
C5 C4 1_555 1_555
C6 C5 1_555 1_555
H3 C6 1_555 1_555
C7 C2 1_555 1_555
H4 C7 1_555 1_555
C8 O3 1_555 1_555
C9 C8 1_555 1_555
C10 C9 1_555 1_555
H5 C10 1_555 1_555
C11 C10 1_555 1_555
H6 C11 1_555 1_555
C12 C11 1_555 1_555
C13 C12 1_555 1_555
H7 C13 1_555 1_555
C14 C9 1_555 1_555
H8 C14 1_555 1_555
C15 N1 1_555 1_555
H9 C15 1_555 1_555
C16 C15 1_555 1_555
H10 C16 1_555 1_555
C17 C16 1_555 1_555
C18 C17 1_555 1_555
H11 C18 1_555 1_555
C19 N1 1_555 1_555
H12 C19 1_555 1_555
C20 C17 1_555 1_555
C21 C20 1_555 1_555
H13 C21 1_555 1_555
C22 C21 1_555 1_555
H14 C22 1_555 1_555
C23 N2 1_555 1_555
H15 C23 1_555 1_555
C24 C20 1_555 1_555
H16 C24 1_555 1_555
C25 O5 1_555 1_555
N3 C25 1_555 1_555
C26 N3 1_555 1_555
C27 N3 1_555 1_555
C5F C5 1_555 1_555
C4F C5F 1_555 1_555
C3F C4F 1_555 1_555
C2F C3F 1_555 1_555
C1F C2F 1_555 1_555
O1F C1F 1_555 1_555
O2F C1F 1_555 1_555
C7F C2F 1_555 1_555
C6F C5F 1_555 1_555
H3F C6F 1_555 1_555
H4F C7F 1_555 1_555
H1F C3F 1_555 1_555
H2F C4F 1_555 1_555
C12F C12 1_555 1_555
C11F C12F 1_555 1_555
C10F C11F 1_555 1_555
C9F C10F 1_555 1_555
C8F C9F 1_555 1_555
O3F C8F 1_555 1_555
O4F C8F 1_555 1_555
C14F C9F 1_555 1_555
C13F C12F 1_555 1_555
H7F C13F 1_555 1_555
H8F C14F 1_555 1_555
H5F C10F 1_555 1_555
H6F C11F 1_555 1_555
N1A C15A 1_555 1_555
N2A Co1 1_555 1_555
C15A H9A 1_555 1_555
C16A C15A 1_555 1_555
H10A C16A 1_555 1_555
C17A C16A 1_555 1_555
C18A C17A 1_555 1_555
H11A C18A 1_555 1_555
C19A N1A 1_555 1_555
H12A C19A 1_555 1_555
C20A C17A 1_555 1_555
C21A C20A 1_555 1_555
H13A C21A 1_555 1_555
C22A N2A 1_555 1_555
H14A C22A 1_555 1_555
C23A N2A 1_555 1_555
H15A C23A 1_555 1_555
C24A C20A 1_555 1_555
H16A C24A 1_555 1_555
Co1F O1F 1_555 1_555
O4E Co1 1_555 1_555
Co1E O4 1_555 1_555
Co1A N2 1_555 1_555
Co1F_2 O3F 1_555 1_555
Co1C O4F 1_555 1_555
Co1A_2 N1A 1_555 1_555
O3F_2 Co1F 1_555 1_555
O4C Co1F 1_555 1_555
N1F Co1F 1_555 1_555
N2G Co1F 1_555 1_555
C6 C7 1_555 1_555
C13 C14 1_555 1_555
C18 C19 1_555 1_555
C23 C24 1_555 1_555
O2F Co1F 1_555 1_555
C7F C6F 1_555 1_555
C14F C13F 1_555 1_555
C18A C19A 1_555 1_555
C21A C22A 1_555 1_555
C23A C24A 1_555 1_555

#END
