
#######################################################################
#
#                 Cambridge Crystallographic Data Centre
#                                CCDC 
#
#######################################################################
#
# If this CIF has been generated from an entry in the Cambridge 
# Structural Database, then it will include bibliographic, chemical, 
# crystal, experimental, refinement or atomic coordinate data resulting 
# from the CCDC's data processing and validation procedures.
#
#######################################################################

data_MACKAE
_symmetry_cell_setting           cubic
_symmetry_space_group_name_H-M   'I 2 3'
_symmetry_Int_Tables_number      197
_space_group_name_Hall           'I 2 2 3'
loop_
_symmetry_equiv_pos_site_id
_symmetry_equiv_pos_as_xyz
1 x,y,z
2 -x,-y,z
3 -x,y,-z
4 x,-y,-z
5 z,x,y
6 z,-x,-y
7 -z,-x,y
8 -z,x,-y
9 y,z,x
10 -y,z,-x
11 y,-z,-x
12 -y,-z,x
13 1/2+x,1/2+y,1/2+z
14 1/2-x,1/2-y,1/2+z
15 1/2-x,1/2+y,1/2-z
16 1/2+x,1/2-y,1/2-z
17 1/2+z,1/2+x,1/2+y
18 1/2+z,1/2-x,1/2-y
19 1/2-z,1/2-x,1/2+y
20 1/2-z,1/2+x,1/2-y
21 1/2+y,1/2+z,1/2+x
22 1/2-y,1/2+z,1/2-x
23 1/2+y,1/2-z,1/2-x
24 1/2-y,1/2-z,1/2+x
_cell_length_a                   16.6897(7)
_cell_length_b                   16.6897(7)
_cell_length_c                   16.6897(7)
_cell_angle_alpha                90
_cell_angle_beta                 90
_cell_angle_gamma                90
_cell_volume                     4648.85
loop_
_atom_site_label
_atom_site_type_symbol
_atom_site_fract_x
_atom_site_fract_y
_atom_site_fract_z
U1 U 0.764736(16) 0.610123(16) 0.774314(16)
O1 O 0.6487(4) 0.6628(3) 0.8469(3)
O2 O 0.7015(4) 0.5604(4) 0.7036(4)
O3 O 0.8290(3) 0.6550(4) 0.8476(4)
O4 O 0.9983(4) 0.3636(3) 0.7704(3)
O5 O 0.8627(4) 0.5023(3) 0.7673(3)
O6 O 0.7296(4) 0.7296(4) 0.7296(4)
C1 C 0.9384(5) 0.5017(4) 0.7702(4)
C2 C 0.9981(5) 0.4381(4) 0.7708(5)
U1D U 0.774314(16) 0.764736(16) 0.610123(16)
U1H U 0.610123(16) 0.774314(16) 0.764736(16)
U1A U 1.235264(16) 0.389877(16) 0.774314(16)
U1R U 0.725686(16) 0.735264(16) 1.110123(16)
U1S U 0.725686(16) 0.264736(16) 0.889877(16)
U1U U 0.889877(16) 0.274314(16) 0.735264(16)
U1V U 1.110123(16) 0.725686(16) 0.735264(16)
U1C U 0.764736(16) 0.389877(16) 1.225686(16)
U1M U 0.735264(16) 0.889877(16) 0.274314(16)
U1N U 0.735264(16) 1.110123(16) 0.725686(16)
U1E U 0.774314(16) 1.235264(16) 0.389877(16)
U1K U 1.389877(16) 0.225686(16) 0.764736(16)
U1F U 1.225686(16) 0.235264(16) 0.610123(16)
U1M_2 U 0.735264(16) 0.889877(16) 1.274314(16)
O1D O 0.8469(3) 0.6487(4) 0.6628(3)
O1H O 0.6628(3) 0.8469(3) 0.6487(4)
O1A O 1.3513(4) 0.3372(3) 0.8469(3)
O1F O 1.1531(3) 0.3513(4) 0.6628(3)
O1R O 0.6531(3) 0.8513(4) 1.1628(3)
O1W O 0.8372(3) 0.6531(3) 1.1487(4)
O1S O 0.6531(3) 0.1487(4) 0.8372(3)
O1U O 0.8372(3) 0.3469(3) 0.8513(4)
O2D O 0.7036(4) 0.7015(4) 0.5604(4)
O2H O 0.5604(4) 0.7036(4) 0.7015(4)
O2A O 1.2985(4) 0.4396(4) 0.7036(4)
O2R O 0.7964(4) 0.7985(4) 1.0604(4)
O2S O 0.7964(4) 0.2015(4) 0.9396(4)
O3D O 0.8476(4) 0.8290(3) 0.6550(4)
O3H O 0.6550(4) 0.8476(4) 0.8290(3)
O3A O 1.1710(3) 0.3450(4) 0.8476(4)
O3R O 0.6524(4) 0.6710(3) 1.1550(4)
O3S O 0.6524(4) 0.3290(3) 0.8450(4)
O4A O 1.0017(4) 0.6364(3) 0.7704(3)
O4R O 0.7296(3) 0.5017(4) 0.8636(3)
O4S O 0.7296(3) 0.4983(4) 1.1364(3)
O4D O 0.7704(3) 0.9983(4) 0.3636(3)
O4E O 0.7704(3) 1.0017(4) 0.6364(3)
O4V O 0.8636(3) 0.7296(3) 0.5017(4)
O4N O 0.5017(4) 0.8636(3) 0.7296(3)
O4P O 1.2704(3) 0.4983(4) 0.8636(3)
O4I O 0.6364(3) 0.7704(3) 1.0017(4)
O4K O 0.6364(3) 0.2296(3) 0.9983(4)
O5A O 1.1373(4) 0.4977(3) 0.7673(3)
O5R O 0.7327(3) 0.6373(4) 1.0023(3)
O5S O 0.7327(3) 0.3627(4) 0.9977(3)
O5D O 0.7673(3) 0.8627(4) 0.5023(3)
O5E O 0.7673(3) 1.1373(4) 0.4977(3)
O5H O 0.5023(3) 0.7673(3) 0.8627(4)
O6A O 1.2704(4) 0.2704(4) 0.7296(4)
O6M O 0.7704(4) 0.7704(4) 1.2296(4)
O6N O 0.7704(4) 0.2296(4) 0.7704(4)
C1A C 1.0616(5) 0.4983(4) 0.7702(4)
C1R C 0.7298(4) 0.5616(5) 1.0017(4)
C1S C 0.7298(4) 0.4384(5) 0.9983(4)
C1D C 0.7702(4) 0.9384(5) 0.5017(4)
C1E C 0.7702(4) 1.0616(5) 0.4983(4)
C2A C 1.0019(5) 0.5619(4) 0.7708(5)
C2R C 0.7292(5) 0.5019(5) 0.9381(4)
C2S C 0.7292(5) 0.4981(5) 1.0619(4)
C2D C 0.7708(5) 0.9981(5) 0.4381(4)
C2E C 0.7708(5) 1.0019(5) 0.5619(4)
loop_
_geom_bond_atom_site_label_1
_geom_bond_atom_site_label_2
_geom_bond_site_symmetry_1
_geom_bond_site_symmetry_2
U1 O1 1_555 1_555
O1 U1H 1_555 1_555
O2 U1 1_555 1_555
O3 U1 1_555 1_555
O4 C2 1_555 1_555
O5 U1 1_555 1_555
O6 U1 1_555 1_555
C1 O5 1_555 1_555
C2 C1 1_555 1_555
U1D O6 1_555 1_555
U1H O6 1_555 1_555
U1A O1A 1_555 1_555
U1R O1R 1_555 1_555
U1S O1S 1_555 1_555
U1U O4 1_555 1_555
U1V O4A 1_555 1_555
U1C O4S 1_555 1_555
U1M O4D 1_555 1_555
U1N O4E 1_555 1_555
U1E O5E 1_555 1_555
U1K O1A 1_555 1_555
U1F O1F 1_555 1_555
U1M_2 O1R 1_555 1_555
O1D U1 1_555 1_555
O1H U1D 1_555 1_555
O1F U1A 1_555 1_555
O1W U1R 1_555 1_555
O1U U1S 1_555 1_555
O2D U1D 1_555 1_555
O2H U1H 1_555 1_555
O2A U1A 1_555 1_555
O2R U1R 1_555 1_555
O2S U1S 1_555 1_555
O3D U1D 1_555 1_555
O3H U1H 1_555 1_555
O3A U1A 1_555 1_555
O3R U1R 1_555 1_555
O3S U1S 1_555 1_555
O4A C2A 1_555 1_555
O4R U1 1_555 1_555
O4S C2S 1_555 1_555
O4D C2D 1_555 1_555
O4E C2E 1_555 1_555
O4V U1D 1_555 1_555
O4N U1H 1_555 1_555
O4P U1A 1_555 1_555
O4I U1R 1_555 1_555
O4K U1S 1_555 1_555
O5A U1A 1_555 1_555
O5R U1R 1_555 1_555
O5S U1S 1_555 1_555
O5D U1D 1_555 1_555
O5E C1E 1_555 1_555
O5H U1H 1_555 1_555
O6A U1A 1_555 1_555
O6M U1R 1_555 1_555
O6N U1S 1_555 1_555
C1A C2 1_555 1_555
C1R O5R 1_555 1_555
C1S O5S 1_555 1_555
C1D O5D 1_555 1_555
C1E C2D 1_555 1_555
C2A C1 1_555 1_555
C2R O4R 1_555 1_555
C2S C1R 1_555 1_555
C2D C1D 1_555 1_555
C2E C1D 1_555 1_555
U1D O1D 1_555 1_555
U1H O1H 1_555 1_555
U1U O1U 1_555 1_555
U1U O6N 1_555 1_555
U1K O6A 1_555 1_555
U1F O6A 1_555 1_555
U1M_2 O6M 1_555 1_555
O5A C1A 1_555 1_555
C1A C2A 1_555 1_555
C1R C2R 1_555 1_555
C1S C2R 1_555 1_555
C1S C2S 1_555 1_555
C1E C2E 1_555 1_555

#END
