
#######################################################################
#
#                 Cambridge Crystallographic Data Centre
#                                CCDC 
#
#######################################################################
#
# If this CIF has been generated from an entry in the Cambridge 
# Structural Database, then it will include bibliographic, chemical, 
# crystal, experimental, refinement or atomic coordinate data resulting 
# from the CCDC's data processing and validation procedures.
#
#######################################################################

data_MAGBON
_symmetry_cell_setting           tetragonal
_symmetry_space_group_name_H-M   'I -4 2 d'
_symmetry_Int_Tables_number      122
_space_group_name_Hall           'I -4 2bw'
loop_
_symmetry_equiv_pos_site_id
_symmetry_equiv_pos_as_xyz
1 x,y,z
2 -x,-y,z
3 y,-x,-z
4 -y,x,-z
5 1/2-x,y,3/4-z
6 1/2+x,-y,3/4-z
7 1/2-y,-x,3/4+z
8 1/2+y,x,3/4+z
9 1/2+x,1/2+y,1/2+z
10 1/2-x,1/2-y,1/2+z
11 1/2+y,1/2-x,1/2-z
12 1/2-y,1/2+x,1/2-z
13 -x,1/2+y,1/4-z
14 x,1/2-y,1/4-z
15 -y,1/2-x,1/4+z
16 y,1/2+x,1/4+z
_cell_length_a                   18.450(4)
_cell_length_b                   18.450(4)
_cell_length_c                   23.201(7)
_cell_angle_alpha                90
_cell_angle_beta                 90
_cell_angle_gamma                90
_cell_volume                     7897.68
loop_
_atom_site_label
_atom_site_type_symbol
_atom_site_fract_x
_atom_site_fract_y
_atom_site_fract_z
Zn1 Zn 0.7500 0.87295(6) 0.8750
Zn2 Zn 0.73032(4) 0.72482(4) 0.97313(3)
C1 C 0.5453(3) 0.7350(4) 0.8528(3)
C2 C 0.5029(4) 0.7311(4) 0.9035(3)
H1 H 0.5256 0.7326 0.9393
C3 C 0.4284(4) 0.7251(4) 0.9008(3)
C4 C 0.3946(3) 0.7247(4) 0.8484(3)
H2 H 0.3443 0.7214 0.8467
C5 C 0.4342(4) 0.7290(4) 0.7976(3)
C6 C 0.5090(4) 0.7334(4) 0.8006(3)
H3 H 0.5355 0.7354 0.7666
C7 C 0.3866(4) 0.7230(5) 0.9562(3)
C8 C 0.3948(3) 0.7283(5) 0.7410(3)
O1 O 0.6587(3) 0.8222(3) 0.8619(2)
O2 O 0.6636(3) 0.7024(3) 0.9135(2)
O3 O 0.6727(3) 0.7071(3) 0.8047(2)
O4 O 0.3177(3) 0.7214(4) 0.9509(2)
O5 O 0.4173(3) 0.7274(4) 1.0021(2)
O6 O 0.3292(3) 0.7203(4) 0.7424(2)
O7 O 0.4322(2) 0.7396(3) 0.69570(18)
P1 P 0.64134(9) 0.74269(11) 0.85834(7)
Zn1G Zn 0.37295(6) 0.7500 0.6250
Zn1C Zn 1.12705(6) 0.7500 1.1250
Zn2D Zn 0.76968(4) 0.72482(4) 0.77687(3)
Zn2C Zn 0.27518(4) 0.73032(4) 1.02687(3)
Zn2G Zn 0.22482(4) 0.73032(4) 0.72313(3)
Zn2G_2 Zn 1.22482(4) 0.73032(4) 0.72313(3)
Zn2C_2 Zn 1.27518(4) 0.73032(4) 1.02687(3)
C1D C 0.9547(3) 0.7350(4) 0.8972(3)
C2D C 0.9971(4) 0.7311(4) 0.8465(3)
H1D H 0.9744 0.7326 0.8107
C3D C 1.0716(4) 0.7251(4) 0.8492(3)
C4D C 1.1054(3) 0.7247(4) 0.9016(3)
H2D H 1.1557 0.7214 0.9033
C5D C 1.0658(4) 0.7290(4) 0.9524(3)
C6D C 0.9910(4) 0.7334(4) 0.9494(3)
H3D H 0.9645 0.7354 0.9834
C7D C 1.1134(4) 0.7230(5) 0.7938(3)
C8D C 1.1052(3) 0.7283(5) 1.0090(3)
O1D O 0.8413(3) 0.8222(3) 0.8881(2)
O2D O 0.8364(3) 0.7024(3) 0.8365(2)
O3D O 0.8273(3) 0.7071(3) 0.9453(2)
O4D O 1.1823(3) 0.7214(4) 0.7991(2)
O4B O 0.7214(4) 0.6823(3) 1.0491(2)
O4F O 0.7786(4) 0.6823(3) 0.7009(2)
O5D O 1.0827(3) 0.7274(4) 0.7479(2)
O6D O 1.1708(3) 0.7203(4) 1.0076(2)
O6O O 0.7203(4) 0.8292(3) 0.9924(2)
O6K O 0.7797(4) 0.8292(3) 0.7576(2)
O7D O 1.0678(2) 0.7396(3) 1.05430(18)
O7K O 0.7604(3) 0.9322(2) 0.80430(18)
O7O O 0.7396(3) 0.9322(2) 0.94570(18)
P1D P 0.85866(9) 0.74269(11) 0.89166(7)
C9 C 0.5506(14) 0.787(2) 0.116(3)
H4 H 0.5694 0.7918 0.0776
H5 H 0.5808 0.8153 0.1422
C10 C 0.4770(14) 0.8125(18) 0.1188(12)
H6 H 0.4700 0.8447 0.1514
H7 H 0.4642 0.8380 0.0837
N1 N 0.4360(7) 0.7500 0.1250
H12 H 0.398(4) 0.734(6) 0.098(3)
C9M C 0.5506(14) 0.713(2) 0.134(3)
H4M H 0.5694 0.7082 0.1724
H5M H 0.5808 0.6847 0.1078
C10M C 0.4770(14) 0.6875(18) 0.1312(12)
H6M H 0.4700 0.6553 0.0986
H7M H 0.4642 0.6620 0.1663
H12M H 0.398(4) 0.766(6) 0.152(3)
O8 O 0.5619(16) 0.6636(18) 0.5768(10)
H8 H 0.5615 0.6197 0.5638
H9 H 0.6036 0.6829 0.5688
O9 O 0.5736(18) 0.9243(18) 0.7734(15)
H10 H 0.6103 0.8981 0.7643
H11 H 0.5680 0.9227 0.8102
O10 O 0.6488(16) 0.7500 0.6250
loop_
_geom_bond_atom_site_label_1
_geom_bond_atom_site_label_2
_geom_bond_site_symmetry_1
_geom_bond_site_symmetry_2
Zn1 O1 1_555 1_555
Zn2 O2 1_555 1_555
C1 C2 1_555 1_555
C2 H1 1_555 1_555
C3 C2 1_555 1_555
C4 C3 1_555 1_555
H2 C4 1_555 1_555
C5 C4 1_555 1_555
C6 C1 1_555 1_555
H3 C6 1_555 1_555
C7 C3 1_555 1_555
C8 C5 1_555 1_555
C9 H4 1_555 1_555
H5 C9 1_555 1_555
C10 C9 1_555 1_555
H6 C10 1_555 1_555
H7 C10 1_555 1_555
O1 P1 1_555 1_555
O2 P1 1_555 1_555
O3 P1 1_555 1_555
O4 C7 1_555 1_555
O5 C7 1_555 1_555
O6 C8 1_555 1_555
O7 C8 1_555 1_555
N1 C10 1_555 1_555
P1 C1 1_555 1_555
O8 H8 1_555 1_555
H9 O8 1_555 1_555
O9 H10 1_555 1_555
H11 O9 1_555 1_555
H12 N1 1_555 1_555
Zn1G O7 1_555 1_555
Zn1C O7D 1_555 1_555
Zn2D O3 1_555 1_555
Zn2C O4 1_555 1_555
Zn2G O6 1_555 1_555
Zn2G_2 O4D 1_555 1_555
Zn2C_2 O6D 1_555 1_555
C1D C2D 1_555 1_555
C2D H1D 1_555 1_555
C3D C2D 1_555 1_555
C4D C3D 1_555 1_555
H2D C4D 1_555 1_555
C5D C4D 1_555 1_555
C6D C1D 1_555 1_555
H3D C6D 1_555 1_555
C7D C3D 1_555 1_555
C8D C5D 1_555 1_555
C9M C9 1_555 1_555
H4M C9M 1_555 1_555
H5M C9M 1_555 1_555
C10M N1 1_555 1_555
H6M C10M 1_555 1_555
H7M C10M 1_555 1_555
O1D Zn1 1_555 1_555
O2D Zn2D 1_555 1_555
O3D Zn2 1_555 1_555
O4D C7D 1_555 1_555
O4B Zn2 1_555 1_555
O4F Zn2D 1_555 1_555
O5D C7D 1_555 1_555
O6D C8D 1_555 1_555
O6O Zn2 1_555 1_555
O6K Zn2D 1_555 1_555
O7D C8D 1_555 1_555
O7K Zn1 1_555 1_555
O7O Zn1 1_555 1_555
P1D C1D 1_555 1_555
H12M N1 1_555 1_555
C5 C6 1_555 1_555
C5D C6D 1_555 1_555
C9M C10M 1_555 1_555
O1D P1D 1_555 1_555
O2D P1D 1_555 1_555
O3D P1D 1_555 1_555

#END
