
#######################################################################
#
#                 Cambridge Crystallographic Data Centre
#                                CCDC 
#
#######################################################################
#
# If this CIF has been generated from an entry in the Cambridge 
# Structural Database, then it will include bibliographic, chemical, 
# crystal, experimental, refinement or atomic coordinate data resulting 
# from the CCDC's data processing and validation procedures.
#
#######################################################################

data_MAGBIH
_symmetry_cell_setting           monoclinic
_symmetry_space_group_name_H-M   'C 2/c'
_symmetry_Int_Tables_number      15
_space_group_name_Hall           '-C 2yn'
loop_
_symmetry_equiv_pos_site_id
_symmetry_equiv_pos_as_xyz
1 x,y,z
2 -x,y,1/2-z
3 1/2+x,1/2+y,z
4 1/2-x,1/2+y,1/2-z
5 -x,-y,-z
6 x,-y,1/2+z
7 1/2-x,1/2-y,-z
8 1/2+x,1/2-y,1/2+z
_cell_length_a                   28.54(2)
_cell_length_b                   12.983(7)
_cell_length_c                   15.834(9)
_cell_angle_alpha                90
_cell_angle_beta                 106.104(13)
_cell_angle_gamma                90
_cell_volume                     5636.82
loop_
_atom_site_label
_atom_site_type_symbol
_atom_site_fract_x
_atom_site_fract_y
_atom_site_fract_z
Zn1 Zn 0.5000 0.11321(6) 1.2500
Zn2 Zn 0.31811(2) 0.36395(4) 1.08244(3)
Zn3 Zn 0.30689(2) 0.10905(4) 1.06775(3)
C1 C 0.41965(19) 0.2115(4) 1.0026(3)
C2 C 0.43076(18) 0.1154(4) 0.9741(3)
H1 H 0.4307 0.0581 1.0093
C3 C 0.44184(19) 0.1026(4) 0.8954(3)
C4 C 0.4402(2) 0.1868(4) 0.8426(4)
H2 H 0.4471 0.1790 0.7889
C5 C 0.4286(2) 0.2833(4) 0.8677(3)
C6 C 0.41823(19) 0.2945(4) 0.9478(3)
H3 H 0.4102 0.3592 0.9647
C7 C 0.4554(2) -0.0026(4) 0.8687(4)
C8 C 0.4278(2) 0.3740(5) 0.8104(4)
C9 C 0.28622(18) 0.2531(3) 0.7974(3)
C10 C 0.28840(17) 0.1673(3) 0.7472(3)
H4 H 0.2836 0.1022 0.7679
C11 C 0.29762(18) 0.1773(3) 0.6660(3)
C12 C 0.30391(18) 0.2745(4) 0.6348(3)
H5 H 0.3095 0.2816 0.5799
C13 C 0.30195(18) 0.3611(3) 0.6845(3)
C14 C 0.29273(18) 0.3498(3) 0.7648(3)
H6 H 0.2908 0.4080 0.7979
C15 C 0.30083(19) 0.0837(4) 0.6127(3)
C16 C 0.30967(19) 0.4675(4) 0.6537(3)
O1 O 0.45856(13) 0.2116(3) 1.1757(2)
O2 O 0.38666(12) 0.3253(2) 1.1176(2)
O3 O 0.37623(12) 0.1297(2) 1.1167(2)
O4 O 0.44938(16) -0.0799(3) 0.9089(3)
O5 O 0.47273(16) -0.0030(3) 0.8042(3)
O6 O 0.43356(19) 0.3518(3) 0.7337(3)
O7 O 0.4231(2) 0.4605(3) 0.8323(3)
O8 O 0.29834(12) 0.3370(2) 0.95501(18)
O9 O 0.28850(12) 0.1414(2) 0.94277(18)
O10 O 0.21745(12) 0.2583(2) 0.88473(18)
O11 O 0.28876(13) -0.0014(2) 0.6390(2)
O12 O 0.31544(15) 0.0903(3) 0.5461(2)
O13 O 0.31593(14) 0.4787(2) 0.5780(2)
O14 O 0.31061(15) 0.5436(2) 0.7014(2)
P1 P 0.40904(5) 0.21937(10) 1.10915(8)
P2 P 0.27331(5) 0.24619(9) 0.90248(7)
H25 H 0.434(3) 0.402(4) 0.698(4)
Zn1D Zn 0.5000 -0.11321(6) 0.7500
Zn1D_2 Zn 0.5000 -0.11321(6) 1.7500
Zn2A Zn 0.68189(2) 0.36395(4) 1.41756(3)
Zn2F Zn 0.18189(2) 0.13605(4) 0.91756(3)
Zn2E Zn 0.31811(2) 0.63605(4) 0.58244(3)
Zn2C Zn 0.18189(2) -0.13605(4) 1.41756(3)
Zn3A Zn 0.69311(2) 0.10905(4) 1.43225(3)
Zn3F Zn 0.19311(2) 0.39095(4) 0.93225(3)
Zn3E Zn 0.30689(2) -0.10905(4) 0.56775(3)
Zn3C Zn 0.19311(2) 0.60905(4) 1.43225(3)
C1A C 0.58035(19) 0.2115(4) 1.4974(3)
C2A C 0.56924(18) 0.1154(4) 1.5259(3)
H1A H 0.5693 0.0581 1.4907
C3A C 0.55816(19) 0.1026(4) 1.6046(3)
C4A C 0.5598(2) 0.1868(4) 1.6574(4)
H2A H 0.5529 0.1790 1.7111
C5A C 0.5714(2) 0.2833(4) 1.6323(3)
C6A C 0.58177(19) 0.2945(4) 1.5522(3)
H3A H 0.5898 0.3592 1.5353
C7A C 0.5446(2) -0.0026(4) 1.6313(4)
C8A C 0.5722(2) 0.3740(5) 1.6896(4)
C9F C 0.21378(18) 0.2469(3) 1.2026(3)
C10F C 0.21160(17) 0.3327(3) 1.2528(3)
H4F H 0.2164 0.3978 1.2321
C11F C 0.20238(18) 0.3227(3) 1.3340(3)
C12F C 0.19609(18) 0.2255(4) 1.3652(3)
H5F H 0.1905 0.2184 1.4201
C13F C 0.19805(18) 0.1389(3) 1.3155(3)
C14F C 0.20727(18) 0.1502(3) 1.2352(3)
H6F H 0.2092 0.0920 1.2021
C15F C 0.19917(19) 0.4163(4) 1.3873(3)
C16F C 0.19033(19) 0.0325(4) 1.3463(3)
O1A O 0.54144(13) 0.2116(3) 1.3243(2)
O2A O 0.61334(12) 0.3253(2) 1.3824(2)
O3A O 0.62377(12) 0.1297(2) 1.3833(2)
O4A O 0.55062(16) -0.0799(3) 1.5911(3)
O5A O 0.52727(16) -0.0030(3) 1.6958(3)
O5D O 0.52727(16) 0.0030(3) 1.1958(3)
O5E O 0.47273(16) 0.0030(3) 1.3042(3)
O6A O 0.56644(19) 0.3518(3) 1.7663(3)
O7A O 0.5769(2) 0.4605(3) 1.6677(3)
O8F O 0.20166(12) 0.1630(2) 1.04499(18)
O8A O 0.70166(12) 0.3370(2) 1.54499(18)
O9F O 0.21150(12) 0.3586(2) 1.05723(18)
O9A O 0.71150(12) 0.1414(2) 1.55723(18)
O10F O 0.28255(12) 0.2417(2) 1.11527(18)
O10G O 0.71745(12) 0.2417(2) 1.38473(18)
O11F O 0.21124(13) 0.5014(2) 1.3610(2)
O11E O 0.28876(13) 0.0014(2) 1.1390(2)
O11D O 0.71124(13) 0.0014(2) 1.3610(2)
O12F O 0.18456(15) 0.4097(3) 1.4539(2)
O13F O 0.18407(14) 0.0213(2) 1.4220(2)
O13E O 0.31593(14) 0.5213(2) 1.0780(2)
O13D O 0.68407(14) 0.5213(2) 1.4220(2)
O14F O 0.18939(15) -0.0436(2) 1.2986(2)
O14E O 0.31061(15) 0.4564(2) 1.2014(2)
O14D O 0.68939(15) 0.4564(2) 1.2986(2)
P1A P 0.59096(5) 0.21937(10) 1.39085(8)
P2F P 0.22669(5) 0.25381(9) 1.09752(7)
H25A H 0.566(3) 0.402(4) 1.802(4)
C17 C 0.3426(2) 0.1909(5) 0.3827(4)
H7 H 0.3167 0.2323 0.3943
H8 H 0.3286 0.1254 0.3588
C18 C 0.3627(3) 0.2447(5) 0.3170(4)
H9 H 0.3860 0.2000 0.3005
H10 H 0.3365 0.2592 0.2645
C19 C 0.4067(3) 0.2689(5) 0.5028(5)
H11 H 0.4332 0.2524 0.5544
H12 H 0.3845 0.3153 0.5206
C20 C 0.4266(3) 0.3200(6) 0.4350(6)
H13 H 0.4422 0.3843 0.4584
H14 H 0.4510 0.2759 0.4216
N1 N 0.38061(18) 0.1732(4) 0.4651(3)
H15 H 0.4042 0.1327 0.4546
H16 H 0.3709 0.1421 0.5086
N2 N 0.3868(3) 0.3410(4) 0.3525(4)
H17 H 0.3692 0.3807 0.3798
H18 H 0.3828 0.3708 0.2993
O15 O 0.31623(19) 0.5682(4) 0.9126(3)
H19 H 0.3439 0.5346 0.9303
H20 H 0.3097 0.5752 0.8565
O16 O 0.42258(19) 0.0783(4) 0.6280(3)
H21 H 0.4201 -0.0064 0.6119
H22 H 0.4511 0.0935 0.6718
O17 O 0.5223(5) 0.3795(9) 0.2000(8)
O18 O 0.44388(17) 0.5005(3) 0.1291(3)
H23 H 0.4595 0.5043 0.0906
H24 H 0.4202 0.4576 0.1130
O19 O 0.5000 0.5000 0.0000
loop_
_geom_bond_atom_site_label_1
_geom_bond_atom_site_label_2
_geom_bond_site_symmetry_1
_geom_bond_site_symmetry_2
Zn1 O1 1_555 1_555
Zn2 O2 1_555 1_555
Zn3 O3 1_555 1_555
C1 C2 1_555 1_555
C2 H1 1_555 1_555
C3 C2 1_555 1_555
C4 C3 1_555 1_555
H2 C4 1_555 1_555
C5 C4 1_555 1_555
C6 C1 1_555 1_555
H3 C6 1_555 1_555
C7 C3 1_555 1_555
C8 C5 1_555 1_555
C9 C10 1_555 1_555
C10 H4 1_555 1_555
C11 C10 1_555 1_555
C12 C11 1_555 1_555
H5 C12 1_555 1_555
C13 C12 1_555 1_555
C14 C9 1_555 1_555
H6 C14 1_555 1_555
C15 C11 1_555 1_555
C16 C13 1_555 1_555
C17 H7 1_555 1_555
H8 C17 1_555 1_555
C18 C17 1_555 1_555
H9 C18 1_555 1_555
H10 C18 1_555 1_555
C19 H11 1_555 1_555
H12 C19 1_555 1_555
C20 C19 1_555 1_555
H13 C20 1_555 1_555
H14 C20 1_555 1_555
N1 C17 1_555 1_555
H15 N1 1_555 1_555
H16 N1 1_555 1_555
N2 C18 1_555 1_555
H17 N2 1_555 1_555
H18 N2 1_555 1_555
O1 P1 1_555 1_555
O2 P1 1_555 1_555
O3 P1 1_555 1_555
O4 C7 1_555 1_555
O5 C7 1_555 1_555
O6 C8 1_555 1_555
O7 C8 1_555 1_555
O8 Zn2 1_555 1_555
O9 Zn3 1_555 1_555
O10 P2 1_555 1_555
O11 C15 1_555 1_555
O12 C15 1_555 1_555
O13 C16 1_555 1_555
O14 C16 1_555 1_555
O15 H19 1_555 1_555
H20 O15 1_555 1_555
O16 H21 1_555 1_555
H22 O16 1_555 1_555
O18 H23 1_555 1_555
H24 O18 1_555 1_555
P1 C1 1_555 1_555
P2 C9 1_555 1_555
H25 O6 1_555 1_555
Zn1D O5 1_555 1_555
Zn1D_2 O5A 1_555 1_555
Zn2A O2A 1_555 1_555
Zn2F O10 1_555 1_555
Zn2E O13 1_555 1_555
Zn2C O13F 1_555 1_555
Zn3A O3A 1_555 1_555
Zn3F O10 1_555 1_555
Zn3E O11 1_555 1_555
Zn3C O11F 1_555 1_555
C1A C2A 1_555 1_555
C2A H1A 1_555 1_555
C3A C2A 1_555 1_555
C4A C3A 1_555 1_555
H2A C4A 1_555 1_555
C5A C4A 1_555 1_555
C6A C1A 1_555 1_555
H3A C6A 1_555 1_555
C7A C3A 1_555 1_555
C8A C5A 1_555 1_555
C9F C10F 1_555 1_555
C10F H4F 1_555 1_555
C11F C10F 1_555 1_555
C12F C11F 1_555 1_555
H5F C12F 1_555 1_555
C13F C12F 1_555 1_555
C14F C9F 1_555 1_555
H6F C14F 1_555 1_555
C15F C11F 1_555 1_555
C16F C13F 1_555 1_555
O1A Zn1 1_555 1_555
O2A P1A 1_555 1_555
O3A P1A 1_555 1_555
O4A C7A 1_555 1_555
O5A C7A 1_555 1_555
O5D Zn1 1_555 1_555
O5E Zn1 1_555 1_555
O6A C8A 1_555 1_555
O7A C8A 1_555 1_555
O8F Zn2F 1_555 1_555
O8A Zn2A 1_555 1_555
O9F Zn3F 1_555 1_555
O9A Zn3A 1_555 1_555
O10F Zn2 1_555 1_555
O10G Zn2A 1_555 1_555
O11F C15F 1_555 1_555
O11E Zn3 1_555 1_555
O11D Zn3A 1_555 1_555
O12F C15F 1_555 1_555
O13F C16F 1_555 1_555
O13E Zn2 1_555 1_555
O13D Zn2A 1_555 1_555
O14F Zn2C 1_555 1_555
O14E Zn2 1_555 1_555
O14D Zn2A 1_555 1_555
P1A C1A 1_555 1_555
P2F C9F 1_555 1_555
H25A O6A 1_555 1_555
Zn3 O10F 1_555 1_555
C5 C6 1_555 1_555
C13 C14 1_555 1_555
C19 N1 1_555 1_555
C20 N2 1_555 1_555
O8 P2 1_555 1_555
O9 P2 1_555 1_555
O14 Zn2E 1_555 1_555
Zn3A O10G 1_555 1_555
C5A C6A 1_555 1_555
C13F C14F 1_555 1_555
C16F O14F 1_555 1_555
O1A P1A 1_555 1_555
O8F P2F 1_555 1_555
O9F P2F 1_555 1_555
O10F P2F 1_555 1_555

#END
