
#######################################################################
#
#                 Cambridge Crystallographic Data Centre
#                                CCDC 
#
#######################################################################
#
# If this CIF has been generated from an entry in the Cambridge 
# Structural Database, then it will include bibliographic, chemical, 
# crystal, experimental, refinement or atomic coordinate data resulting 
# from the CCDC's data processing and validation procedures.
#
#######################################################################

data_MAGVOG26
_symmetry_cell_setting           monoclinic
_symmetry_space_group_name_H-M   'C 2/c'
_symmetry_Int_Tables_number      15
_space_group_name_Hall           '-C 2yn'
loop_
_symmetry_equiv_pos_site_id
_symmetry_equiv_pos_as_xyz
1 x,y,z
2 -x,y,1/2-z
3 1/2+x,1/2+y,z
4 1/2-x,1/2+y,1/2-z
5 -x,-y,-z
6 x,-y,1/2+z
7 1/2-x,1/2-y,-z
8 1/2+x,1/2-y,1/2+z
_cell_length_a                   10.2551(3)
_cell_length_b                   10.6342(2)
_cell_length_c                   6.2296(2)
_cell_angle_alpha                90
_cell_angle_beta                 114.568(4)
_cell_angle_gamma                90
_cell_volume                     617.863
loop_
_atom_site_label
_atom_site_type_symbol
_atom_site_fract_x
_atom_site_fract_y
_atom_site_fract_z
Ag1 Ag 0.5000 0.0000 0.5000
C1 C 0.3177(2) 0.2110(2) 0.5454(5)
H1 H 0.4006 0.2660 0.5696
H2 H 0.3329 0.1741 0.6999
N1 N 0.3108(2) 0.1091(2) 0.3802(4)
H3 H 0.2950 0.1436 0.2360
H4 H 0.2344 0.0576 0.3595
C1F C 0.1823(2) 0.2890(2) 0.4546(5)
H1F H 0.0994 0.2340 0.4304
H2F H 0.1671 0.3259 0.3001
N1F N 0.1892(2) 0.3909(2) 0.6198(4)
H3F H 0.2050 0.3564 0.7640
H4F H 0.2656 0.4424 0.6405
Ag1A Ag 0.5000 0.0000 0.0000
Ag1A_2 Ag 0.5000 0.0000 1.0000
Ag1B Ag 0.0000 0.5000 0.5000
N1D N 0.6892(2) -0.1091(2) 0.6198(4)
N2 N 0.0000 0.1067(4) 0.7500
O1 O 0.1129(3) 0.1650(3) 0.8598(5)
O2 O 0.0000 -0.0085(4) 0.7500
O1A O -0.1129(3) 0.1650(3) 0.6402(5)
loop_
_geom_bond_atom_site_label_1
_geom_bond_atom_site_label_2
_geom_bond_site_symmetry_1
_geom_bond_site_symmetry_2
Ag1 N1 1_555 1_555
C1 H1 1_555 1_555
H2 C1 1_555 1_555
N1 C1 1_555 1_555
H3 N1 1_555 1_555
H4 N1 1_555 1_555
N2 O1 1_555 1_555
O2 N2 1_555 1_555
C1F C1 1_555 1_555
H1F C1F 1_555 1_555
H2F C1F 1_555 1_555
N1F C1F 1_555 1_555
H3F N1F 1_555 1_555
H4F N1F 1_555 1_555
Ag1A Ag1 1_555 1_555
Ag1A_2 Ag1 1_555 1_555
Ag1B N1F 1_555 1_555
N1D Ag1 1_555 1_555
O1A N2 1_555 1_555

#END
