
#######################################################################
#
#                 Cambridge Crystallographic Data Centre
#                                CCDC 
#
#######################################################################
#
# If this CIF has been generated from an entry in the Cambridge 
# Structural Database, then it will include bibliographic, chemical, 
# crystal, experimental, refinement or atomic coordinate data resulting 
# from the CCDC's data processing and validation procedures.
#
#######################################################################

data_MAGVOG17
_symmetry_cell_setting           monoclinic
_symmetry_space_group_name_H-M   'C 2/c'
_symmetry_Int_Tables_number      15
_space_group_name_Hall           '-C 2yn'
loop_
_symmetry_equiv_pos_site_id
_symmetry_equiv_pos_as_xyz
1 x,y,z
2 -x,y,1/2-z
3 1/2+x,1/2+y,z
4 1/2-x,1/2+y,1/2-z
5 -x,-y,-z
6 x,-y,1/2+z
7 1/2-x,1/2-y,-z
8 1/2+x,1/2-y,1/2+z
_cell_length_a                   10.4488(4)
_cell_length_b                   10.5041(2)
_cell_length_c                   6.3065(2)
_cell_angle_alpha                90
_cell_angle_beta                 115.272(4)
_cell_angle_gamma                90
_cell_volume                     625.925
loop_
_atom_site_label
_atom_site_type_symbol
_atom_site_fract_x
_atom_site_fract_y
_atom_site_fract_z
Ag1 Ag 0.5000 0.0000 0.5000
C1 C 0.3159(3) 0.2099(2) 0.5463(4)
H1 H 0.3972 0.2645 0.5808
H2 H 0.3267 0.1702 0.6919
N1 N 0.3138(3) 0.1108(2) 0.3816(4)
H3 H 0.3002 0.1478 0.2449
H4 H 0.2397 0.0589 0.3536
C1F C 0.1841(3) 0.2901(2) 0.4537(4)
H1F H 0.1028 0.2355 0.4192
H2F H 0.1733 0.3298 0.3081
N1F N 0.1862(3) 0.3892(2) 0.6184(4)
H3F H 0.1998 0.3522 0.7551
H4F H 0.2603 0.4411 0.6464
Ag1A Ag 0.5000 0.0000 0.0000
Ag1A_2 Ag 0.5000 0.0000 1.0000
Ag1B Ag 0.0000 0.5000 0.5000
N1D N 0.6862(3) -0.1108(2) 0.6184(4)
N2 N 0.0000 0.1084(4) 0.7500
O1 O 0.1101(4) 0.1637(4) 0.8588(5)
O2 O 0.0000 -0.0069(4) 0.7500
O1A O -0.1101(4) 0.1637(4) 0.6412(5)
loop_
_geom_bond_atom_site_label_1
_geom_bond_atom_site_label_2
_geom_bond_site_symmetry_1
_geom_bond_site_symmetry_2
Ag1 N1 1_555 1_555
C1 H1 1_555 1_555
H2 C1 1_555 1_555
N1 C1 1_555 1_555
H3 N1 1_555 1_555
H4 N1 1_555 1_555
N2 O1 1_555 1_555
O2 N2 1_555 1_555
C1F C1 1_555 1_555
H1F C1F 1_555 1_555
H2F C1F 1_555 1_555
N1F C1F 1_555 1_555
H3F N1F 1_555 1_555
H4F N1F 1_555 1_555
Ag1A Ag1 1_555 1_555
Ag1A_2 Ag1 1_555 1_555
Ag1B N1F 1_555 1_555
N1D Ag1 1_555 1_555
O1A N2 1_555 1_555

#END
