
#######################################################################
#
#                 Cambridge Crystallographic Data Centre
#                                CCDC 
#
#######################################################################
#
# If this CIF has been generated from an entry in the Cambridge 
# Structural Database, then it will include bibliographic, chemical, 
# crystal, experimental, refinement or atomic coordinate data resulting 
# from the CCDC's data processing and validation procedures.
#
#######################################################################

data_MAGVOG06
_symmetry_cell_setting           monoclinic
_symmetry_space_group_name_H-M   'C 2/c'
_symmetry_Int_Tables_number      15
_space_group_name_Hall           '-C 2yn'
loop_
_symmetry_equiv_pos_site_id
_symmetry_equiv_pos_as_xyz
1 x,y,z
2 -x,y,1/2-z
3 1/2+x,1/2+y,z
4 1/2-x,1/2+y,1/2-z
5 -x,-y,-z
6 x,-y,1/2+z
7 1/2-x,1/2-y,-z
8 1/2+x,1/2-y,1/2+z
_cell_length_a                   10.632(13)
_cell_length_b                   10.219(11)
_cell_length_c                   6.115(4)
_cell_angle_alpha                90
_cell_angle_beta                 114.46(12)
_cell_angle_gamma                90
_cell_volume                     604.757
loop_
_atom_site_label
_atom_site_type_symbol
_atom_site_fract_x
_atom_site_fract_y
_atom_site_fract_z
Ag1 Ag 0.5000 0.0000 0.5000
C1 C 0.315(2) 0.2139(13) 0.536(4)
H1 H 0.3437 0.1820 0.6986
H2 H 0.3861 0.2720 0.5321
N1 N 0.2980(9) 0.1030(14) 0.373(5)
H3 H 0.2730 0.1318 0.2214
H4 H 0.2321 0.0483 0.3749
C1F C 0.185(2) 0.2861(13) 0.464(4)
H1F H 0.1563 0.3180 0.3014
H2F H 0.1139 0.2280 0.4679
N1F N 0.2020(9) 0.3970(14) 0.627(5)
H3F H 0.2270 0.3682 0.7786
H4F H 0.2679 0.4517 0.6251
Ag1A Ag 0.5000 0.0000 0.0000
Ag1A_2 Ag 0.5000 0.0000 1.0000
Ag1B Ag 0.0000 0.5000 0.5000
N1D N 0.7020(9) -0.1030(14) 0.627(5)
N2 N 0.0000 0.103(3) 0.7500
O1 O 0.1100(11) 0.160(2) 0.849(5)
O2 O 0.0000 -0.016(2) 0.7500
O1A O -0.1100(11) 0.160(2) 0.651(5)
loop_
_geom_bond_atom_site_label_1
_geom_bond_atom_site_label_2
_geom_bond_site_symmetry_1
_geom_bond_site_symmetry_2
Ag1 N1 1_555 1_555
C1 H1 1_555 1_555
H2 C1 1_555 1_555
N1 C1 1_555 1_555
H3 N1 1_555 1_555
H4 N1 1_555 1_555
N2 O1 1_555 1_555
O2 N2 1_555 1_555
C1F C1 1_555 1_555
H1F C1F 1_555 1_555
H2F C1F 1_555 1_555
N1F C1F 1_555 1_555
H3F N1F 1_555 1_555
H4F N1F 1_555 1_555
Ag1A Ag1 1_555 1_555
Ag1A_2 Ag1 1_555 1_555
Ag1B N1F 1_555 1_555
N1D Ag1 1_555 1_555
O1A N2 1_555 1_555

#END
