
#######################################################################
#
#                 Cambridge Crystallographic Data Centre
#                                CCDC 
#
#######################################################################
#
# If this CIF has been generated from an entry in the Cambridge 
# Structural Database, then it will include bibliographic, chemical, 
# crystal, experimental, refinement or atomic coordinate data resulting 
# from the CCDC's data processing and validation procedures.
#
#######################################################################

data_MAGVOG08
_symmetry_cell_setting           monoclinic
_symmetry_space_group_name_H-M   'C 2/c'
_symmetry_Int_Tables_number      15
_space_group_name_Hall           '-C 2yn'
loop_
_symmetry_equiv_pos_site_id
_symmetry_equiv_pos_as_xyz
1 x,y,z
2 -x,y,1/2-z
3 1/2+x,1/2+y,z
4 1/2-x,1/2+y,1/2-z
5 -x,-y,-z
6 x,-y,1/2+z
7 1/2-x,1/2-y,-z
8 1/2+x,1/2-y,1/2+z
_cell_length_a                   20.878(5)
_cell_length_b                   19.789(4)
_cell_length_c                   6.1653(7)
_cell_angle_alpha                90
_cell_angle_beta                 114.429(15)
_cell_angle_gamma                90
_cell_volume                     2319.18
loop_
_atom_site_label
_atom_site_type_symbol
_atom_site_fract_x
_atom_site_fract_y
_atom_site_fract_z
Ag1 Ag 0.5000 0.0000 0.0000
Ag2 Ag 0.7500 0.2500 0.0000
Ag3 Ag 0.7500 0.2500 0.5000
Ag4 Ag 1.0000 0.0000 0.5000
N1 N 0.6004(14) 0.0473(8) 0.116(3)
H1 H 0.6152 0.0596 0.2693
H2 H 0.6317 0.0177 0.1049
N2 N 0.6669(19) 0.1988(12) -0.102(5)
H3 H 0.6315 0.2264 -0.1127
H4 H 0.6571 0.1833 -0.2497
N3 N 0.8494(10) 0.1963(5) 0.6192(19)
H5 H 0.8839 0.2247 0.6271
H6 H 0.8605 0.1786 0.7648
N4 N 0.9096(12) 0.0546(7) 0.388(3)
H7 H 0.9011 0.0729 0.2446
H8 H 0.8736 0.0268 0.3692
C1 C 0.5968(10) 0.1065(7) -0.029(3)
H9 H 0.5632 0.1384 -0.0164
H10 H 0.5805 0.0932 -0.1943
C2 C 0.6676(11) 0.1403(8) 0.050(3)
H11 H 0.6826 0.1556 0.2133
H12 H 0.7017 0.1074 0.0472
C3 C 0.8407(7) 0.1415(5) 0.443(2)
H13 H 0.8311 0.1594 0.2862
H14 H 0.8039 0.1100 0.4320
C4 C 0.9127(8) 0.1095(6) 0.557(2)
H15 H 0.9492 0.1420 0.5727
H16 H 0.9215 0.0913 0.7126
N1D N 0.3996(14) -0.0473(8) -0.116(3)
H1D H 0.3848 -0.0596 -0.2693
H2D H 0.3683 -0.0177 -0.1049
N2D N 0.3331(19) -0.1988(12) 0.102(5)
H3D H 0.3685 -0.2264 0.1127
H4D H 0.3429 -0.1833 0.2497
C1D C 0.4032(10) -0.1065(7) 0.029(3)
H9D H 0.4368 -0.1384 0.0164
H10D H 0.4195 -0.0932 0.1943
C2D C 0.3324(11) -0.1403(8) -0.050(3)
H11D H 0.3174 -0.1556 -0.2133
H12D H 0.2983 -0.1074 -0.0472
N3F N 0.6506(10) 0.3037(5) 0.3808(19)
H5F H 0.6161 0.2753 0.3729
H6F H 0.6395 0.3214 0.2352
N4F N 0.5904(12) 0.4454(7) 0.612(3)
H7F H 0.5989 0.4271 0.7554
H8F H 0.6264 0.4732 0.6308
C3F C 0.6593(7) 0.3585(5) 0.557(2)
H13F H 0.6689 0.3406 0.7138
H14F H 0.6961 0.3900 0.5680
C4F C 0.5873(8) 0.3905(6) 0.443(2)
H15F H 0.5508 0.3580 0.4273
H16F H 0.5785 0.4087 0.2874
Ag1A Ag 0.5000 0.0000 -0.5000
Ag1A_2 Ag 0.5000 0.0000 0.5000
Ag2_2 Ag 0.7500 0.2500 1.0000
Ag2B Ag 0.2500 -0.2500 0.0000
Ag3_2 Ag 0.7500 0.2500 -0.5000
Ag4A Ag 1.0000 0.0000 0.0000
Ag4A_2 Ag 1.0000 0.0000 1.0000
Ag4B Ag 0.5000 0.5000 0.5000
N2F N 0.8331(19) 0.3012(12) 0.102(5)
N4D N 1.0904(12) -0.0546(7) 0.612(3)
N5 N 0.7509(9) 0.0712(7) 0.738(3)
O1 O 0.8056(10) 0.1001(10) 0.840(5)
O2 O 0.6969(9) 0.1015(8) 0.645(5)
O3 O 0.7498(11) 0.0097(7) 0.744(3)
N6 N 0.0000 0.3153(11) 0.7500
O4 O 0.0561(6) 0.3438(10) 0.848(5)
O5 O 0.0000 0.2541(10) 0.7500
O4A O -0.0561(6) 0.3438(10) 0.652(5)
N7 N 0.0000 0.8278(9) 0.7500
O6 O 0.0554(6) 0.8569(8) 0.852(4)
O7 O 0.0000 0.7665(9) 0.7500
O6A O -0.0554(6) 0.8569(8) 0.648(4)
loop_
_geom_bond_atom_site_label_1
_geom_bond_atom_site_label_2
_geom_bond_site_symmetry_1
_geom_bond_site_symmetry_2
Ag1 N1 1_555 1_555
Ag2 Ag3 1_555 1_555
Ag3 N3 1_555 1_555
Ag4 N4 1_555 1_555
N1 H1 1_555 1_555
H2 N1 1_555 1_555
N2 Ag2 1_555 1_555
H3 N2 1_555 1_555
H4 N2 1_555 1_555
N3 H5 1_555 1_555
H6 N3 1_555 1_555
N4 H7 1_555 1_555
H8 N4 1_555 1_555
C1 N1 1_555 1_555
H9 C1 1_555 1_555
H10 C1 1_555 1_555
C2 N2 1_555 1_555
H11 C2 1_555 1_555
H12 C2 1_555 1_555
C3 N3 1_555 1_555
H13 C3 1_555 1_555
H14 C3 1_555 1_555
C4 N4 1_555 1_555
H15 C4 1_555 1_555
H16 C4 1_555 1_555
N5 O1 1_555 1_555
O2 N5 1_555 1_555
O3 N5 1_555 1_555
N6 O4 1_555 1_555
O5 N6 1_555 1_555
N7 O6 1_555 1_555
O7 N7 1_555 1_555
N1D Ag1 1_555 1_555
H1D N1D 1_555 1_555
H2D N1D 1_555 1_555
N2D H3D 1_555 1_555
H4D N2D 1_555 1_555
C1D N1D 1_555 1_555
H9D C1D 1_555 1_555
H10D C1D 1_555 1_555
C2D N2D 1_555 1_555
H11D C2D 1_555 1_555
H12D C2D 1_555 1_555
N3F Ag3 1_555 1_555
H5F N3F 1_555 1_555
H6F N3F 1_555 1_555
N4F H7F 1_555 1_555
H8F N4F 1_555 1_555
C3F N3F 1_555 1_555
H13F C3F 1_555 1_555
H14F C3F 1_555 1_555
C4F N4F 1_555 1_555
H15F C4F 1_555 1_555
H16F C4F 1_555 1_555
Ag1A Ag1 1_555 1_555
Ag1A_2 Ag1 1_555 1_555
Ag2_2 Ag3 1_555 1_555
Ag2B N2D 1_555 1_555
Ag3_2 Ag2 1_555 1_555
Ag4A Ag4 1_555 1_555
Ag4A_2 Ag4 1_555 1_555
Ag4B N4F 1_555 1_555
N2F Ag2 1_555 1_555
N4D Ag4 1_555 1_555
O4A N6 1_555 1_555
O6A N7 1_555 1_555
C1 C2 1_555 1_555
C3 C4 1_555 1_555
C1D C2D 1_555 1_555
C3F C4F 1_555 1_555

#END
