
#######################################################################
#
#                 Cambridge Crystallographic Data Centre
#                                CCDC 
#
#######################################################################
#
# If this CIF has been generated from an entry in the Cambridge 
# Structural Database, then it will include bibliographic, chemical, 
# crystal, experimental, refinement or atomic coordinate data resulting 
# from the CCDC's data processing and validation procedures.
#
#######################################################################

data_MAGVOG04
_symmetry_cell_setting           monoclinic
_symmetry_space_group_name_H-M   'C 2/c'
_symmetry_Int_Tables_number      15
_space_group_name_Hall           '-C 2yn'
loop_
_symmetry_equiv_pos_site_id
_symmetry_equiv_pos_as_xyz
1 x,y,z
2 -x,y,1/2-z
3 1/2+x,1/2+y,z
4 1/2-x,1/2+y,1/2-z
5 -x,-y,-z
6 x,-y,1/2+z
7 1/2-x,1/2-y,-z
8 1/2+x,1/2-y,1/2+z
_cell_length_a                   10.574(11)
_cell_length_b                   10.345(12)
_cell_length_c                   6.166(4)
_cell_angle_alpha                90
_cell_angle_beta                 114.85(9)
_cell_angle_gamma                90
_cell_volume                     612.037
loop_
_atom_site_label
_atom_site_type_symbol
_atom_site_fract_x
_atom_site_fract_y
_atom_site_fract_z
Ag1 Ag 0.5000 0.0000 0.5000
C1 C 0.3161(19) 0.2117(17) 0.548(2)
H1 H 0.3323 0.1757 0.7026
H2 H 0.3942 0.2672 0.5676
N1 N 0.3039(8) 0.1073(9) 0.3793(18)
H3 H 0.2829 0.1408 0.2335
H4 H 0.2347 0.0534 0.3683
C1F C 0.1839(19) 0.2883(17) 0.452(2)
H1F H 0.1677 0.3243 0.2974
H2F H 0.1058 0.2328 0.4324
N1F N 0.1961(8) 0.3927(9) 0.6207(18)
H3F H 0.2171 0.3592 0.7665
H4F H 0.2653 0.4466 0.6317
Ag1A Ag 0.5000 0.0000 0.0000
Ag1A_2 Ag 0.5000 0.0000 1.0000
Ag1B Ag 0.0000 0.5000 0.5000
N1D N 0.6961(8) -0.1073(9) 0.6207(18)
N2 N 0.0000 0.1043(19) 0.7500
O1 O 0.1094(12) 0.1613(19) 0.862(2)
O2 O 0.0000 -0.0132(18) 0.7500
O1A O -0.1094(12) 0.1613(19) 0.638(2)
loop_
_geom_bond_atom_site_label_1
_geom_bond_atom_site_label_2
_geom_bond_site_symmetry_1
_geom_bond_site_symmetry_2
Ag1 N1 1_555 1_555
C1 H1 1_555 1_555
H2 C1 1_555 1_555
N1 C1 1_555 1_555
H3 N1 1_555 1_555
H4 N1 1_555 1_555
N2 O1 1_555 1_555
O2 N2 1_555 1_555
C1F C1 1_555 1_555
H1F C1F 1_555 1_555
H2F C1F 1_555 1_555
N1F C1F 1_555 1_555
H3F N1F 1_555 1_555
H4F N1F 1_555 1_555
Ag1A Ag1 1_555 1_555
Ag1A_2 Ag1 1_555 1_555
Ag1B N1F 1_555 1_555
N1D Ag1 1_555 1_555
O1A N2 1_555 1_555

#END
