
#######################################################################
#
#                 Cambridge Crystallographic Data Centre
#                                CCDC 
#
#######################################################################
#
# If this CIF has been generated from an entry in the Cambridge 
# Structural Database, then it will include bibliographic, chemical, 
# crystal, experimental, refinement or atomic coordinate data resulting 
# from the CCDC's data processing and validation procedures.
#
#######################################################################

data_MAGVOG05
_symmetry_cell_setting           monoclinic
_symmetry_space_group_name_H-M   'C 2/c'
_symmetry_Int_Tables_number      15
_space_group_name_Hall           '-C 2yn'
loop_
_symmetry_equiv_pos_site_id
_symmetry_equiv_pos_as_xyz
1 x,y,z
2 -x,y,1/2-z
3 1/2+x,1/2+y,z
4 1/2-x,1/2+y,1/2-z
5 -x,-y,-z
6 x,-y,1/2+z
7 1/2-x,1/2-y,-z
8 1/2+x,1/2-y,1/2+z
_cell_length_a                   10.596(14)
_cell_length_b                   10.295(11)
_cell_length_c                   6.141(6)
_cell_angle_alpha                90
_cell_angle_beta                 114.67(11)
_cell_angle_gamma                90
_cell_volume                     608.752
loop_
_atom_site_label
_atom_site_type_symbol
_atom_site_fract_x
_atom_site_fract_y
_atom_site_fract_z
Ag1 Ag 0.5000 0.0000 0.5000
C1 C 0.318(2) 0.2129(11) 0.545(4)
H1 H 0.3931 0.2704 0.5594
H2 H 0.3377 0.1762 0.7017
N1 N 0.3033(10) 0.1088(15) 0.373(3)
H3 H 0.2838 0.1430 0.2275
H4 H 0.2334 0.0553 0.3605
C1F C 0.182(2) 0.2871(11) 0.455(4)
H1F H 0.1069 0.2296 0.4406
H2F H 0.1623 0.3238 0.2983
N1F N 0.1967(10) 0.3912(15) 0.627(3)
H3F H 0.2162 0.3570 0.7725
H4F H 0.2666 0.4447 0.6395
Ag1A Ag 0.5000 0.0000 0.0000
Ag1A_2 Ag 0.5000 0.0000 1.0000
Ag1B Ag 0.0000 0.5000 0.5000
N1D N 0.6967(10) -0.1088(15) 0.627(3)
N2 N 0.0000 0.095(2) 0.7500
O1 O 0.1090(11) 0.153(2) 0.857(3)
O2 O 0.0000 -0.023(2) 0.7500
O1A O -0.1090(11) 0.153(2) 0.643(3)
loop_
_geom_bond_atom_site_label_1
_geom_bond_atom_site_label_2
_geom_bond_site_symmetry_1
_geom_bond_site_symmetry_2
Ag1 N1 1_555 1_555
C1 H1 1_555 1_555
H2 C1 1_555 1_555
N1 C1 1_555 1_555
H3 N1 1_555 1_555
H4 N1 1_555 1_555
N2 O1 1_555 1_555
O2 N2 1_555 1_555
C1F C1 1_555 1_555
H1F C1F 1_555 1_555
H2F C1F 1_555 1_555
N1F C1F 1_555 1_555
H3F N1F 1_555 1_555
H4F N1F 1_555 1_555
Ag1A Ag1 1_555 1_555
Ag1A_2 Ag1 1_555 1_555
Ag1B N1F 1_555 1_555
N1D Ag1 1_555 1_555
O1A N2 1_555 1_555

#END
