
#######################################################################
#
#                 Cambridge Crystallographic Data Centre
#                                CCDC 
#
#######################################################################
#
# If this CIF has been generated from an entry in the Cambridge 
# Structural Database, then it will include bibliographic, chemical, 
# crystal, experimental, refinement or atomic coordinate data resulting 
# from the CCDC's data processing and validation procedures.
#
#######################################################################

data_MAGVOG23
_symmetry_cell_setting           monoclinic
_symmetry_space_group_name_H-M   'C 2/c'
_symmetry_Int_Tables_number      15
_space_group_name_Hall           '-C 2yn'
loop_
_symmetry_equiv_pos_site_id
_symmetry_equiv_pos_as_xyz
1 x,y,z
2 -x,y,1/2-z
3 1/2+x,1/2+y,z
4 1/2-x,1/2+y,1/2-z
5 -x,-y,-z
6 x,-y,1/2+z
7 1/2-x,1/2-y,-z
8 1/2+x,1/2-y,1/2+z
_cell_length_a                   10.1895(4)
_cell_length_b                   10.6838(3)
_cell_length_c                   6.2096(3)
_cell_angle_alpha                90
_cell_angle_beta                 114.389(5)
_cell_angle_gamma                90
_cell_volume                     615.669
loop_
_atom_site_label
_atom_site_type_symbol
_atom_site_fract_x
_atom_site_fract_y
_atom_site_fract_z
Ag1 Ag 0.5000 0.0000 0.5000
N1 N 0.3104(3) 0.1092(3) 0.3796(5)
C1 C 0.3181(3) 0.2110(3) 0.5450(6)
H1 H 0.2949 0.1432 0.2350
H2 H 0.2333 0.0584 0.3592
H3 H 0.4014 0.2655 0.5680
H4 H 0.3336 0.1746 0.7003
N1F N 0.1896(3) 0.3908(3) 0.6204(5)
C1F C 0.1819(3) 0.2890(3) 0.4550(6)
H1F H 0.2051 0.3568 0.7650
H2F H 0.2667 0.4416 0.6408
H3F H 0.0986 0.2345 0.4320
H4F H 0.1664 0.3254 0.2997
Ag1A Ag 0.5000 0.0000 0.0000
Ag1A_2 Ag 0.5000 0.0000 1.0000
Ag1B Ag 0.0000 0.5000 0.5000
N1D N 0.6896(3) -0.1092(3) 0.6204(5)
N2 N 0.0000 0.1060(4) 0.7500
O1 O 0.1139(3) 0.1649(4) 0.8592(6)
O2 O 0.0000 -0.0095(4) 0.7500
O1A O -0.1139(3) 0.1649(4) 0.6408(6)
loop_
_geom_bond_atom_site_label_1
_geom_bond_atom_site_label_2
_geom_bond_site_symmetry_1
_geom_bond_site_symmetry_2
Ag1 N1 1_555 1_555
N1 C1 1_555 1_555
C1 H3 1_555 1_555
H1 N1 1_555 1_555
H2 N1 1_555 1_555
H4 C1 1_555 1_555
N2 O1 1_555 1_555
O2 N2 1_555 1_555
N1F C1F 1_555 1_555
C1F C1 1_555 1_555
H1F N1F 1_555 1_555
H2F N1F 1_555 1_555
H3F C1F 1_555 1_555
H4F C1F 1_555 1_555
Ag1A Ag1 1_555 1_555
Ag1A_2 Ag1 1_555 1_555
Ag1B N1F 1_555 1_555
N1D Ag1 1_555 1_555
O1A N2 1_555 1_555

#END
