
#######################################################################
#
#                 Cambridge Crystallographic Data Centre
#                                CCDC 
#
#######################################################################
#
# If this CIF has been generated from an entry in the Cambridge 
# Structural Database, then it will include bibliographic, chemical, 
# crystal, experimental, refinement or atomic coordinate data resulting 
# from the CCDC's data processing and validation procedures.
#
#######################################################################

data_MAJHUC
_symmetry_cell_setting           triclinic
_symmetry_space_group_name_H-M   'P -1'
_symmetry_Int_Tables_number      2
_space_group_name_Hall           '-P 1'
loop_
_symmetry_equiv_pos_site_id
_symmetry_equiv_pos_as_xyz
1 x,y,z
2 -x,-y,-z
_cell_length_a                   11.3475(5)
_cell_length_b                   11.786(1)
_cell_length_c                   21.203(2)
_cell_angle_alpha                96.259(8)
_cell_angle_beta                 90.978(6)
_cell_angle_gamma                108.258(5)
_cell_volume                     2672.96
loop_
_atom_site_label
_atom_site_type_symbol
_atom_site_fract_x
_atom_site_fract_y
_atom_site_fract_z
Mn1 Mn 0.0000 0.0000 0.5000
Mn2 Mn -0.13715(3) -0.47770(3) 0.759405(16)
Mn3 Mn -0.5000 -0.5000 1.0000
N1 N -0.43910(19) -0.5070(2) 1.10259(10)
N2 N 0.86352(19) -0.00126(18) 0.57802(10)
N3 N -0.06290(18) -0.63613(19) 0.76941(10)
N4 N 0.06221(19) -0.34070(19) 0.76763(10)
N5 N -0.6200(3) -0.8133(3) 1.52171(13)
N6 N 0.66978(18) -0.61899(18) 0.75252(9)
O1 O -0.12368(17) -0.50655(15) 0.65786(8)
O2 O -0.02560(16) -0.19191(14) 0.50203(8)
O3 O -0.15322(18) -0.34796(16) 0.61862(8)
O4 O 0.11369(19) -0.19187(15) 0.57841(9)
O5 O -0.22499(17) -0.34349(16) 0.73814(8)
H1 H -0.2149 -0.2927 0.7587
H2 H -0.2071 -0.3204 0.6969
O6 O -0.15044(15) -0.44396(16) 0.86046(7)
O7 O -0.15658(17) -0.04467(16) 0.42602(8)
H3 H -0.2361 -0.0900 0.4381
H4 H -0.1669 0.0350 0.4137
O8 O -0.0896(2) -0.26740(19) 0.92279(10)
O13 O -0.4348(2) -0.3005(2) 1.01229(12)
H13 H -0.4905 -0.2781 1.0285
H14 H -0.3584 -0.2793 1.0150
O14 O -0.31887(15) -0.50349(18) 0.97235(9)
O15 O -0.32552(19) -0.6953(2) 0.96500(13)
C1 C 0.0321(2) -0.24313(19) 0.53514(11)
C2 C -0.1154(2) -0.4371(2) 0.61487(10)
C3 C 0.0077(2) -0.37787(19) 0.51734(10)
C4 C -0.0269(2) -0.6909(2) 0.71782(13)
H15 H -0.0293 -0.6609 0.6792
C5 C -0.5192(2) -0.5628(3) 1.14377(13)
H16 H -0.6015 -0.6010 1.1294
C6 C -0.4863(2) -0.5667(2) 1.20672(13)
H17 H -0.5457 -0.6074 1.2331
C7 C -0.0539(2) -0.46669(19) 0.55547(10)
C8 C 0.6131(2) -0.6651(2) 0.80314(11)
H18 H 0.6586 -0.6463 0.8419
C9 C -0.3208(2) -0.4519(2) 1.12535(12)
H19 H -0.2632 -0.4121 1.0980
C10 C -0.2810(2) -0.4517(2) 1.18712(12)
H20 H -0.1982 -0.4127 1.2002
C11 C 0.4903(2) -0.7394(2) 0.80121(12)
H21 H 0.4555 -0.7691 0.8378
C12 C 0.4205(2) -0.7686(2) 0.74407(12)
C13 C 0.4802(2) -0.7233(2) 0.69093(12)
H22 H 0.4376 -0.7428 0.6514
C14 C 0.8585(2) -0.0693(2) 0.62524(13)
H23 H 0.9046 -0.1223 0.6229
C15 C -0.1036(2) -0.3779(2) 0.91149(11)
C16 C 0.0136(2) -0.7903(2) 0.71948(14)
H24 H 0.0363 -0.8260 0.6824
C17 C 0.0204(2) -0.8367(2) 0.77699(15)
C18 C -0.3642(2) -0.5096(2) 1.23033(12)
C19 C 0.6016(2) -0.6500(2) 0.69668(12)
H25 H 0.6386 -0.6202 0.6605
C20 C 0.2828(2) -0.8411(3) 0.73701(14)
H26 H 0.2392 -0.7921 0.7192
H27 H 0.2729 -0.9108 0.7061
C21 C 0.1412(2) -0.3329(3) 0.81701(13)
H28 H 0.1137 -0.3844 0.8478
C22 C 0.2613(2) -0.2528(3) 0.82500(13)
H29 H 0.3115 -0.2510 0.8605
C23 C 0.3063(2) -0.1750(2) 0.77936(12)
C24 C 0.2254(2) -0.1849(3) 0.72723(14)
H30 H 0.2515 -0.1368 0.6949
C25 C -0.0190(3) -0.7809(3) 0.82976(16)
H31 H -0.0180 -0.8095 0.8689
C26 C 0.2175(2) -0.8853(2) 0.79584(14)
H32 H 0.2368 -0.8192 0.8299
H33 H 0.2481 -0.9473 0.8096
C27 C 0.7928(2) 0.0714(2) 0.58202(13)
H34 H 0.7931 0.1174 0.5490
C28 C 0.7194(2) 0.0817(2) 0.63241(13)
H35 H 0.6727 0.1341 0.6330
C29 C 0.7160(2) 0.0126(2) 0.68240(12)
C30 C -0.3180(3) -0.5087(3) 1.29802(12)
H36 H -0.2870 -0.4257 1.3175
H37 H -0.2482 -0.5397 1.2965
C31 C -0.4119(3) -0.5800(3) 1.34079(13)
H38 H -0.4475 -0.6620 1.3205
H39 H -0.4787 -0.5452 1.3457
C32 C -0.0597(3) -0.6827(3) 0.82454(14)
H40 H -0.0860 -0.6475 0.8607
C33 C 0.7877(3) -0.0641(2) 0.67746(13)
H41 H 0.7881 -0.1122 0.7094
C34 C 0.6387(2) 0.0190(3) 0.73913(13)
H42 H 0.6810 0.0061 0.7765
H43 H 0.6301 0.0986 0.7465
C35 C 0.1065(2) -0.2661(2) 0.72338(13)
H44 H 0.0542 -0.2695 0.6885
C36 C 0.4362(2) -0.0854(3) 0.78771(14)
H45 H 0.4299 -0.0068 0.8026
H46 H 0.4818 -0.1079 0.8207
C37 C -0.2691(2) -0.5848(3) 0.97221(11)
C38 C -0.4188(3) -0.7495(4) 1.47674(17)
H47 H -0.3411 -0.7595 1.4725
C39 C -0.5674(3) -0.6549(3) 1.45541(16)
H48 H -0.5926 -0.5984 1.4362
C40 C 0.0598(2) -0.4133(2) 0.46234(10)
H49 H 0.0998 -0.3553 0.4367
C41 C 0.0749(2) -0.9367(3) 0.78277(18)
H50 H 0.0560 -0.9917 0.7438
H51 H 0.0378 -0.9813 0.8172
C42 C -0.3563(3) -0.5824(3) 1.40619(15)
H52 H -0.3270 -0.5011 1.4280
H53 H -0.2852 -0.6109 1.4013
C43 C 0.0734(2) -0.3964(2) 0.97787(11)
H54 H 0.1228 -0.3261 0.9633
C44 C 0.5104(3) -0.0745(3) 0.72938(17)
H55 H 0.4643 -0.0540 0.6959
H56 H 0.5197 -0.1522 0.7152
C45 C -0.6485(3) -0.7312(3) 1.49249(16)
H57 H -0.7273 -0.7240 1.4970
C46 C -0.5059(4) -0.8218(4) 1.51318(18)
H58 H -0.4837 -0.8795 1.5328
C47 C -0.4489(3) -0.6628(3) 1.44698(13)
C48 C -0.1283(2) -0.5431(2) 0.98388(11)
C49 C -0.0537(2) -0.4382(2) 0.96074(11)
Mn1_2 Mn 0.0000 -1.0000 0.5000
Mn1_3 Mn 1.0000 0.0000 0.5000
Mn2A Mn 1.13715(3) 0.47770(3) 0.240595(16)
Mn2_2 Mn 0.86285(3) -0.47770(3) 0.759405(16)
Mn2A_2 Mn 0.13715(3) -0.52230(3) 0.240595(16)
Mn2A_3 Mn 0.13715(3) -0.52230(3) 1.240595(16)
Mn2A_4 Mn 0.13715(3) 0.47770(3) 0.240595(16)
Mn3_2 Mn 0.5000 -0.5000 1.0000
N1A N -0.56090(19) -0.4930(2) 0.89741(10)
N2A N 0.13648(19) 0.00126(18) 0.42198(10)
N2_2 N -0.13648(19) -0.00126(18) 0.57802(10)
N3A N 1.06290(18) 0.63613(19) 0.23059(10)
N4A N 0.93779(19) 0.34070(19) 0.23237(10)
N5A N -0.3800(3) -0.1867(3) 0.47829(13)
N6A N 0.33022(18) 0.61899(18) 0.24748(9)
N6_2 N -0.33022(18) -0.61899(18) 0.75252(9)
N6A_2 N 1.33022(18) 0.61899(18) 0.24748(9)
O1A O 0.12368(17) -0.49345(15) 0.34214(8)
O1A_2 O 1.12368(17) 0.50655(15) 0.34214(8)
O2A O 0.02560(16) -0.80809(14) 0.49797(8)
O2A_2 O 0.02560(16) 0.19191(14) 0.49797(8)
O3A O 0.15322(18) -0.65204(16) 0.38138(8)
O4A O -0.11369(19) -0.80813(15) 0.42159(9)
O5A O 1.22499(17) 0.34349(16) 0.26186(8)
H1A H 1.2149 0.2927 0.2413
H2A H 1.2071 0.3204 0.3031
O6A O 0.15044(15) -0.55604(16) 1.13954(7)
O6A_2 O 1.15044(15) 0.44396(16) 0.13954(7)
O7A O 0.15658(17) 0.04467(16) 0.57398(8)
H3A H 0.2361 0.0900 0.5619
H4A H 0.1669 -0.0350 0.5863
O8A O 0.0896(2) -0.73260(19) 1.07721(10)
O13A O -0.5652(2) -0.6995(2) 0.98771(12)
H13A H -0.5095 -0.7219 0.9715
H14A H -0.6416 -0.7207 0.9850
O14A O 0.31887(15) -0.49651(18) 1.02765(9)
O14A_2 O -0.68113(15) -0.49651(18) 1.02765(9)
O15A O 0.32552(19) -0.3047(2) 1.03500(13)
C1A C -0.0321(2) -0.75687(19) 0.46486(11)
C2A C 0.1154(2) -0.5629(2) 0.38513(10)
C3A C -0.0077(2) -0.62213(19) 0.48266(10)
C4A C 1.0269(2) 0.6909(2) 0.28218(13)
H15A H 1.0293 0.6609 0.3208
C5A C -0.4808(2) -0.4372(3) 0.85623(13)
H16A H -0.3985 -0.3990 0.8706
C6A C -0.5137(2) -0.4333(2) 0.79328(13)
H17A H -0.4543 -0.3926 0.7669
C7A C 0.0539(2) -0.53331(19) 0.44453(10)
C8A C 0.3869(2) 0.6651(2) 0.19686(11)
H18A H 0.3414 0.6463 0.1581
C9A C -0.6792(2) -0.5481(2) 0.87465(12)
H19A H -0.7368 -0.5879 0.9020
C10A C -0.7190(2) -0.5483(2) 0.81288(12)
H20A H -0.8018 -0.5873 0.7998
C11A C 0.5097(2) 0.7394(2) 0.19879(12)
H21A H 0.5445 0.7691 0.1622
C12A C 0.5795(2) 0.7686(2) 0.25593(12)
C13A C 0.5198(2) 0.7233(2) 0.30907(12)
H22A H 0.5624 0.7428 0.3486
C14A C 0.1415(2) 0.0693(2) 0.37476(13)
H23A H 0.0954 0.1223 0.3771
C15A C 0.1036(2) -0.6221(2) 1.08851(11)
C16A C 0.9864(2) 0.7903(2) 0.28052(14)
H24A H 0.9637 0.8260 0.3176
C17A C 0.9796(2) 0.8367(2) 0.22301(15)
C18A C -0.6358(2) -0.4904(2) 0.76967(12)
C19A C 0.3984(2) 0.6500(2) 0.30332(12)
H25A H 0.3614 0.6202 0.3395
C20A C 0.7172(2) 0.8411(3) 0.26299(14)
H26A H 0.7608 0.7921 0.2808
H27A H 0.7271 0.9108 0.2939
C21A C 0.8588(2) 0.3329(3) 0.18299(13)
H28A H 0.8863 0.3844 0.1522
C22A C 0.7387(2) 0.2528(3) 0.17500(13)
H29A H 0.6885 0.2510 0.1395
C23A C 0.6937(2) 0.1750(2) 0.22064(12)
C24A C 0.7746(2) 0.1849(3) 0.27277(14)
H30A H 0.7485 0.1368 0.3051
C25A C 1.0190(3) 0.7809(3) 0.17024(16)
H31A H 1.0180 0.8095 0.1311
C26A C 0.7825(2) 0.8853(2) 0.20416(14)
H32A H 0.7632 0.8192 0.1701
H33A H 0.7519 0.9473 0.1904
C27A C 0.2072(2) -0.0714(2) 0.41798(13)
H34A H 0.2069 -0.1174 0.4510
C28A C 0.2806(2) -0.0817(2) 0.36759(13)
H35A H 0.3273 -0.1341 0.3670
C29A C 0.2840(2) -0.0126(2) 0.31760(12)
C30A C -0.6820(3) -0.4913(3) 0.70198(12)
H36A H -0.7130 -0.5743 0.6825
H37A H -0.7518 -0.4603 0.7035
C31A C -0.5881(3) -0.4200(3) 0.65921(13)
H38A H -0.5525 -0.3380 0.6795
H39A H -0.5213 -0.4548 0.6543
C32A C 1.0597(3) 0.6827(3) 0.17546(14)
H40A H 1.0860 0.6475 0.1393
C33A C 0.2123(3) 0.0641(2) 0.32254(13)
H41A H 0.2119 0.1122 0.2906
C34A C 0.3613(2) -0.0190(3) 0.26087(13)
H42A H 0.3190 -0.0061 0.2235
H43A H 0.3699 -0.0986 0.2535
C35A C 0.8935(2) 0.2661(2) 0.27662(13)
H44A H 0.9458 0.2695 0.3115
C36A C 0.5638(2) 0.0854(3) 0.21229(14)
H45A H 0.5701 0.0068 0.1974
H46A H 0.5182 0.1079 0.1793
C37A C 0.2691(2) -0.4152(3) 1.02779(11)
C38A C -0.5812(3) -0.2505(4) 0.52326(17)
H47A H -0.6589 -0.2405 0.5275
C39A C -0.4326(3) -0.3451(3) 0.54459(16)
H48A H -0.4074 -0.4016 0.5638
C40A C -0.0598(2) -0.5867(2) 0.53766(10)
H49A H -0.0998 -0.6447 0.5633
C41A C 0.9251(2) 0.9367(3) 0.21723(18)
H50A H 0.9440 0.9917 0.2562
H51A H 0.9622 0.9813 0.1828
C42A C -0.6437(3) -0.4176(3) 0.59381(15)
H52A H -0.6730 -0.4989 0.5720
H53A H -0.7148 -0.3891 0.5987
C43A C -0.0734(2) -0.6036(2) 1.02213(11)
H54A H -0.1228 -0.6739 1.0367
C44A C 0.4896(3) 0.0745(3) 0.27062(17)
H55A H 0.5357 0.0540 0.3041
H56A H 0.4803 0.1522 0.2848
C45A C -0.3515(3) -0.2688(3) 0.50751(16)
H57A H -0.2727 -0.2760 0.5030
C46A C -0.4941(4) -0.1782(4) 0.48682(18)
H58A H -0.5163 -0.1205 0.4672
C47A C -0.5511(3) -0.3372(3) 0.55302(13)
C48A C 0.1283(2) -0.4569(2) 1.01612(11)
C49A C 0.0537(2) -0.5618(2) 1.03926(11)
O9 O -0.1962(3) -0.1605(2) 0.83610(11)
H5 H -0.1766 -0.1995 0.8612
H6 H -0.2452 -0.1225 0.8485
O10 O -0.1871(3) -0.1904(3) 1.04076(15)
H7 H -0.1679 -0.1111 1.0413
H8 H -0.1638 -0.2093 1.0023
O11 O -0.4020(6) -0.1304(5) 0.9145(3)
H9 H -0.4626 -0.1102 0.9367
H10 H -0.3718 -0.1587 0.9440
O12 O -0.1136(6) 0.0571(4) 1.0433(4)
H11 H -0.1421 0.0786 1.0162
H12 H -0.0610 0.1101 1.0737
H59? H -0.3375 0.0861 0.9954
H60? H -0.2696 0.1144 0.9313
O16? O -0.2932(15) 0.0867(7) 0.9667(11)
loop_
_geom_bond_atom_site_label_1
_geom_bond_atom_site_label_2
_geom_bond_site_symmetry_1
_geom_bond_site_symmetry_2
Mn1 O2 1_555 1_555
Mn2 N3 1_555 1_555
Mn3 N1 1_555 1_555
N1 C5 1_555 1_555
N2 C14 1_555 1_555
N3 C4 1_555 1_555
N4 Mn2 1_555 1_555
N5 C45 1_555 1_555
N6 C8 1_555 1_555
O1 Mn2 1_555 1_555
O2 C1 1_555 1_555
O3 C2 1_555 1_555
O4 C1 1_555 1_555
O5 Mn2 1_555 1_555
H1 O5 1_555 1_555
H2 O5 1_555 1_555
O6 Mn2 1_555 1_555
O7 Mn1 1_555 1_555
H3 O7 1_555 1_555
H4 O7 1_555 1_555
O8 C15 1_555 1_555
O9 H5 1_555 1_555
H6 O9 1_555 1_555
O10 H7 1_555 1_555
H8 O10 1_555 1_555
O11 H9 1_555 1_555
H10 O11 1_555 1_555
O12 H11 1_555 1_555
H12 O12 1_555 1_555
O13 Mn3 1_555 1_555
H13 O13 1_555 1_555
H14 O13 1_555 1_555
O14 Mn3 1_555 1_555
O15 C37 1_555 1_555
C1 C3 1_555 1_555
C2 O1 1_555 1_555
C3 C7 1_555 1_555
C4 H15 1_555 1_555
C5 H16 1_555 1_555
C6 C5 1_555 1_555
H17 C6 1_555 1_555
C7 C2 1_555 1_555
C8 H18 1_555 1_555
C9 N1 1_555 1_555
H19 C9 1_555 1_555
C10 C9 1_555 1_555
H20 C10 1_555 1_555
C11 C8 1_555 1_555
H21 C11 1_555 1_555
C12 C11 1_555 1_555
C13 C12 1_555 1_555
H22 C13 1_555 1_555
C14 H23 1_555 1_555
C15 O6 1_555 1_555
C16 C4 1_555 1_555
H24 C16 1_555 1_555
C17 C16 1_555 1_555
C18 C6 1_555 1_555
C19 N6 1_555 1_555
H25 C19 1_555 1_555
C20 C12 1_555 1_555
H26 C20 1_555 1_555
H27 C20 1_555 1_555
C21 N4 1_555 1_555
H28 C21 1_555 1_555
C22 C21 1_555 1_555
H29 C22 1_555 1_555
C23 C22 1_555 1_555
C24 C23 1_555 1_555
H30 C24 1_555 1_555
C25 C17 1_555 1_555
H31 C25 1_555 1_555
C26 C20 1_555 1_555
H32 C26 1_555 1_555
H33 C26 1_555 1_555
C27 N2 1_555 1_555
H34 C27 1_555 1_555
C28 C27 1_555 1_555
H35 C28 1_555 1_555
C29 C28 1_555 1_555
C30 C18 1_555 1_555
H36 C30 1_555 1_555
H37 C30 1_555 1_555
C31 C30 1_555 1_555
H38 C31 1_555 1_555
H39 C31 1_555 1_555
C32 N3 1_555 1_555
H40 C32 1_555 1_555
C33 C14 1_555 1_555
H41 C33 1_555 1_555
C34 C29 1_555 1_555
H42 C34 1_555 1_555
H43 C34 1_555 1_555
C35 N4 1_555 1_555
H44 C35 1_555 1_555
C36 C23 1_555 1_555
H45 C36 1_555 1_555
H46 C36 1_555 1_555
C37 O14 1_555 1_555
C38 H47 1_555 1_555
C39 H48 1_555 1_555
C40 C3 1_555 1_555
H49 C40 1_555 1_555
C41 C17 1_555 1_555
H50 C41 1_555 1_555
H51 C41 1_555 1_555
C42 C31 1_555 1_555
H52 C42 1_555 1_555
H53 C42 1_555 1_555
C43 H54 1_555 1_555
C44 C34 1_555 1_555
H55 C44 1_555 1_555
H56 C44 1_555 1_555
C45 C39 1_555 1_555
H57 C45 1_555 1_555
C46 N5 1_555 1_555
H58 C46 1_555 1_555
C47 C38 1_555 1_555
C48 C37 1_555 1_555
C49 C15 1_555 1_555
Mn1_2 O2A 1_555 1_555
Mn1_3 N2 1_555 1_555
Mn2A N3A 1_555 1_555
Mn2_2 N6 1_555 1_555
Mn2A_2 O1A 1_555 1_555
Mn2A_3 O6A 1_555 1_555
Mn2A_4 N6A 1_555 1_555
Mn3_2 O14A 1_555 1_555
N1A Mn3 1_555 1_555
N2A Mn1 1_555 1_555
N2_2 Mn1 1_555 1_555
N3A C4A 1_555 1_555
N4A Mn2A 1_555 1_555
N5A C45A 1_555 1_555
N6A C8A 1_555 1_555
N6_2 Mn2 1_555 1_555
N6A_2 Mn2A 1_555 1_555
O1A C2A 1_555 1_555
O1A_2 Mn2A 1_555 1_555
O2A C1A 1_555 1_555
O2A_2 Mn1 1_555 1_555
O3A C2A 1_555 1_555
O4A C1A 1_555 1_555
O5A Mn2A 1_555 1_555
H1A O5A 1_555 1_555
H2A O5A 1_555 1_555
O6A C15A 1_555 1_555
O6A_2 Mn2A 1_555 1_555
O7A Mn1 1_555 1_555
H3A O7A 1_555 1_555
H4A O7A 1_555 1_555
O8A C15A 1_555 1_555
O13A Mn3 1_555 1_555
H13A O13A 1_555 1_555
H14A O13A 1_555 1_555
O14A C37A 1_555 1_555
O14A_2 Mn3 1_555 1_555
O15A C37A 1_555 1_555
C1A C3A 1_555 1_555
C2A C7A 1_555 1_555
C3A C7A 1_555 1_555
C4A H15A 1_555 1_555
C5A N1A 1_555 1_555
H16A C5A 1_555 1_555
C6A C5A 1_555 1_555
H17A C6A 1_555 1_555
C7A C40 1_555 1_555
C8A H18A 1_555 1_555
C9A N1A 1_555 1_555
H19A C9A 1_555 1_555
C10A C9A 1_555 1_555
H20A C10A 1_555 1_555
C11A C8A 1_555 1_555
H21A C11A 1_555 1_555
C12A C11A 1_555 1_555
C13A C12A 1_555 1_555
H22A C13A 1_555 1_555
C14A N2A 1_555 1_555
H23A C14A 1_555 1_555
C15A C49A 1_555 1_555
C16A C4A 1_555 1_555
H24A C16A 1_555 1_555
C17A C16A 1_555 1_555
C18A C6A 1_555 1_555
C19A N6A 1_555 1_555
H25A C19A 1_555 1_555
C20A C12A 1_555 1_555
H26A C20A 1_555 1_555
H27A C20A 1_555 1_555
C21A N4A 1_555 1_555
H28A C21A 1_555 1_555
C22A C21A 1_555 1_555
H29A C22A 1_555 1_555
C23A C22A 1_555 1_555
C24A C23A 1_555 1_555
H30A C24A 1_555 1_555
C25A C17A 1_555 1_555
H31A C25A 1_555 1_555
C26A C20A 1_555 1_555
H32A C26A 1_555 1_555
H33A C26A 1_555 1_555
C27A N2A 1_555 1_555
H34A C27A 1_555 1_555
C28A C27A 1_555 1_555
H35A C28A 1_555 1_555
C29A C28A 1_555 1_555
C30A C18A 1_555 1_555
H36A C30A 1_555 1_555
H37A C30A 1_555 1_555
C31A C30A 1_555 1_555
H38A C31A 1_555 1_555
H39A C31A 1_555 1_555
C32A N3A 1_555 1_555
H40A C32A 1_555 1_555
C33A C14A 1_555 1_555
H41A C33A 1_555 1_555
C34A C29A 1_555 1_555
H42A C34A 1_555 1_555
H43A C34A 1_555 1_555
C35A N4A 1_555 1_555
H44A C35A 1_555 1_555
C36A C23A 1_555 1_555
H45A C36A 1_555 1_555
H46A C36A 1_555 1_555
C37A C48A 1_555 1_555
C38A H47A 1_555 1_555
C39A H48A 1_555 1_555
C40A C7 1_555 1_555
H49A C40A 1_555 1_555
C41A C17A 1_555 1_555
H50A C41A 1_555 1_555
H51A C41A 1_555 1_555
C42A C31A 1_555 1_555
H52A C42A 1_555 1_555
H53A C42A 1_555 1_555
C43A C48 1_555 1_555
H54A C43A 1_555 1_555
C44A C34A 1_555 1_555
H55A C44A 1_555 1_555
H56A C44A 1_555 1_555
C45A C39A 1_555 1_555
H57A C45A 1_555 1_555
C46A N5A 1_555 1_555
H58A C46A 1_555 1_555
C47A C38A 1_555 1_555
C48A C43 1_555 1_555
C49A C43A 1_555 1_555
C10 C18 1_555 1_555
C13 C19 1_555 1_555
C24 C35 1_555 1_555
C25 C32 1_555 1_555
C26 C41 1_555 1_555
C29 C33 1_555 1_555
C36 C44 1_555 1_555
C38 C46 1_555 1_555
C39 C47 1_555 1_555
C42 C47 1_555 1_555
C43 C49 1_555 1_555
C48 C49 1_555 1_555
C3A C40A 1_555 1_555
C10A C18A 1_555 1_555
C13A C19A 1_555 1_555
C24A C35A 1_555 1_555
C25A C32A 1_555 1_555
C26A C41A 1_555 1_555
C29A C33A 1_555 1_555
C36A C44A 1_555 1_555
C38A C46A 1_555 1_555
C39A C47A 1_555 1_555
C42A C47A 1_555 1_555
C48A C49A 1_555 1_555

#END
