
#######################################################################
#
#                 Cambridge Crystallographic Data Centre
#                                CCDC 
#
#######################################################################
#
# If this CIF has been generated from an entry in the Cambridge 
# Structural Database, then it will include bibliographic, chemical, 
# crystal, experimental, refinement or atomic coordinate data resulting 
# from the CCDC's data processing and validation procedures.
#
#######################################################################

data_MARXEK
_symmetry_cell_setting           tetragonal
_symmetry_space_group_name_H-M   'P 41 2 2'
_symmetry_Int_Tables_number      91
_space_group_name_Hall           'P 4w 2c'
loop_
_symmetry_equiv_pos_site_id
_symmetry_equiv_pos_as_xyz
1 x,y,z
2 -x,-y,1/2+z
3 -y,x,1/4+z
4 y,-x,3/4+z
5 -x,y,-z
6 x,-y,1/2-z
7 y,x,3/4-z
8 -y,-x,1/4-z
_cell_length_a                   10.2245(14)
_cell_length_b                   10.2245(14)
_cell_length_c                   14.369(3)
_cell_angle_alpha                90
_cell_angle_beta                 90
_cell_angle_gamma                90
_cell_volume                     1502.14
loop_
_atom_site_label
_atom_site_type_symbol
_atom_site_fract_x
_atom_site_fract_y
_atom_site_fract_z
Lu1 Lu 1.14819(3) 0.85181(3) 0.1250
C1 C 1.0000 0.6128(14) 0.0000
C2 C 1.0000 0.4632(13) 0.0000
C3 C 1.0466(11) 0.3959(9) 0.0779(7)
H1 H 1.0790 0.4415 0.1290
C4 C 1.0441(11) 0.2593(10) 0.0781(6)
C5 C 1.0000 0.1909(14) 0.0000
H2 H 1.0000 0.1000 0.0000
C6 C 1.0886(10) 0.1809(10) 0.1613(7)
O1 O 1.0732(9) 0.6665(7) 0.0581(6)
O2 O 1.1139(9) 0.0642(8) 0.1498(6)
O3 O 1.0959(9) 0.2399(8) 0.2379(5)
O4 O 1.3110(8) 0.6890(8) 0.1250
Lu1_2 Lu 1.14819(3) -0.14819(3) 0.1250
Lu1A Lu 0.85181(3) 0.14819(3) -0.3750
Lu1B Lu 1.14819(3) 0.14819(3) 0.3750
Lu1C Lu 0.85181(3) -0.14819(3) -0.1250
Lu1C_2 Lu 0.85181(3) 0.85181(3) -0.1250
C3D C 0.9534(11) 0.3959(9) -0.0779(7)
H1D H 0.9210 0.4415 -0.1290
C4D C 0.9559(11) 0.2593(10) -0.0781(6)
C6D C 0.9114(10) 0.1809(10) -0.1613(7)
O1D O 0.9268(9) 0.6665(7) -0.0581(6)
O1G O 1.3335(7) 0.9268(9) 0.1919(6)
O2D O 0.8861(9) 0.0642(8) -0.1498(6)
O2_2 O 1.1139(9) 1.0642(8) 0.1498(6)
O2G O 0.9358(8) 0.8861(9) 0.1002(6)
O3D O 0.9041(9) 0.2399(8) -0.2379(5)
O3C O 1.2399(8) 0.9041(9) -0.0121(5)
O3E O 1.0959(9) 0.7601(8) 0.2621(5)
loop_
_geom_bond_atom_site_label_1
_geom_bond_atom_site_label_2
_geom_bond_site_symmetry_1
_geom_bond_site_symmetry_2
Lu1 O1 1_555 1_555
C1 C2 1_555 1_555
C2 C3 1_555 1_555
C3 H1 1_555 1_555
C4 C3 1_555 1_555
C5 C4 1_555 1_555
H2 C5 1_555 1_555
C6 C4 1_555 1_555
O1 C1 1_555 1_555
O2 C6 1_555 1_555
O3 C6 1_555 1_555
O4 Lu1 1_555 1_555
Lu1_2 O2 1_555 1_555
Lu1A O3D 1_555 1_555
Lu1B O3 1_555 1_555
Lu1C O2D 1_555 1_555
Lu1C_2 O1D 1_555 1_555
C3D C2 1_555 1_555
H1D C3D 1_555 1_555
C4D C5 1_555 1_555
C6D C4D 1_555 1_555
O1D C1 1_555 1_555
O1G Lu1 1_555 1_555
O2D C6D 1_555 1_555
O2_2 Lu1 1_555 1_555
O2G Lu1 1_555 1_555
O3D C6D 1_555 1_555
O3C Lu1 1_555 1_555
O3E Lu1 1_555 1_555
C3D C4D 1_555 1_555

#END
