
#######################################################################
#
#                 Cambridge Crystallographic Data Centre
#                                CCDC 
#
#######################################################################
#
# If this CIF has been generated from an entry in the Cambridge 
# Structural Database, then it will include bibliographic, chemical, 
# crystal, experimental, refinement or atomic coordinate data resulting 
# from the CCDC's data processing and validation procedures.
#
#######################################################################

data_MATFIY
_symmetry_cell_setting           triclinic
_symmetry_space_group_name_H-M   'P -1'
_symmetry_Int_Tables_number      2
_space_group_name_Hall           '-P 1'
loop_
_symmetry_equiv_pos_site_id
_symmetry_equiv_pos_as_xyz
1 x,y,z
2 -x,-y,-z
_cell_length_a                   12.068(5)
_cell_length_b                   13.909(5)
_cell_length_c                   22.742(5)
_cell_angle_alpha                95.902(5)
_cell_angle_beta                 104.964(5)
_cell_angle_gamma                103.970(5)
_cell_volume                     3522.83
loop_
_atom_site_label
_atom_site_type_symbol
_atom_site_fract_x
_atom_site_fract_y
_atom_site_fract_z
W1 W 1.22065(8) 0.59780(6) 0.42672(3)
Si1 Si 1.2686(4) 0.6955(4) 0.29573(18)
O1 O 1.2380(11) 0.6638(10) 0.1465(5)
W2 W 1.33307(7) 0.80021(7) 0.17063(3)
O3 O 1.4321(12) 0.5808(11) 0.2318(5)
W3 W 1.11226(7) 0.55402(7) 0.14777(3)
O4 O 1.0602(11) 0.8347(10) 0.3617(5)
W4 W 1.42185(8) 0.82224(7) 0.44809(3)
O5 O 1.1642(12) 0.7534(11) 0.2939(5)
W5 W 1.19871(8) 0.91702(6) 0.34474(3)
O6 O 1.4992(13) 0.8846(11) 0.3910(5)
W6 W 1.31715(7) 0.46508(6) 0.23866(3)
O7 O 1.1805(12) 0.3955(11) 0.2559(6)
W7 W 0.99587(7) 0.69431(7) 0.32688(3)
O8 O 1.4710(12) 0.7494(11) 0.1831(5)
W8 W 1.53837(7) 0.71078(7) 0.26007(4)
O9 O 1.0125(12) 0.4622(11) 0.1838(5)
W9 W 1.05854(7) 0.45877(6) 0.27041(3)
O10 O 1.5765(13) 1.0426(12) 0.3341(7)
W10 W 1.48588(7) 0.92614(6) 0.31359(4)
O11 O 1.5294(12) 0.7387(10) 0.4508(5)
W11 W 1.48148(7) 0.60842(6) 0.39620(3)
O12 O 0.9554(15) 0.3541(12) 0.2730(6)
W12 W 1.04551(7) 0.78578(7) 0.20237(3)
O13 O 1.3266(13) 0.8322(12) 0.0987(6)
O14 O 1.0991(12) 0.9066(11) 0.2612(6)
O15 O 1.3749(14) 0.3701(11) 0.2211(6)
O16 O 1.1952(14) 1.0321(13) 0.3779(6)
O17 O 0.8678(13) 0.6671(11) 0.3483(6)
O18 O 1.3694(12) 0.7604(11) 0.2699(5)
O19 O 1.1668(14) 0.5433(12) 0.4792(6)
O20 O 1.0372(13) 0.5087(12) 0.0715(6)
O21 O 1.6677(14) 0.6984(13) 0.2484(6)
O22 O 1.5908(14) 0.5574(12) 0.4313(6)
O23 O 1.3213(14) 0.7229(12) 0.4777(5)
O24 O 0.9396(12) 0.7311(12) 0.2476(5)
O25 O 1.2088(11) 0.5842(10) 0.2534(5)
O26 O 0.9531(13) 0.8200(11) 0.1450(6)
O27 O 1.4976(14) 0.8998(13) 0.5139(6)
O28 O 1.3262(10) 0.6829(10) 0.3670(5)
O29 O 1.1891(12) 0.8236(11) 0.1822(5)
O30 O 1.1042(12) 0.6624(11) 0.3946(5)
O31 O 1.0356(12) 0.6517(11) 0.1676(5)
O32 O 1.3946(14) 0.5081(11) 0.3270(6)
O33 O 1.2899(12) 0.8748(11) 0.4132(6)
O34 O 1.2215(11) 0.4704(11) 0.1582(5)
O35 O 1.4282(11) 0.9225(10) 0.2246(5)
O36 O 1.5529(12) 0.6792(11) 0.3417(5)
O37 O 1.5902(13) 0.8495(12) 0.2962(6)
O38 O 1.3355(11) 0.9480(11) 0.3171(5)
O39 O 0.9893(14) 0.5641(11) 0.2846(6)
O40 O 1.3689(12) 0.5603(11) 0.4392(5)
O41 O 1.1499(12) 0.5001(11) 0.3547(5)
Ag1 Ag 1.3113(2) -0.16775(17) -0.06647(8)
N1 N 1.5312(16) -1.3101(15) -0.4236(7)
O2 O 2.270(3) -0.835(2) -0.1664(13)
Ag2 Ag 1.51264(14) -0.05722(13) 0.07947(7)
C1 C 2.244(3) 1.059(3) 0.5226(15)
H1 H 2.2909 1.0689 0.4957
Ag3 Ag 1.81736(17) 0.57572(13) 0.44031(7)
C2 C 1.7734(17) 0.2721(17) 0.3480(8)
H2 H 1.8016 0.2191 0.3612
Ag4 Ag 2.14328(15) -0.98366(15) -0.14587(7)
N2 N 1.9759(15) 0.7899(15) 0.4980(7)
C3 C 2.2152(18) -0.9197(16) 0.0101(8)
Ag5 Ag 1.97015(15) 0.15706(16) 0.30007(7)
N3 N 1.9042(16) 0.7164(15) 0.5690(7)
Ag6 Ag 2.39742(14) -0.87879(15) 0.17298(7)
N4 N 2.253(2) 1.130(2) 0.5653(13)
C4 C 1.6831(16) 0.1736(15) 0.2431(7)
C5 C 2.105(2) 1.0273(18) 0.6041(9)
H3 H 2.0589 1.0175 0.6314
N5 N 1.966(2) -0.7513(16) 0.0118(8)
C6 C 1.657(2) 0.338(2) 0.2748(9)
H4 H 1.6040 0.3317 0.2358
N6 N 1.5255(17) -0.1950(15) 0.0272(10)
C7 C 2.1309(18) -0.8605(16) 0.0155(8)
N7 N 1.459(2) -0.2326(16) -0.0317(9)
C8 C 2.070(2) -0.727(2) 0.0526(10)
H5 H 2.0876 -0.6685 0.0812
N8 N 1.7275(15) 0.0594(14) 0.1898(6)
N9 N 1.6195(15) 0.0591(14) 0.1640(7)
N10 N 1.7752(15) 0.1282(13) 0.2418(7)
N11 N 1.8631(15) -1.0711(13) -0.1639(7)
N12 N 2.3078(13) -0.9211(13) 0.0575(6)
C9 C 1.504(2) -1.245(2) -0.3853(10)
H6 H 1.4305 -1.2313 -0.3969
N13 N 2.3565(16) -0.9893(13) 0.0376(6)
C10 C 1.637(2) -1.3272(19) -0.4088(9)
H7 H 1.6533 -1.3737 -0.4354
N14 N 1.9482(15) -1.0815(14) -0.1884(7)
C11 C 1.686(2) 0.427(2) 0.3156(10)
H8 H 1.6547 0.4795 0.3035
C12 C 1.5819(19) -1.2003(15) -0.3313(8)
H9 H 1.5574 -1.1627 -0.3034
N15 N 1.7614(16) 0.4388(15) 0.3742(7)
N16 N 1.5893(13) 0.1312(13) 0.1950(6)
C13 C 1.7255(16) -1.2769(14) -0.3538(7)
H10 H 1.7996 -1.2898 -0.3438
N17 N 1.7597(14) -1.1166(14) -0.2064(6)
C14 C 2.156(2) -0.7749(19) 0.0592(10)
H11 H 2.2273 -0.7521 0.0910
N18 N 1.9073(17) 0.7099(16) 0.5095(8)
C15 C 1.9389(18) -0.8369(16) -0.0279(8)
H12 H 1.8626 -0.8595 -0.0557
N19 N 2.3016(14) -1.0223(12) -0.0206(7)
C16 C 1.7009(19) 0.2587(17) 0.2884(9)
N20 N 1.9009(14) -1.1371(13) -0.2460(7)
C17 C 1.8053(19) 0.3604(17) 0.3884(9)
H13 H 1.8591 0.3671 0.4271
N21 N 2.2072(16) -0.9825(14) -0.0384(7)
C18 C 2.0982(18) 0.9530(16) 0.5572(8)
N22 N 1.9781(14) 0.8074(13) 0.5955(7)
C19 C 2.0158(18) 0.8489(15) 0.5521(9)
C20 C 2.0163(17) -0.8933(16) -0.0299(7)
H14 H 1.9955 -0.9508 -0.0597
C21 C 2.161(2) 0.9664(19) 0.5179(11)
H15 H 2.1503 0.9136 0.4865
C22 C 2.190(3) 1.122(2) 0.6067(13)
H16 H 2.2015 1.1775 0.6366
C23 C 1.7003(13) -1.2068(12) -0.3140(6)
C24 C 1.7835(16) -1.1581(15) -0.2562(8)
N23 N 1.6022(17) -0.2502(15) 0.0455(9)
N24 N 1.4882(19) -0.3120(15) -0.0507(11)
C25 C 1.571(2) -0.323(2) -0.0036(13)
C26 C 1.628(2) -0.402(2) -0.0057(11)
C27 C 1.597(2) -0.4803(19) -0.0529(10)
H17 H 1.5386 -0.4797 -0.0884
C28 C 1.719(2) -0.403(2) 0.0454(10)
H18 H 1.7442 -0.3534 0.0806
C29 C 1.645(2) -0.5599(18) -0.0530(9)
H19 H 1.6155 -0.6134 -0.0861
C30 C 1.770(3) -0.482(3) 0.0407(14)
H20 H 1.8367 -0.4777 0.0735
N25 N 1.740(2) -0.5589(18) -0.0023(10)
Ag7 Ag 1.84607(18) -0.66096(15) 0.00332(8)
Ag1_2 Ag 2.3113(2) -1.16775(17) -0.06647(8)
Ag2_2 Ag 2.51264(14) -1.05722(13) 0.07947(7)
Ag4A Ag 1.85672(15) -0.01634(15) 0.14587(7)
Ag5A Ag 2.02985(15) -1.15706(16) -0.30007(7)
Ag5A_2 Ag 2.02985(15) 0.84294(16) 0.69993(7)
Ag6_2 Ag 1.39742(14) 0.12121(15) 0.17298(7)
Ag6A Ag 1.60258(14) -1.12121(15) -0.17298(7)
N8A N 2.2725(15) -1.0594(14) -0.1898(6)
N13_2 N 1.3565(16) 0.0107(13) 0.0376(6)
N16_2 N 2.5893(13) -0.8688(13) 0.1950(6)
N17A N 2.2403(14) -0.8834(14) 0.2064(6)
N19_2 N 1.3016(14) -0.0223(12) -0.0206(7)
N20A N 2.0991(14) 0.1371(13) 0.2460(7)
N22A N 2.0219(14) 0.1926(13) 0.4045(7)
loop_
_geom_bond_atom_site_label_1
_geom_bond_atom_site_label_2
_geom_bond_site_symmetry_1
_geom_bond_site_symmetry_2
W1 O19 1_555 1_555
Si1 O5 1_555 1_555
O1 W2 1_555 1_555
Ag1 N7 1_555 1_555
N1 C9 1_555 1_555
O2 Ag4 1_555 1_555
W2 O8 1_555 1_555
O3 W6 1_555 1_555
Ag2 N6 1_555 1_555
C1 H1 1_555 1_555
W3 O1 1_555 1_555
O4 W5 1_555 1_555
Ag3 N15 1_555 1_555
C2 H2 1_555 1_555
W4 O6 1_555 1_555
Ag4 N14 1_555 1_555
O5 W5 1_555 1_555
N2 N18 1_555 1_555
C3 C7 1_555 1_555
Ag5 N10 1_555 1_555
W5 O14 1_555 1_555
O6 W10 1_555 1_555
N3 N18 1_555 1_555
Ag6 N12 1_555 1_555
W6 O7 1_555 1_555
O7 W9 1_555 1_555
N4 C1 1_555 1_555
C4 N10 1_555 1_555
W7 O4 1_555 1_555
O8 W8 1_555 1_555
C5 H3 1_555 1_555
W8 O3 1_555 1_555
O9 W3 1_555 1_555
N5 C8 1_555 1_555
C6 H4 1_555 1_555
W9 O9 1_555 1_555
O10 W10 1_555 1_555
N6 N7 1_555 1_555
C7 C14 1_555 1_555
W10 O18 1_555 1_555
O11 W4 1_555 1_555
N7 N24 1_555 1_555
C8 H5 1_555 1_555
W11 O11 1_555 1_555
O12 W9 1_555 1_555
N8 N9 1_555 1_555
W12 O5 1_555 1_555
O13 W2 1_555 1_555
N9 Ag2 1_555 1_555
N10 N8 1_555 1_555
O14 W12 1_555 1_555
N11 N14 1_555 1_555
O15 W6 1_555 1_555
N12 C3 1_555 1_555
O16 W5 1_555 1_555
C9 H6 1_555 1_555
N13 N12 1_555 1_555
C10 N1 1_555 1_555
H7 C10 1_555 1_555
O17 W7 1_555 1_555
N14 N20 1_555 1_555
O18 Si1 1_555 1_555
C11 C6 1_555 1_555
H8 C11 1_555 1_555
C12 C9 1_555 1_555
H9 C12 1_555 1_555
N15 C11 1_555 1_555
N16 C4 1_555 1_555
C13 C10 1_555 1_555
H10 C13 1_555 1_555
O20 W3 1_555 1_555
N17 N11 1_555 1_555
C14 C8 1_555 1_555
H11 C14 1_555 1_555
O21 W8 1_555 1_555
N18 Ag3 1_555 1_555
C15 N5 1_555 1_555
H12 C15 1_555 1_555
O22 W11 1_555 1_555
N19 N13 1_555 1_555
C16 C2 1_555 1_555
O23 W1 1_555 1_555
N20 C24 1_555 1_555
C17 C2 1_555 1_555
H13 C17 1_555 1_555
O24 W7 1_555 1_555
N21 Ag4 1_555 1_555
C18 C5 1_555 1_555
O25 Si1 1_555 1_555
N22 N3 1_555 1_555
C19 N2 1_555 1_555
O26 W12 1_555 1_555
C20 C7 1_555 1_555
H14 C20 1_555 1_555
O27 W4 1_555 1_555
C21 C1 1_555 1_555
H15 C21 1_555 1_555
O28 W1 1_555 1_555
C22 N4 1_555 1_555
H16 C22 1_555 1_555
O29 W2 1_555 1_555
C23 C12 1_555 1_555
O30 W1 1_555 1_555
C24 N17 1_555 1_555
O31 W3 1_555 1_555
O32 W6 1_555 1_555
O33 W4 1_555 1_555
O34 W3 1_555 1_555
O35 W2 1_555 1_555
O36 W8 1_555 1_555
O37 W8 1_555 1_555
O38 W5 1_555 1_555
O39 W7 1_555 1_555
O40 W1 1_555 1_555
O41 W1 1_555 1_555
N23 N6 1_555 1_555
N24 C25 1_555 1_555
C25 N23 1_555 1_555
C26 C25 1_555 1_555
C27 C26 1_555 1_555
H17 C27 1_555 1_555
C28 C26 1_555 1_555
H18 C28 1_555 1_555
C29 C27 1_555 1_555
H19 C29 1_555 1_555
C30 C28 1_555 1_555
H20 C30 1_555 1_555
N25 C29 1_555 1_555
Ag7 N5 1_555 1_555
Ag1_2 N19 1_555 1_555
Ag2_2 N13 1_555 1_555
Ag4A N8 1_555 1_555
Ag5A N20 1_555 1_555
Ag5A_2 N22 1_555 1_555
Ag6_2 N16 1_555 1_555
Ag6A N17 1_555 1_555
N8A Ag4 1_555 1_555
N13_2 Ag2 1_555 1_555
N16_2 Ag6 1_555 1_555
N17A Ag6 1_555 1_555
N19_2 Ag1 1_555 1_555
N20A Ag5 1_555 1_555
N22A Ag5 1_555 1_555
Si1 O28 1_555 1_555
W2 O18 1_555 1_555
W3 O25 1_555 1_555
W4 O23 1_555 1_555
W4 O28 1_555 1_555
O5 W7 1_555 1_555
C3 N21 1_555 1_555
W5 O33 1_555 1_555
W6 O25 1_555 1_555
W6 O34 1_555 1_555
C4 C16 1_555 1_555
W7 O30 1_555 1_555
C5 C22 1_555 1_555
W8 O18 1_555 1_555
C6 C16 1_555 1_555
W9 O25 1_555 1_555
W9 O39 1_555 1_555
W9 O41 1_555 1_555
W10 O35 1_555 1_555
W10 O37 1_555 1_555
W10 O38 1_555 1_555
W11 O28 1_555 1_555
W11 O32 1_555 1_555
W11 O36 1_555 1_555
W11 O40 1_555 1_555
W12 O24 1_555 1_555
W12 O29 1_555 1_555
W12 O31 1_555 1_555
N9 N16 1_555 1_555
N15 C17 1_555 1_555
C13 C23 1_555 1_555
C15 C20 1_555 1_555
N19 N21 1_555 1_555
C18 C19 1_555 1_555
C18 C21 1_555 1_555
N22 C19 1_555 1_555
C23 C24 1_555 1_555
C30 N25 1_555 1_555
N25 Ag7 1_555 1_555
N13_2 N19_2 1_555 1_555

#END
