
#######################################################################
#
#                 Cambridge Crystallographic Data Centre
#                                CCDC 
#
#######################################################################
#
# If this CIF has been generated from an entry in the Cambridge 
# Structural Database, then it will include bibliographic, chemical, 
# crystal, experimental, refinement or atomic coordinate data resulting 
# from the CCDC's data processing and validation procedures.
#
#######################################################################

data_MAYXUG
_symmetry_cell_setting           triclinic
_symmetry_space_group_name_H-M   'P 1'
_symmetry_Int_Tables_number      1
_space_group_name_Hall           'P 1'
loop_
_symmetry_equiv_pos_site_id
_symmetry_equiv_pos_as_xyz
1 x,y,z
_cell_length_a                   5.9565(4)
_cell_length_b                   7.3716(5)
_cell_length_c                   13.1769(9)
_cell_angle_alpha                102.9250(10)
_cell_angle_beta                 101.6370(10)
_cell_angle_gamma                90.7850(10)
_cell_volume                     551.284
loop_
_atom_site_label
_atom_site_type_symbol
_atom_site_fract_x
_atom_site_fract_y
_atom_site_fract_z
Er1 Er 0.02039(4) 0.81920(4) 0.67901(3)
Er2 Er 0.97965(4) 1.18057(4) 1.32105(3)
C1 C 0.212(2) 0.9433(18) 0.8973(9)
C2 C 0.3712(16) 1.0305(16) 1.0036(8)
H1 H 0.3528 0.9577 1.0573
C3 C 0.6210(18) 1.0288(18) 0.9892(8)
H2 H 0.6515 0.8976 0.9572
C4 C 0.780(2) 1.089(2) 1.1006(11)
C5 C 0.1576(14) 0.3891(13) 0.5683(7)
C6 C 0.3484(14) 0.2516(15) 0.5669(7)
H3 H 0.4939 0.3196 0.5657
C7 C 0.3841(15) 0.1790(14) 0.6701(8)
H4 H 0.4717 0.2788 0.7300
C8 C 0.5152(15) 0.0049(13) 0.6642(7)
C9 C -0.1507(15) 0.8339(14) 0.4343(7)
C10 C -0.3418(16) 0.6903(17) 0.4323(8)
H5 H -0.4883 0.7547 0.4335
C11 C -0.3709(15) 0.5428(14) 0.3267(8)
H6 H -0.4494 0.5971 0.2668
C12 C -0.5089(15) 0.3710(14) 0.3286(7)
O1 O -0.2456(12) 0.6542(12) 0.7414(7)
H7 H -0.1905 0.6251 0.7999
H8 H -0.3572 0.7245 0.7440
O2 O 1.2317(12) 0.9685(11) 1.2488(6)
H9 H 1.1568 0.8646 1.2196
H10 H 1.3423 0.9509 1.2969
O3 O 0.2567(12) 0.7808(11) 0.8484(6)
O4 O 0.0434(13) 1.0198(12) 0.8586(6)
O5 O 0.3244(12) 1.2165(12) 1.0404(6)
H11 H 0.2036 1.2196 1.0657
O6 O 0.6479(12) 1.1373(12) 0.9183(6)
H12 H 0.7699 1.1086 0.8959
O7 O 0.7488(13) 0.9881(13) 1.1639(7)
O8 O 0.9206(12) 1.2158(12) 1.1235(6)
O9 O 0.1783(13) 0.5267(11) 0.6445(6)
O10 O -0.0166(13) 0.3473(11) 0.4925(6)
O11 O 0.2879(11) 0.1063(10) 0.4711(5)
H13 H 0.2403 0.0094 0.4872
O12 O 0.1638(11) 0.1434(10) 0.6929(6)
H14 H 0.1664 0.2041 0.7561
O13 O 0.4073(14) -0.1432(12) 0.6706(7)
O14 O 0.7176(11) 0.0110(10) 0.6556(6)
O15 O 0.0246(12) 0.8537(11) 0.5084(6)
O16 O -0.1763(13) 0.9169(12) 0.3596(7)
O17 O -0.2836(11) 0.6187(9) 0.5254(5)
H15 H -0.2340 0.5110 0.5079
O18 O -0.1495(12) 0.4866(11) 0.3093(6)
H16 H -0.1441 0.4983 0.2471
O19 O -0.4051(12) 0.2229(12) 0.3271(7)
O20 O -0.7174(11) 0.3846(10) 0.3315(7)
Er1_2 Er 0.02039(4) -0.18080(4) 0.67901(3)
Er1_3 Er 1.02039(4) -0.18080(4) 0.67901(3)
Er2_2 Er -0.02035(4) 0.18057(4) 0.32105(3)
Er2_3 Er -0.02035(4) 1.18057(4) 0.32105(3)
Er2_4 Er -1.02035(4) 0.18057(4) 0.32105(3)
O10_2 O 0.9834(13) 1.3473(11) 1.4925(6)
O11_2 O 1.2879(11) 1.1063(10) 1.4711(5)
H13_2 H 1.2403 1.0094 1.4872
O12_2 O 0.1638(11) 1.1434(10) 0.6929(6)
H14_2 H 0.1664 1.2041 0.7561
O13_2 O 0.4073(14) 0.8568(12) 0.6706(7)
O14_2 O -0.2824(11) 1.0110(10) 0.6556(6)
O16_2 O 0.8237(13) 0.9169(12) 1.3596(7)
O18_2 O 0.8505(12) 1.4866(11) 1.3093(6)
H16_2 H 0.8559 1.4983 1.2471
O19_2 O 0.5949(12) 1.2229(12) 1.3271(7)
O20_2 O 1.2826(11) 1.3846(10) 1.3315(7)
O21 O -0.057(2) 0.6442(15) 0.1601(8)
H17 H -0.1798 0.6802 0.1269
H18 H 0.0007 0.5718 0.1136
O22 O 0.2051(18) 0.4212(13) 0.8773(8)
H19 H 0.3156 0.4957 0.8777
H20 H 0.2398 0.3608 0.9256
O23 O 0.792(2) 0.5051(17) 0.9287(9)
H21 H 0.8099 0.3903 0.9050
H22 H 0.6518 0.5106 0.9334
loop_
_geom_bond_atom_site_label_1
_geom_bond_atom_site_label_2
_geom_bond_site_symmetry_1
_geom_bond_site_symmetry_2
Er1 O1 1_555 1_555
Er2 O2 1_555 1_555
C1 C2 1_555 1_555
C2 H1 1_555 1_555
C3 C2 1_555 1_555
H2 C3 1_555 1_555
C4 C3 1_555 1_555
C5 C6 1_555 1_555
C6 H3 1_555 1_555
C7 C6 1_555 1_555
H4 C7 1_555 1_555
C8 C7 1_555 1_555
C9 C10 1_555 1_555
C10 H5 1_555 1_555
C11 C10 1_555 1_555
H6 C11 1_555 1_555
C12 C11 1_555 1_555
O1 H7 1_555 1_555
H8 O1 1_555 1_555
O2 H9 1_555 1_555
H10 O2 1_555 1_555
O3 Er1 1_555 1_555
O4 Er1 1_555 1_555
O5 C2 1_555 1_555
H11 O5 1_555 1_555
O6 C3 1_555 1_555
H12 O6 1_555 1_555
O7 Er2 1_555 1_555
O8 Er2 1_555 1_555
O9 Er1 1_555 1_555
O10 C5 1_555 1_555
O11 C6 1_555 1_555
H13 O11 1_555 1_555
O12 C7 1_555 1_555
H14 O12 1_555 1_555
O13 C8 1_555 1_555
O14 C8 1_555 1_555
O15 Er1 1_555 1_555
O16 C9 1_555 1_555
O17 Er1 1_555 1_555
H15 O17 1_555 1_555
O18 C11 1_555 1_555
H16 O18 1_555 1_555
O19 C12 1_555 1_555
O20 C12 1_555 1_555
O21 H17 1_555 1_555
H18 O21 1_555 1_555
O22 H19 1_555 1_555
H20 O22 1_555 1_555
O23 H21 1_555 1_555
H22 O23 1_555 1_555
Er1_2 O12 1_555 1_555
Er1_3 O14 1_555 1_555
Er2_2 O10 1_555 1_555
Er2_3 O16 1_555 1_555
Er2_4 O20 1_555 1_555
O10_2 Er2 1_555 1_555
O11_2 Er2 1_555 1_555
H13_2 O11_2 1_555 1_555
O12_2 Er1 1_555 1_555
H14_2 O12_2 1_555 1_555
O13_2 Er1 1_555 1_555
O14_2 Er1 1_555 1_555
O16_2 Er2 1_555 1_555
O18_2 Er2 1_555 1_555
H16_2 O18_2 1_555 1_555
O19_2 Er2 1_555 1_555
O20_2 Er2 1_555 1_555
C1 O3 1_555 1_555
C1 O4 1_555 1_555
C4 O7 1_555 1_555
C4 O8 1_555 1_555
C5 O9 1_555 1_555
C9 O15 1_555 1_555
C10 O17 1_555 1_555
O11 Er2_2 1_555 1_555
O13 Er1_2 1_555 1_555
O18 Er2_2 1_555 1_555
O19 Er2_2 1_555 1_555

#END
