
#######################################################################
#
#                 Cambridge Crystallographic Data Centre
#                                CCDC 
#
#######################################################################
#
# If this CIF has been generated from an entry in the Cambridge 
# Structural Database, then it will include bibliographic, chemical, 
# crystal, experimental, refinement or atomic coordinate data resulting 
# from the CCDC's data processing and validation procedures.
#
#######################################################################

data_MAZSUD
_symmetry_cell_setting           triclinic
_symmetry_space_group_name_H-M   'P -1'
_symmetry_Int_Tables_number      2
_space_group_name_Hall           '-P 1'
loop_
_symmetry_equiv_pos_site_id
_symmetry_equiv_pos_as_xyz
1 x,y,z
2 -x,-y,-z
_cell_length_a                   9.1789(9)
_cell_length_b                   10.9267(14)
_cell_length_c                   11.3710(14)
_cell_angle_alpha                117.844(13)
_cell_angle_beta                 100.861(10)
_cell_angle_gamma                99.344(10)
_cell_volume                     948.298
loop_
_atom_site_label
_atom_site_type_symbol
_atom_site_fract_x
_atom_site_fract_y
_atom_site_fract_z
Zn1 Zn 0.5000 0.5000 0.0000
Zn2 Zn 0.80905(9) 0.37645(8) -0.12211(8)
O1 O 0.7299(7) 0.2092(6) -0.1056(7)
O2 O 0.5331(7) 0.2949(6) -0.0720(7)
O3 O 0.4638(7) 0.4982(7) 0.1762(6)
O4 O 0.2975(7) 0.6090(7) 0.2751(6)
N1 N 0.7357(7) 0.6007(8) 0.1115(7)
N2 N 0.8486(6) 0.5568(5) 0.0618(5)
N3 N 0.9849(7) 0.6439(7) 0.1543(7)
C1 C 0.5516(9) 0.0995(8) -0.0374(9)
C2 C 0.4260(11) 0.1030(11) 0.0143(13)
H1 H 0.3747 0.1722 0.0233
C3 C 0.6228(12) -0.0050(11) -0.0521(12)
H2 H 0.7058 -0.0097 -0.0885
C4 C 0.6081(9) 0.2099(8) -0.0731(8)
C5 C 0.4533(9) 0.5258(10) 0.3928(8)
C6 C 0.3847(12) 0.5660(12) 0.4958(9)
H3 H 0.3058 0.6092 0.4929
C7 C 0.5685(12) 0.4570(14) 0.3952(10)
H4 H 0.6136 0.4267 0.3235
C8 C 0.4019(9) 0.5449(9) 0.2699(8)
C9 C 0.8024(12) 0.7162(14) 0.2367(13)
H5 H 0.7504 0.7690 0.2962
C10 C 0.9584(13) 0.7461(15) 0.2653(12)
H6 H 1.0323 0.8224 0.3460
Zn1_2 Zn 0.5000 -0.5000 0.0000
Zn1_3 Zn 0.5000 0.5000 1.0000
Zn2A Zn 0.19095(9) -0.37645(8) 0.12211(8)
Zn2_2 Zn -0.19095(9) -0.62355(8) -0.12211(8)
Zn2_3 Zn 0.80905(9) 0.37645(8) 0.87789(8)
Zn2A_2 Zn 0.19095(9) 0.62355(8) 0.12211(8)
Zn2A_3 Zn 1.19095(9) 0.62355(8) 0.12211(8)
O1A O 0.2701(7) -0.2092(6) 0.1056(7)
O2A O 0.4669(7) -0.2949(6) 0.0720(7)
O2A_2 O 0.4669(7) 0.7051(6) 0.0720(7)
O3A O 0.5362(7) 0.5018(7) 0.8238(6)
O3A_2 O 0.5362(7) 0.5018(7) -0.1762(6)
O4A O 0.7025(7) 0.3910(7) 0.7249(6)
O4_2 O 0.2975(7) -0.3910(7) 0.2751(6)
O4A_2 O 0.7025(7) 0.3910(7) -0.2751(6)
N1A N 0.2643(7) -0.6007(8) -0.1115(7)
N1A_2 N 0.2643(7) 0.3993(8) -0.1115(7)
N2A N 0.1514(6) -0.5568(5) -0.0618(5)
N3A N 0.0151(7) -0.6439(7) -0.1543(7)
N3_2 N -0.0151(7) -0.3561(7) 0.1543(7)
N3A_2 N 1.0151(7) 0.3561(7) -0.1543(7)
C1A C 0.4484(9) -0.0995(8) 0.0374(9)
C2A C 0.5740(11) -0.1030(11) -0.0143(13)
H1A H 0.6253 -0.1722 -0.0233
C3A C 0.3772(12) 0.0050(11) 0.0521(12)
H2A H 0.2942 0.0097 0.0885
C4A C 0.3919(9) -0.2099(8) 0.0731(8)
C5A C 0.5467(9) 0.4742(10) 0.6072(8)
C6A C 0.6153(12) 0.4340(12) 0.5042(9)
H3A H 0.6942 0.3908 0.5071
C7A C 0.4315(12) 0.5430(14) 0.6048(10)
H4A H 0.3864 0.5733 0.6765
C8A C 0.5981(9) 0.4551(9) 0.7301(8)
C9A C 0.1976(12) -0.7162(14) -0.2367(13)
H5A H 0.2496 -0.7690 -0.2962
C10A C 0.0416(13) -0.7461(15) -0.2653(12)
H6A H -0.0323 -0.8224 -0.3460
O5 O 0.992(3) 0.228(3) 0.270(3)
O6 O 0.5000 1.0000 0.5000
loop_
_geom_bond_atom_site_label_1
_geom_bond_atom_site_label_2
_geom_bond_site_symmetry_1
_geom_bond_site_symmetry_2
Zn1 O2 1_555 1_555
Zn2 O1 1_555 1_555
O1 C4 1_555 1_555
O2 C4 1_555 1_555
O3 Zn1 1_555 1_555
O4 C8 1_555 1_555
N1 Zn1 1_555 1_555
N2 Zn2 1_555 1_555
N3 N2 1_555 1_555
C1 C2 1_555 1_555
C2 H1 1_555 1_555
C3 C1 1_555 1_555
H2 C3 1_555 1_555
C4 C1 1_555 1_555
C5 C6 1_555 1_555
C6 H3 1_555 1_555
C7 C5 1_555 1_555
H4 C7 1_555 1_555
C8 O3 1_555 1_555
C9 N1 1_555 1_555
H5 C9 1_555 1_555
C10 N3 1_555 1_555
H6 C10 1_555 1_555
Zn1_2 O2A 1_555 1_555
Zn1_3 O3A 1_555 1_555
Zn2A O1A 1_555 1_555
Zn2_2 N3A 1_555 1_555
Zn2_3 O4A 1_555 1_555
Zn2A_2 O4 1_555 1_555
Zn2A_3 N3 1_555 1_555
O1A C4A 1_555 1_555
O2A C4A 1_555 1_555
O2A_2 Zn1 1_555 1_555
O3A C8A 1_555 1_555
O3A_2 Zn1 1_555 1_555
O4A C8A 1_555 1_555
O4_2 Zn2A 1_555 1_555
O4A_2 Zn2 1_555 1_555
N1A Zn1_2 1_555 1_555
N1A_2 Zn1 1_555 1_555
N2A Zn2A 1_555 1_555
N3A N2A 1_555 1_555
N3_2 Zn2A 1_555 1_555
N3A_2 Zn2 1_555 1_555
C1A C2A 1_555 1_555
C2A C3 1_555 1_555
H1A C2A 1_555 1_555
C3A C2 1_555 1_555
H2A C3A 1_555 1_555
C4A C1A 1_555 1_555
C5A C6A 1_555 1_555
C6A C7 1_555 1_555
H3A C6A 1_555 1_555
C7A C6 1_555 1_555
H4A C7A 1_555 1_555
C8A C5A 1_555 1_555
C9A N1A 1_555 1_555
H5A C9A 1_555 1_555
C10A N3A 1_555 1_555
H6A C10A 1_555 1_555
N1 N2 1_555 1_555
C5 C8 1_555 1_555
C9 C10 1_555 1_555
N1A N2A 1_555 1_555
C1A C3A 1_555 1_555
C5A C7A 1_555 1_555
C9A C10A 1_555 1_555

#END
