
#######################################################################
#
#                 Cambridge Crystallographic Data Centre
#                                CCDC 
#
#######################################################################
#
# If this CIF has been generated from an entry in the Cambridge 
# Structural Database, then it will include bibliographic, chemical, 
# crystal, experimental, refinement or atomic coordinate data resulting 
# from the CCDC's data processing and validation procedures.
#
#######################################################################

data_MEBMEM01
_symmetry_cell_setting           tetragonal
_symmetry_space_group_name_H-M   'P -4 n 2'
_symmetry_Int_Tables_number      118
_space_group_name_Hall           'P -4 -2n'
loop_
_symmetry_equiv_pos_site_id
_symmetry_equiv_pos_as_xyz
1 x,y,z
2 -x,-y,z
3 y,-x,-z
4 -y,x,-z
5 1/2+x,1/2-y,1/2+z
6 1/2-x,1/2+y,1/2+z
7 1/2+y,1/2+x,1/2-z
8 1/2-y,1/2-x,1/2-z
_cell_length_a                   19.3474(13)
_cell_length_b                   19.3474(13)
_cell_length_c                   3.5013(4)
_cell_angle_alpha                90
_cell_angle_beta                 90
_cell_angle_gamma                90
_cell_volume                     1310.61
loop_
_atom_site_label
_atom_site_type_symbol
_atom_site_fract_x
_atom_site_fract_y
_atom_site_fract_z
Ag1 Ag 0.83553(18) 0.33553(18) 0.7500
Ag2 Ag 0.54448(12) 0.37694(13) 0.0051(10)
N1 N 0.7513(10) 0.3816(10) 0.452(7)
N2 N 0.6414(10) 0.3944(11) 0.225(7)
N3 N 0.6747(11) 0.4585(10) 0.207(7)
C1 C 0.6886(18) 0.3527(16) 0.372(8)
C2 C 0.7351(18) 0.4457(15) 0.368(8)
H1 H 0.7657 0.4815 0.4219
N4 N 0.678(3) 0.283(3) 0.41(2)
H2 H 0.6398 0.2645 0.3403
H3 H 0.7101 0.2572 0.5085
Cl1 Cl 0.5000 0.5000 0.5000
Ag1A Ag 0.16447(18) 0.66447(18) 0.7500
Ag2A Ag 0.45552(12) 0.62306(13) 0.0051(10)
N1A N 0.2487(10) 0.6184(10) 0.452(7)
N2A N 0.3586(10) 0.6056(11) 0.225(7)
N3A N 0.3253(11) 0.5415(10) 0.207(7)
C1A C 0.3114(18) 0.6473(16) 0.372(8)
C2A C 0.2649(18) 0.5543(15) 0.368(8)
H1A H 0.2343 0.5185 0.4219
N4A N 0.322(3) 0.717(3) 0.41(2)
H2A H 0.3602 0.7355 0.3403
H3A H 0.2899 0.7428 0.5085
Ag2B Ag 0.37694(13) 0.45552(12) -0.0051(10)
N1B N 0.3816(10) 0.2487(10) -0.452(7)
N2B N 0.3944(11) 0.3586(10) -0.225(7)
N3B N 0.4585(10) 0.3253(11) -0.207(7)
C1B C 0.3527(16) 0.3114(18) -0.372(8)
C2B C 0.4457(15) 0.2649(18) -0.368(8)
H1B H 0.4815 0.2343 -0.4219
N4B N 0.283(3) 0.322(3) -0.41(2)
H2B H 0.2645 0.3602 -0.3403
H3B H 0.2572 0.2899 -0.5085
Ag2C Ag 0.62306(13) 0.54448(12) -0.0051(10)
N1C N 0.6184(10) 0.7513(10) -0.452(7)
N2C N 0.6056(11) 0.6414(10) -0.225(7)
N3C N 0.5415(10) 0.6747(11) -0.207(7)
C1C C 0.6473(16) 0.6886(18) -0.372(8)
C2C C 0.5543(15) 0.7351(18) -0.368(8)
H1C H 0.5185 0.7657 -0.4219
N4C N 0.717(3) 0.678(3) -0.41(2)
H2C H 0.7355 0.6398 -0.3403
H3C H 0.7428 0.7101 -0.5085
Ag1B Ag 0.33553(18) 0.16447(18) -0.7500
Ag1C Ag 0.66447(18) 0.83553(18) -0.7500
Ag2_2 Ag 0.54448(12) 0.37694(13) 1.0051(10)
Ag2A_2 Ag 0.45552(12) 0.62306(13) 1.0051(10)
Ag2B_2 Ag 0.37694(13) 0.45552(12) 0.9949(10)
Ag2C_2 Ag 0.62306(13) 0.54448(12) 0.9949(10)
N1F N 0.8816(10) 0.2513(10) 1.048(7)
N1G N 0.1184(10) 0.7487(10) 1.048(7)
Cl1_2 Cl 0.5000 0.5000 -0.5000
O1 O 0.927(4) 0.427(4) 0.7500
O1A O 0.073(4) 0.573(4) 0.7500
N5? N 0.780(3) 0.500(3) 0.399(18)
H4? H 0.8214 0.4926 0.4775
H5? H 0.7666 0.5406 0.3404
O2? O 0.920(6) 0.437(6) 0.98(5)
H6? H 0.9521 0.4236 1.1351
H7? H 0.9554 0.4030 0.6175
H8? H 0.6796 0.3062 0.4177
loop_
_geom_bond_atom_site_label_1
_geom_bond_atom_site_label_2
_geom_bond_site_symmetry_1
_geom_bond_site_symmetry_2
Ag1 N1 1_555 1_555
Ag2 N2 1_555 1_555
N1 C1 1_555 1_555
N2 N3 1_555 1_555
N3 C2 1_555 1_555
C1 N2 1_555 1_555
C2 N1 1_555 1_555
H1 C2 1_555 1_555
N4 C1 1_555 1_555
H2 N4 1_555 1_555
H3 N4 1_555 1_555
Cl1 Ag2 1_555 1_555
Ag1A N1A 1_555 1_555
Ag2A Cl1 1_555 1_555
N1A C1A 1_555 1_555
N2A Ag2A 1_555 1_555
N3A N2A 1_555 1_555
C1A N2A 1_555 1_555
C2A N1A 1_555 1_555
H1A C2A 1_555 1_555
N4A C1A 1_555 1_555
H2A N4A 1_555 1_555
H3A N4A 1_555 1_555
Ag2B Cl1 1_555 1_555
N1B C1B 1_555 1_555
N2B Ag2B 1_555 1_555
N3B Ag2 1_555 1_555
C1B N2B 1_555 1_555
C2B N1B 1_555 1_555
H1B C2B 1_555 1_555
N4B C1B 1_555 1_555
H2B N4B 1_555 1_555
H3B N4B 1_555 1_555
Ag2C N3 1_555 1_555
N1C C1C 1_555 1_555
N2C Ag2C 1_555 1_555
N3C Ag2A 1_555 1_555
C1C N2C 1_555 1_555
C2C N1C 1_555 1_555
H1C C2C 1_555 1_555
N4C C1C 1_555 1_555
H2C N4C 1_555 1_555
H3C N4C 1_555 1_555
Ag1B N1B 1_555 1_555
Ag1C N1C 1_555 1_555
Ag2_2 Cl1 1_555 1_555
Ag2A_2 Cl1 1_555 1_555
Ag2B_2 Cl1 1_555 1_555
Ag2C_2 Cl1 1_555 1_555
N1F Ag1 1_555 1_555
N1G Ag1A 1_555 1_555
Cl1_2 Ag2 1_555 1_555
Cl1 Ag2C 1_555 1_555
Ag2A Cl1_2 1_555 1_555
N3A C2A 1_555 1_555
N3A Ag2B 1_555 1_555
Ag2B Cl1_2 1_555 1_555
N2B N3B 1_555 1_555
N3B C2B 1_555 1_555
Ag2C Cl1_2 1_555 1_555
N2C N3C 1_555 1_555
N3C C2C 1_555 1_555

#END
