
#######################################################################
#
#                 Cambridge Crystallographic Data Centre
#                                CCDC 
#
#######################################################################
#
# If this CIF has been generated from an entry in the Cambridge 
# Structural Database, then it will include bibliographic, chemical, 
# crystal, experimental, refinement or atomic coordinate data resulting 
# from the CCDC's data processing and validation procedures.
#
#######################################################################

data_MEHMET
_symmetry_cell_setting           cubic
_symmetry_space_group_name_H-M   'F m 3 m'
_symmetry_Int_Tables_number      225
_space_group_name_Hall           '-F 4 2 3'
loop_
_symmetry_equiv_pos_site_id
_symmetry_equiv_pos_as_xyz
1 x,y,z
2 -y,x,z
3 -x,-y,z
4 y,-x,z
5 x,-z,y
6 x,-y,-z
7 x,z,-y
8 z,y,-x
9 -x,y,-z
10 -z,y,x
11 z,x,y
12 y,z,x
13 -y,-z,x
14 z,-x,-y
15 -y,z,-x
16 -z,-x,y
17 -z,x,-y
18 y,-z,-x
19 y,x,-z
20 -y,-x,-z
21 -x,z,y
22 -x,-z,-y
23 z,-y,x
24 -z,-y,-x
25 x,1/2+y,1/2+z
26 -y,1/2+x,1/2+z
27 -x,1/2-y,1/2+z
28 y,1/2-x,1/2+z
29 x,1/2-z,1/2+y
30 x,1/2-y,1/2-z
31 x,1/2+z,1/2-y
32 z,1/2+y,1/2-x
33 -x,1/2+y,1/2-z
34 -z,1/2+y,1/2+x
35 z,1/2+x,1/2+y
36 y,1/2+z,1/2+x
37 -y,1/2-z,1/2+x
38 z,1/2-x,1/2-y
39 -y,1/2+z,1/2-x
40 -z,1/2-x,1/2+y
41 -z,1/2+x,1/2-y
42 y,1/2-z,1/2-x
43 y,1/2+x,1/2-z
44 -y,1/2-x,1/2-z
45 -x,1/2+z,1/2+y
46 -x,1/2-z,1/2-y
47 z,1/2-y,1/2+x
48 -z,1/2-y,1/2-x
49 1/2+x,y,1/2+z
50 1/2-y,x,1/2+z
51 1/2-x,-y,1/2+z
52 1/2+y,-x,1/2+z
53 1/2+x,-z,1/2+y
54 1/2+x,-y,1/2-z
55 1/2+x,z,1/2-y
56 1/2+z,y,1/2-x
57 1/2-x,y,1/2-z
58 1/2-z,y,1/2+x
59 1/2+z,x,1/2+y
60 1/2+y,z,1/2+x
61 1/2-y,-z,1/2+x
62 1/2+z,-x,1/2-y
63 1/2-y,z,1/2-x
64 1/2-z,-x,1/2+y
65 1/2-z,x,1/2-y
66 1/2+y,-z,1/2-x
67 1/2+y,x,1/2-z
68 1/2-y,-x,1/2-z
69 1/2-x,z,1/2+y
70 1/2-x,-z,1/2-y
71 1/2+z,-y,1/2+x
72 1/2-z,-y,1/2-x
73 1/2+x,1/2+y,z
74 1/2-y,1/2+x,z
75 1/2-x,1/2-y,z
76 1/2+y,1/2-x,z
77 1/2+x,1/2-z,y
78 1/2+x,1/2-y,-z
79 1/2+x,1/2+z,-y
80 1/2+z,1/2+y,-x
81 1/2-x,1/2+y,-z
82 1/2-z,1/2+y,x
83 1/2+z,1/2+x,y
84 1/2+y,1/2+z,x
85 1/2-y,1/2-z,x
86 1/2+z,1/2-x,-y
87 1/2-y,1/2+z,-x
88 1/2-z,1/2-x,y
89 1/2-z,1/2+x,-y
90 1/2+y,1/2-z,-x
91 1/2+y,1/2+x,-z
92 1/2-y,1/2-x,-z
93 1/2-x,1/2+z,y
94 1/2-x,1/2-z,-y
95 1/2+z,1/2-y,x
96 1/2-z,1/2-y,-x
97 -x,-y,-z
98 y,-x,-z
99 x,y,-z
100 -y,x,-z
101 -x,z,-y
102 -x,y,z
103 -x,-z,y
104 -z,-y,x
105 x,-y,z
106 z,-y,-x
107 -z,-x,-y
108 -y,-z,-x
109 y,z,-x
110 -z,x,y
111 y,-z,x
112 z,x,-y
113 z,-x,y
114 -y,z,x
115 -y,-x,z
116 y,x,z
117 x,-z,-y
118 x,z,y
119 -z,y,-x
120 z,y,x
121 -x,1/2-y,1/2-z
122 y,1/2-x,1/2-z
123 x,1/2+y,1/2-z
124 -y,1/2+x,1/2-z
125 -x,1/2+z,1/2-y
126 -x,1/2+y,1/2+z
127 -x,1/2-z,1/2+y
128 -z,1/2-y,1/2+x
129 x,1/2-y,1/2+z
130 z,1/2-y,1/2-x
131 -z,1/2-x,1/2-y
132 -y,1/2-z,1/2-x
133 y,1/2+z,1/2-x
134 -z,1/2+x,1/2+y
135 y,1/2-z,1/2+x
136 z,1/2+x,1/2-y
137 z,1/2-x,1/2+y
138 -y,1/2+z,1/2+x
139 -y,1/2-x,1/2+z
140 y,1/2+x,1/2+z
141 x,1/2-z,1/2-y
142 x,1/2+z,1/2+y
143 -z,1/2+y,1/2-x
144 z,1/2+y,1/2+x
145 1/2-x,-y,1/2-z
146 1/2+y,-x,1/2-z
147 1/2+x,y,1/2-z
148 1/2-y,x,1/2-z
149 1/2-x,z,1/2-y
150 1/2-x,y,1/2+z
151 1/2-x,-z,1/2+y
152 1/2-z,-y,1/2+x
153 1/2+x,-y,1/2+z
154 1/2+z,-y,1/2-x
155 1/2-z,-x,1/2-y
156 1/2-y,-z,1/2-x
157 1/2+y,z,1/2-x
158 1/2-z,x,1/2+y
159 1/2+y,-z,1/2+x
160 1/2+z,x,1/2-y
161 1/2+z,-x,1/2+y
162 1/2-y,z,1/2+x
163 1/2-y,-x,1/2+z
164 1/2+y,x,1/2+z
165 1/2+x,-z,1/2-y
166 1/2+x,z,1/2+y
167 1/2-z,y,1/2-x
168 1/2+z,y,1/2+x
169 1/2-x,1/2-y,-z
170 1/2+y,1/2-x,-z
171 1/2+x,1/2+y,-z
172 1/2-y,1/2+x,-z
173 1/2-x,1/2+z,-y
174 1/2-x,1/2+y,z
175 1/2-x,1/2-z,y
176 1/2-z,1/2-y,x
177 1/2+x,1/2-y,z
178 1/2+z,1/2-y,-x
179 1/2-z,1/2-x,-y
180 1/2-y,1/2-z,-x
181 1/2+y,1/2+z,-x
182 1/2-z,1/2+x,y
183 1/2+y,1/2-z,x
184 1/2+z,1/2+x,-y
185 1/2+z,1/2-x,y
186 1/2-y,1/2+z,x
187 1/2-y,1/2-x,z
188 1/2+y,1/2+x,z
189 1/2+x,1/2-z,-y
190 1/2+x,1/2+z,y
191 1/2-z,1/2+y,-x
192 1/2+z,1/2+y,x
_cell_length_a                   48.8930(16)
_cell_length_b                   48.8930(16)
_cell_length_c                   48.8930(16)
_cell_angle_alpha                90
_cell_angle_beta                 90
_cell_angle_gamma                90
_cell_volume                     116880
loop_
_atom_site_label
_atom_site_type_symbol
_atom_site_fract_x
_atom_site_fract_y
_atom_site_fract_z
Cu1 Cu 0.5000 0.614749(19) 0.114749(19)
Cu2 Cu 0.5000 0.65320(2) 0.15320(2)
O1 O 0.47192(8) 0.59820(8) 0.13750(8)
O2 O 0.47119(9) 0.63061(8) 0.17028(8)
O3 O 0.5000 0.58264(10) 0.08264(10)
O4 O 0.5000 0.68454(11) 0.18454(11)
C1 C 0.46337(11) 0.60986(12) 0.15761(11)
C2 C 0.44108(12) 0.59344(13) 0.17459(12)
C3 C 0.42806(11) 0.57194(11) 0.16092(17)
H1 H 0.4335 0.5665 0.1433
C4 C 0.43272(13) 0.60359(14) 0.19747(14)
H2 H 0.4400 0.6200 0.2044
C5 C 0.4115(2) 0.5885(2) 0.2121(2)
C6 C 0.39984(19) 0.60016(19) 0.2375(2)
C7 C 0.3928(3) 0.6072(3) 0.2595(3)
C8 C 0.3816(3) 0.6184(3) 0.2824(3)
C9 C 0.3744(2) 0.6256(2) 0.3045(3)
C10 C 0.3633(2) 0.6367(2) 0.3293(3)
C11 C 0.3741(3) 0.6606(2) 0.3394(2)
H3 H 0.3884 0.6697 0.3303
Cu1A Cu 0.385251(19) 0.5000 0.114749(19)
Cu1U Cu 0.5000 0.885251(19) 0.385251(19)
Cu1L Cu 0.385251(19) 0.885251(19) 0.5000
Cu1G Cu 0.114749(19) 0.614749(19) 0.5000
Cu1M Cu 0.114749(19) 0.5000 0.385251(19)
Cu2A Cu 0.34680(2) 0.5000 0.15320(2)
Cu2U Cu 0.5000 0.84680(2) 0.34680(2)
Cu2L Cu 0.34680(2) 0.84680(2) 0.5000
Cu2G Cu 0.15320(2) 0.65320(2) 0.5000
Cu2M Cu 0.15320(2) 0.5000 0.34680(2)
O1JD O 0.40180(8) 0.52808(8) 0.13750(8)
O1LD O 0.47192(8) 0.86250(8) 0.40180(8)
O1L O 0.40180(8) 0.86250(8) 0.47192(8)
O1OD O 0.13750(8) 0.59820(8) 0.47192(8)
O1M O 0.13750(8) 0.52808(8) 0.40180(8)
O1RA O 0.52808(8) 0.63750(8) 0.09820(8)
O1WC O 0.52808(8) 0.59820(8) 0.13750(8)
O1KE O 0.47192(8) 0.63750(8) 0.09820(8)
O2JD O 0.36939(8) 0.52881(9) 0.17028(8)
O2LD O 0.47119(9) 0.82972(8) 0.36939(8)
O2L O 0.36939(8) 0.82972(8) 0.47119(9)
O2OD O 0.17028(8) 0.63061(8) 0.47119(9)
O2M O 0.17028(8) 0.52881(9) 0.36939(8)
O2RA O 0.52881(9) 0.67028(8) 0.13061(8)
O2WC O 0.52881(9) 0.63061(8) 0.17028(8)
O2KE O 0.47119(9) 0.67028(8) 0.13061(8)
O2AF O 0.32972(8) 0.47119(9) 0.13061(8)
O2A O 0.36939(8) 0.47119(9) 0.17028(8)
O2KB O 0.32972(8) 0.52881(9) 0.13061(8)
O4A O 0.31546(11) 0.5000 0.18454(11)
C1JD C 0.39014(12) 0.53663(11) 0.15761(11)
C1LD C 0.46337(11) 0.84239(11) 0.39014(12)
C1L C 0.39014(12) 0.84239(11) 0.46337(11)
C1OD C 0.15761(11) 0.60986(12) 0.46337(11)
C1M C 0.15761(11) 0.53663(11) 0.39014(12)
C2JD C 0.40656(13) 0.55892(12) 0.17459(12)
C2LD C 0.44108(12) 0.82541(12) 0.40656(13)
C2L C 0.40656(13) 0.82541(12) 0.44108(12)
C2OD C 0.17459(12) 0.59344(13) 0.44108(12)
C2M C 0.17459(12) 0.55892(12) 0.40656(13)
C3L C 0.42806(11) 0.83908(17) 0.42806(11)
C3M C 0.16092(17) 0.57194(11) 0.42806(11)
H1L H 0.4335 0.8567 0.4335
H1M H 0.1433 0.5665 0.4335
C4JD C 0.39641(14) 0.56728(13) 0.19747(14)
C4LD C 0.43272(13) 0.80253(14) 0.39641(14)
C4L C 0.39641(14) 0.80253(14) 0.43272(13)
C4OD C 0.19747(14) 0.60359(14) 0.43272(13)
C4M C 0.19747(14) 0.56728(13) 0.39641(14)
H2JD H 0.3800 0.5600 0.2044
H2L H 0.3800 0.7956 0.4400
H2LD H 0.4400 0.7956 0.3800
H2M H 0.2044 0.5600 0.3800
H2OD H 0.2044 0.6200 0.4400
C5L C 0.4115(2) 0.7879(2) 0.4115(2)
C5M C 0.2121(2) 0.5885(2) 0.4115(2)
C6L C 0.39984(19) 0.7625(2) 0.39984(19)
C6M C 0.2375(2) 0.60016(19) 0.39984(19)
C7L C 0.3928(3) 0.7405(3) 0.3928(3)
C7M C 0.2595(3) 0.6072(3) 0.3928(3)
C8L C 0.3816(3) 0.7176(3) 0.3816(3)
C8M C 0.2824(3) 0.6184(3) 0.3816(3)
C9L C 0.3744(2) 0.6955(3) 0.3744(2)
C9M C 0.3045(3) 0.6256(2) 0.3744(2)
C10L C 0.3633(2) 0.6707(3) 0.3633(2)
C10M C 0.3293(3) 0.6367(2) 0.3633(2)
C11L C 0.3394(2) 0.6606(2) 0.3741(3)
C11M C 0.3394(2) 0.6259(3) 0.3394(2)
H3M H 0.3303 0.6116 0.3303
H3L H 0.3303 0.6697 0.3884
loop_
_geom_bond_atom_site_label_1
_geom_bond_atom_site_label_2
_geom_bond_site_symmetry_1
_geom_bond_site_symmetry_2
Cu1 Cu2 1_555 1_555
Cu2 O2 1_555 1_555
O1 Cu1 1_555 1_555
O2 C1 1_555 1_555
O3 Cu1 1_555 1_555
O4 Cu2 1_555 1_555
C1 O1 1_555 1_555
C2 C1 1_555 1_555
C3 C2 1_555 1_555
H1 C3 1_555 1_555
C4 C2 1_555 1_555
H2 C4 1_555 1_555
C5 C4 1_555 1_555
C6 C5 1_555 1_555
C7 C6 1_555 1_555
C8 C7 1_555 1_555
C9 C8 1_555 1_555
C10 C9 1_555 1_555
C11 C10 1_555 1_555
H3 C11 1_555 1_555
Cu1A Cu2A 1_555 1_555
Cu1U Cu2U 1_555 1_555
Cu1L Cu2L 1_555 1_555
Cu1G Cu2G 1_555 1_555
Cu1M Cu2M 1_555 1_555
Cu2A O2JD 1_555 1_555
Cu2U O2LD 1_555 1_555
Cu2L O2L 1_555 1_555
Cu2G O2OD 1_555 1_555
Cu2M O2M 1_555 1_555
O1JD Cu1A 1_555 1_555
O1LD Cu1U 1_555 1_555
O1L Cu1L 1_555 1_555
O1OD Cu1G 1_555 1_555
O1M Cu1M 1_555 1_555
O1RA Cu1 1_555 1_555
O1WC Cu1 1_555 1_555
O1KE Cu1 1_555 1_555
O2JD C1JD 1_555 1_555
O2LD C1LD 1_555 1_555
O2L C1L 1_555 1_555
O2OD C1OD 1_555 1_555
O2M C1M 1_555 1_555
O2RA Cu2 1_555 1_555
O2WC Cu2 1_555 1_555
O2KE Cu2 1_555 1_555
O2AF Cu2A 1_555 1_555
O2A Cu2A 1_555 1_555
O2KB Cu2A 1_555 1_555
O4A Cu2A 1_555 1_555
C1JD O1JD 1_555 1_555
C1LD O1LD 1_555 1_555
C1L O1L 1_555 1_555
C1OD O1OD 1_555 1_555
C1M O1M 1_555 1_555
C2JD C3 1_555 1_555
C2LD C1LD 1_555 1_555
C2L C1L 1_555 1_555
C2OD C1OD 1_555 1_555
C2M C1M 1_555 1_555
C3L C2LD 1_555 1_555
C3M C2OD 1_555 1_555
H1L C3L 1_555 1_555
H1M C3M 1_555 1_555
C4JD C5 1_555 1_555
C4LD C2LD 1_555 1_555
C4L C2L 1_555 1_555
C4OD C2OD 1_555 1_555
C4M C2M 1_555 1_555
H2JD C4JD 1_555 1_555
H2L C4L 1_555 1_555
H2LD C4LD 1_555 1_555
H2M C4M 1_555 1_555
H2OD C4OD 1_555 1_555
C5L C4LD 1_555 1_555
C5M C4OD 1_555 1_555
C6L C5L 1_555 1_555
C6M C5M 1_555 1_555
C7L C6L 1_555 1_555
C7M C6M 1_555 1_555
C8L C7L 1_555 1_555
C8M C7M 1_555 1_555
C9L C8L 1_555 1_555
C9M C8M 1_555 1_555
C10L C11 1_555 1_555
C10M C9M 1_555 1_555
C11L C10L 1_555 1_555
C11M C10 1_555 1_555
H3M C11M 1_555 1_555
H3L C11L 1_555 1_555
C1JD C2JD 1_555 1_555
C2JD C4JD 1_555 1_555
C2L C3L 1_555 1_555
C2M C3M 1_555 1_555
C4L C5L 1_555 1_555
C4M C5M 1_555 1_555
C9L C10L 1_555 1_555
C10M C11L 1_555 1_555
C10M C11M 1_555 1_555

#END
