
#######################################################################
#
#                 Cambridge Crystallographic Data Centre
#                                CCDC 
#
#######################################################################
#
# If this CIF has been generated from an entry in the Cambridge 
# Structural Database, then it will include bibliographic, chemical, 
# crystal, experimental, refinement or atomic coordinate data resulting 
# from the CCDC's data processing and validation procedures.
#
#######################################################################

data_MEKBAH
_symmetry_cell_setting           triclinic
_symmetry_space_group_name_H-M   'P -1'
_symmetry_Int_Tables_number      2
_space_group_name_Hall           '-P 1'
loop_
_symmetry_equiv_pos_site_id
_symmetry_equiv_pos_as_xyz
1 x,y,z
2 -x,-y,-z
_cell_length_a                   14.976(4)
_cell_length_b                   15.080(4)
_cell_length_c                   15.116(5)
_cell_angle_alpha                105.192(4)
_cell_angle_beta                 103.772(4)
_cell_angle_gamma                117.338(4)
_cell_volume                     2658.48
loop_
_atom_site_label
_atom_site_type_symbol
_atom_site_fract_x
_atom_site_fract_y
_atom_site_fract_z
Tb1 Tb 0.18351(5) -0.11122(5) 0.32022(4)
Tb2 Tb 0.44266(5) 0.13210(5) 0.30245(4)
Tb3 Tb 0.58388(5) -0.06087(5) 0.35849(4)
P1 P 0.3841(2) -0.1394(3) 0.4780(2)
P2 P 0.3064(2) -0.1690(3) 0.2016(2)
P3 P 0.3741(3) 0.1863(3) 0.4768(2)
O1 O 0.4444(6) -0.0936(6) 0.5930(5)
O2 O 0.4564(6) -0.1240(7) 0.4215(6)
O3 O 0.3182(6) -0.0872(6) 0.4633(5)
O4 O 0.0656(11) -0.6155(12) -0.0304(8)
O5 O 0.2256(14) -0.5982(15) -0.0021(10)
H1 H 0.2007 -0.6222 -0.0659
O6 O 0.2204(6) -0.2427(6) 0.2320(6)
O7 O 0.3269(6) -0.0558(7) 0.2509(6)
O8 O 0.4075(6) -0.1703(6) 0.2176(6)
O9 O 0.5037(7) -0.0536(7) -0.1845(6)
O10 O 0.3707(7) -0.0268(7) -0.2487(6)
O11 O 0.3877(6) 0.1777(7) 0.5761(6)
O12 O 0.3108(6) 0.0761(6) 0.3857(6)
O13 O 0.4789(6) 0.2601(7) 0.4657(6)
O14 O -0.2185(6) 0.0379(7) 0.4026(6)
O15 O -0.1390(7) 0.0417(7) 0.5485(6)
O16 O 0.0907(7) -0.2670(7) 0.3639(7)
O17 O -0.0175(7) -0.2856(7) 0.2250(7)
O18 O -0.3560(7) -0.7243(7) 0.3555(6)
O19 O -0.4722(8) -0.7020(8) 0.2600(8)
O20 O 0.0588(7) -0.0539(8) 0.2602(6)
O21 O 0.1030(7) -0.1314(8) 0.1511(6)
O22 O -0.3045(7) -0.1799(8) -0.2451(6)
O23 O -0.3200(7) -0.0725(8) -0.1308(7)
O24 O 0.5946(8) -0.1859(8) 0.2304(7)
H2 H 0.6558 -0.1511 0.2264
H3 H 0.5894 -0.2378 0.2459
N1 N 0.2533(8) -0.3575(8) 0.3246(7)
H18 H 0.2473 -0.3181 0.2908
N2 N 0.2893(8) -0.1604(8) 0.0161(7)
H19 H 0.3437 -0.0916 0.0637
N3 N 0.1813(8) 0.1775(8) 0.4577(7)
H20 H 0.1640 0.1082 0.4428
C1 C 0.2893(10) -0.2904(10) 0.4327(9)
H21 H 0.3246 -0.3151 0.4721
H22 H 0.2243 -0.3049 0.4436
C2 C 0.1439(11) -0.4654(11) 0.2791(10)
H23 H 0.1509 -0.5122 0.3088
H24 H 0.0907 -0.4527 0.2938
C3 C 0.1043(12) -0.5232(12) 0.1667(11)
H25 H 0.0339 -0.5923 0.1382
H26 H 0.0955 -0.4772 0.1368
C4 C 0.1891(12) -0.5423(12) 0.1412(11)
H27 H 0.1913 -0.5954 0.1639
C5 C 0.3060(12) -0.4345(12) 0.1960(10)
H28 H 0.3592 -0.4497 0.1857
H29 H 0.3064 -0.3843 0.1677
C6 C 0.3369(11) -0.3807(12) 0.3075(10)
H30 H 0.4096 -0.3137 0.3420
H31 H 0.3366 -0.4312 0.3352
C7 C 0.1588(17) -0.5880(14) 0.0243(14)
C8 C 0.2257(10) -0.2218(11) 0.0662(9)
H32 H 0.1630 -0.2165 0.0575
H33 H 0.1987 -0.2985 0.0327
C9 C 0.3401(10) -0.2161(10) -0.0277(9)
H34 H 0.2826 -0.2902 -0.0773
H35 H 0.3866 -0.2201 0.0249
C10 C 0.4076(10) -0.1536(11) -0.0761(9)
H36 H 0.4346 -0.1938 -0.1077
H37 H 0.4705 -0.0830 -0.0247
C11 C 0.3426(10) -0.1342(11) -0.1535(9)
H38 H 0.2863 -0.2058 -0.2079
C12 C 0.2811(10) -0.0886(10) -0.1127(9)
H39 H 0.2314 -0.0888 -0.1664
H40 H 0.3348 -0.0133 -0.0638
C13 C 0.2190(10) -0.1509(11) -0.0623(9)
H41 H 0.1873 -0.1152 -0.0329
H42 H 0.1597 -0.2240 -0.1125
C14 C 0.4123(10) -0.0652(10) -0.1993(9)
C15 C 0.2915(9) 0.2445(10) 0.4584(9)
H43 H 0.3306 0.3173 0.5119
H44 H 0.2819 0.2509 0.3958
C16 C 0.0941(9) 0.1726(10) 0.3812(9)
H45 H 0.1115 0.2464 0.3993
H46 H 0.0945 0.1465 0.3162
C17 C -0.0203(10) 0.1000(10) 0.3761(9)
H47 H -0.0743 0.0996 0.3265
H48 H -0.0391 0.0256 0.3566
C18 C -0.0223(10) 0.1407(10) 0.4790(8)
H49 H -0.0081 0.2131 0.4946
C19 C 0.0707(10) 0.1526(10) 0.5606(9)
H50 H 0.0735 0.1861 0.6256
H51 H 0.0550 0.0804 0.5497
C20 C 0.1842(10) 0.2229(10) 0.5581(9)
H52 H 0.2410 0.2266 0.6079
H53 H 0.2026 0.2968 0.5737
C21 C -0.1365(10) 0.0666(10) 0.4767(9)
C22 C 0.0451(11) -0.0962(11) 0.1700(10)
C23 C -0.0374(11) -0.1026(11) 0.0871(10)
C24 C -0.0470(10) -0.1426(11) -0.0106(9)
H54 H 0.0005 -0.1656 -0.0235
C25 C -0.1257(10) -0.1505(11) -0.0916(10)
H55 H -0.1295 -0.1740 -0.1586
C26 C -0.1965(11) -0.1233(11) -0.0712(10)
C27 C -0.1907(11) -0.0876(11) 0.0243(9)
H56 H -0.2401 -0.0674 0.0368
C28 C -0.1125(10) -0.0798(11) 0.1039(10)
H57 H -0.1116 -0.0597 0.1700
C29 C -0.2782(10) -0.1264(11) -0.1542(10)
C30 C -0.0036(10) -0.3169(10) 0.2934(9)
C31 C -0.1017(10) -0.4127(11) 0.2946(9)
C32 C -0.0842(10) -0.4428(11) 0.3702(10)
H58 H -0.0103 -0.4058 0.4202
C33 C -0.1726(10) -0.5270(11) 0.3757(10)
H59 H -0.1609 -0.5502 0.4284
C34 C -0.2781(10) -0.5772(11) 0.3042(10)
C35 C -0.2946(11) -0.5473(11) 0.2269(10)
H60 H -0.3683 -0.5815 0.1777
C36 C -0.2051(10) -0.4658(11) 0.2219(9)
H61 H -0.2155 -0.4467 0.1663
C37 C -0.3742(11) -0.6726(11) 0.3065(10)
Tb1A Tb -0.18351(5) 0.11122(5) 0.67978(4)
Tb2A Tb 0.55734(5) -0.13210(5) 0.69755(4)
Tb2A_2 Tb 0.55734(5) -0.13210(5) -0.30245(4)
Tb2_2 Tb -0.55734(5) -0.86790(5) 0.30245(4)
Tb2A_3 Tb -0.44266(5) -0.13210(5) -0.30245(4)
Tb3A Tb 0.41612(5) 0.06087(5) 0.64151(4)
Tb3A_2 Tb 0.41612(5) 0.06087(5) -0.35849(4)
Tb3_2 Tb -0.41612(5) -0.06087(5) 0.35849(4)
O1A O 0.5556(6) 0.0936(6) 0.4070(5)
O3A O 0.6818(6) 0.0872(6) 0.5367(5)
O9A O 0.4963(7) 0.0536(7) 0.1845(6)
O10A O 0.6293(7) 0.0268(7) 0.2487(6)
O11A O 0.6123(6) -0.1777(7) 0.4239(6)
O14_2 O 0.7815(6) 0.0379(7) 0.4026(6)
O15A O 0.1390(7) -0.0417(7) 0.4515(6)
O18_2 O 0.6440(7) 0.2757(7) 0.3555(6)
O19_2 O 0.5278(8) 0.2980(8) 0.2600(8)
O22A O 0.3045(7) 0.1799(8) 0.2451(6)
O23A O 0.3200(7) 0.0725(8) 0.1308(7)
O25 O 0.8325(8) -0.7445(8) 0.4005(7)
H4 H 0.8296 -0.7642 0.4481
H5 H 0.8015 -0.8012 0.3451
O26 O 0.3937(14) -0.4797(11) 0.4940(12)
H6 H 0.4637 -0.4444 0.5154
H7 H 0.3752 -0.4914 0.5408
O27 O 0.6815(19) -0.3809(19) 0.7003(17)
H8 H 0.6739 -0.3799 0.7545
H9 H 0.6583 -0.4462 0.6614
O28 O 0.5873(19) -0.3801(17) 0.2059(19)
H10 H 0.6009 -0.4031 0.2498
H11 H 0.5516 -0.4334 0.1474
O29 O 0.764(4) -0.246(4) 0.186(4)
H12 H 0.8081 -0.2370 0.2406
H13 H 0.7317 -0.3124 0.1421
O30 O 0.0273(19) -0.321(2) 0.690(2)
H14 H -0.0056 -0.2938 0.7132
H15 H -0.0157 -0.3908 0.6604
O31 O 0.505(2) -0.523(3) 0.290(2)
H16 H 0.4953 -0.5547 0.3291
H17 H 0.4728 -0.5716 0.2295
loop_
_geom_bond_atom_site_label_1
_geom_bond_atom_site_label_2
_geom_bond_site_symmetry_1
_geom_bond_site_symmetry_2
Tb1 O3 1_555 1_555
Tb2 O7 1_555 1_555
Tb3 O2 1_555 1_555
P1 O1 1_555 1_555
P2 O6 1_555 1_555
P3 O11 1_555 1_555
O1 Tb2A 1_555 1_555
O2 P1 1_555 1_555
O3 P1 1_555 1_555
O4 C7 1_555 1_555
O5 H1 1_555 1_555
O6 Tb1 1_555 1_555
O7 Tb1 1_555 1_555
O8 Tb3 1_555 1_555
O9 C14 1_555 1_555
O10 C14 1_555 1_555
O11 Tb3A 1_555 1_555
O12 Tb1 1_555 1_555
O13 Tb2 1_555 1_555
O14 C21 1_555 1_555
O15 C21 1_555 1_555
O16 Tb1 1_555 1_555
O17 Tb1 1_555 1_555
O18 C37 1_555 1_555
O19 C37 1_555 1_555
O20 Tb1 1_555 1_555
O21 Tb1 1_555 1_555
O22 C29 1_555 1_555
O23 C29 1_555 1_555
O24 Tb3 1_555 1_555
H2 O24 1_555 1_555
H3 O24 1_555 1_555
O25 H4 1_555 1_555
H5 O25 1_555 1_555
O26 H6 1_555 1_555
H7 O26 1_555 1_555
O27 H8 1_555 1_555
H9 O27 1_555 1_555
O28 H10 1_555 1_555
H11 O28 1_555 1_555
O29 H12 1_555 1_555
H13 O29 1_555 1_555
O30 H14 1_555 1_555
H15 O30 1_555 1_555
O31 H16 1_555 1_555
H17 O31 1_555 1_555
N1 H18 1_555 1_555
N2 H19 1_555 1_555
N3 H20 1_555 1_555
C1 P1 1_555 1_555
H21 C1 1_555 1_555
H22 C1 1_555 1_555
C2 N1 1_555 1_555
H23 C2 1_555 1_555
H24 C2 1_555 1_555
C3 C2 1_555 1_555
H25 C3 1_555 1_555
H26 C3 1_555 1_555
C4 C3 1_555 1_555
H27 C4 1_555 1_555
C5 C4 1_555 1_555
H28 C5 1_555 1_555
H29 C5 1_555 1_555
C6 N1 1_555 1_555
H30 C6 1_555 1_555
H31 C6 1_555 1_555
C7 O5 1_555 1_555
C8 P2 1_555 1_555
H32 C8 1_555 1_555
H33 C8 1_555 1_555
C9 N2 1_555 1_555
H34 C9 1_555 1_555
H35 C9 1_555 1_555
C10 C9 1_555 1_555
H36 C10 1_555 1_555
H37 C10 1_555 1_555
C11 C10 1_555 1_555
H38 C11 1_555 1_555
C12 C11 1_555 1_555
H39 C12 1_555 1_555
H40 C12 1_555 1_555
C13 N2 1_555 1_555
H41 C13 1_555 1_555
H42 C13 1_555 1_555
C14 C11 1_555 1_555
C15 P3 1_555 1_555
H43 C15 1_555 1_555
H44 C15 1_555 1_555
C16 N3 1_555 1_555
H45 C16 1_555 1_555
H46 C16 1_555 1_555
C17 C16 1_555 1_555
H47 C17 1_555 1_555
H48 C17 1_555 1_555
C18 C17 1_555 1_555
H49 C18 1_555 1_555
C19 C18 1_555 1_555
H50 C19 1_555 1_555
H51 C19 1_555 1_555
C20 N3 1_555 1_555
H52 C20 1_555 1_555
H53 C20 1_555 1_555
C21 C18 1_555 1_555
C22 O20 1_555 1_555
C23 C22 1_555 1_555
C24 C23 1_555 1_555
H54 C24 1_555 1_555
C25 C24 1_555 1_555
H55 C25 1_555 1_555
C26 C25 1_555 1_555
C27 C26 1_555 1_555
H56 C27 1_555 1_555
C28 C23 1_555 1_555
H57 C28 1_555 1_555
C29 C26 1_555 1_555
C30 O16 1_555 1_555
C31 C30 1_555 1_555
C32 C31 1_555 1_555
H58 C32 1_555 1_555
C33 C32 1_555 1_555
H59 C33 1_555 1_555
C34 C33 1_555 1_555
C35 C34 1_555 1_555
H60 C35 1_555 1_555
C36 C31 1_555 1_555
H61 C36 1_555 1_555
C37 C34 1_555 1_555
Tb1A O15 1_555 1_555
Tb2A_2 O9 1_555 1_555
Tb2_2 O18 1_555 1_555
Tb2A_3 O22 1_555 1_555
Tb3A O1 1_555 1_555
Tb3A_2 O10 1_555 1_555
Tb3_2 O14 1_555 1_555
O1A Tb2 1_555 1_555
O3A Tb3 1_555 1_555
O9A Tb2 1_555 1_555
O10A Tb3 1_555 1_555
O11A Tb3 1_555 1_555
O14_2 Tb3 1_555 1_555
O15A Tb1 1_555 1_555
O18_2 Tb2 1_555 1_555
O19_2 Tb2 1_555 1_555
O22A Tb2 1_555 1_555
O23A Tb2 1_555 1_555
Tb2 O12 1_555 1_555
Tb3 O1A 1_555 1_555
P2 O7 1_555 1_555
P2 O8 1_555 1_555
P3 O12 1_555 1_555
P3 O13 1_555 1_555
O3 Tb3A 1_555 1_555
O17 C30 1_555 1_555
O19 Tb2_2 1_555 1_555
O21 C22 1_555 1_555
O23 Tb2A_3 1_555 1_555
N1 C1 1_555 1_555
N2 C8 1_555 1_555
N3 C15 1_555 1_555
C4 C7 1_555 1_555
C5 C6 1_555 1_555
C12 C13 1_555 1_555
C19 C20 1_555 1_555
C27 C28 1_555 1_555
C35 C36 1_555 1_555

#END
