
#######################################################################
#
#                 Cambridge Crystallographic Data Centre
#                                CCDC 
#
#######################################################################
#
# If this CIF has been generated from an entry in the Cambridge 
# Structural Database, then it will include bibliographic, chemical, 
# crystal, experimental, refinement or atomic coordinate data resulting 
# from the CCDC's data processing and validation procedures.
#
#######################################################################

data_MESGIB
_symmetry_cell_setting           orthorhombic
_symmetry_space_group_name_H-M   'C m c 21'
_symmetry_Int_Tables_number      36
_space_group_name_Hall           'C 2n -2'
loop_
_symmetry_equiv_pos_site_id
_symmetry_equiv_pos_as_xyz
1 x,y,z
2 -x,-y,1/2+z
3 x,-y,1/2+z
4 -x,y,z
5 1/2+x,1/2+y,z
6 1/2-x,1/2-y,1/2+z
7 1/2+x,1/2-y,1/2+z
8 1/2-x,1/2+y,z
_cell_length_a                   21.8529(6)
_cell_length_b                   15.5019(5)
_cell_length_c                   16.8985(5)
_cell_angle_alpha                90
_cell_angle_beta                 90
_cell_angle_gamma                90
_cell_volume                     5724.56
loop_
_atom_site_label
_atom_site_type_symbol
_atom_site_fract_x
_atom_site_fract_y
_atom_site_fract_z
Ag1 Ag 0.14122(2) 0.29449(4) 0.4534(3)
Ag2 Ag 0.14678(2) -0.03320(4) 0.2401(3)
N1 N 0.1148(3) 0.2368(4) 0.3305(5)
N2 N 0.1106(3) 0.1097(4) 0.2516(5)
N3 N 0.1959(3) 0.1753(4) 0.5202(5)
N4 N 0.1992(3) 0.0863(4) 0.6361(5)
N5 N 0.2313(3) 0.3732(4) 0.4453(5)
N6 N 0.3105(3) 0.4323(4) 0.3667(5)
N7 N 0.0542(2) 0.3195(4) 0.5243(5)
N8 N 0.0548(3) -0.1047(4) 0.2728(5)
C1 C 0.0936(4) 0.2810(5) 0.2707(7)
H1 H 0.0866(4) 0.3411(5) 0.2771(7)
C2 C 0.0808(4) 0.2434(7) 0.1981(7)
H2 H 0.0669(4) 0.2765(7) 0.1543(7)
C3 C 0.0894(4) 0.1569(6) 0.1928(6)
H3 H 0.0795(4) 0.1289(6) 0.1445(6)
C4 C 0.1225(3) 0.1534(6) 0.3184(6)
H4 H 0.1382(3) 0.1208(6) 0.3615(6)
C5 C 0.2556(4) 0.1578(5) 0.5066(6)
H5 H 0.2750(4) 0.1817(5) 0.4613(6)
C6 C 0.2889(4) 0.1059(6) 0.5571(6)
H6 H 0.3309(4) 0.0939(6) 0.5476(6)
C7 C 0.2589(4) 0.0719(5) 0.6220(6)
H7 H 0.2813(4) 0.0370(5) 0.6580(6)
C8 C 0.1718(3) 0.1373(5) 0.5841(6)
H8 H 0.1296(3) 0.1483(5) 0.5934(6)
C9 C 0.2668(4) 0.3813(6) 0.5085(6)
H9 H 0.2521(4) 0.3617(6) 0.5583(6)
C10 C 0.3243(4) 0.4171(6) 0.5043(6)
H10 H 0.3489(4) 0.4253(6) 0.5501(6)
C11 C 0.3442(4) 0.4405(5) 0.4301(5)
H11 H 0.3842(4) 0.4637(5) 0.4248(5)
C12 C 0.2537(4) 0.4010(5) 0.3774(5)
H12 H 0.2276(4) 0.3987(5) 0.3325(5)
C13 C 0.0542(3) 0.3501(6) 0.5974(6)
H13 H 0.0920(3) 0.3614(6) 0.6230(6)
C14 C 0.0000 0.3659(8) 0.6372(8)
H14 H 0.0000 0.3869(8) 0.6900(8)
C15 C 0.0000 0.3054(7) 0.4903(7)
H15 H 0.0000 0.2837(7) 0.4378(7)
C16 C 0.0536(4) -0.1814(5) 0.3100(6)
H16 H 0.0914(4) -0.2080(5) 0.3233(6)
C17 C 0.0000 -0.2231(8) 0.3296(10)
H17 H 0.0000 -0.2776(8) 0.3553(10)
C18 C 0.0000 -0.0696(6) 0.2597(7)
H18 H 0.0000 -0.0129(6) 0.2385(7)
Ag1C Ag -0.14122(2) 0.29449(4) 0.4534(3)
Ag1B Ag 0.14122(2) -0.29449(4) -0.0466(3)
Ag1G Ag 0.35878(2) -0.20551(4) 0.4534(3)
Ag2B Ag 0.14678(2) 0.03320(4) 0.7401(3)
Ag2G Ag 0.35322(2) 0.46680(4) 0.2401(3)
Ag2C Ag -0.14678(2) -0.03320(4) 0.2401(3)
N1C N -0.1148(3) 0.2368(4) 0.3305(5)
N2C N -0.1106(3) 0.1097(4) 0.2516(5)
N2B N 0.1106(3) -0.1097(4) 0.7516(5)
N3B N 0.1959(3) -0.1753(4) 0.0202(5)
N3C N -0.1959(3) 0.1753(4) 0.5202(5)
N4B N 0.1992(3) -0.0863(4) 0.1361(5)
N5G N 0.2687(3) -0.1268(4) 0.4453(5)
N5C N -0.2313(3) 0.3732(4) 0.4453(5)
N6G N 0.1895(3) -0.0677(4) 0.3667(5)
N6E N 0.1895(3) 0.0677(4) 0.8667(5)
N7C N -0.0542(2) 0.3195(4) 0.5243(5)
N8C N -0.0548(3) -0.1047(4) 0.2728(5)
N8B N 0.0548(3) 0.1047(4) 0.7728(5)
C1C C -0.0936(4) 0.2810(5) 0.2707(7)
H1C H -0.0866(4) 0.3411(5) 0.2771(7)
C2C C -0.0808(4) 0.2434(7) 0.1981(7)
H2C H -0.0669(4) 0.2765(7) 0.1543(7)
C3C C -0.0894(4) 0.1569(6) 0.1928(6)
H3C H -0.0795(4) 0.1289(6) 0.1445(6)
C4C C -0.1225(3) 0.1534(6) 0.3184(6)
H4C H -0.1382(3) 0.1208(6) 0.3615(6)
C5B C 0.2556(4) -0.1578(5) 0.0066(6)
H5B H 0.2750(4) -0.1817(5) -0.0387(6)
C6B C 0.2889(4) -0.1059(6) 0.0571(6)
H6B H 0.3309(4) -0.0939(6) 0.0476(6)
C7B C 0.2589(4) -0.0719(5) 0.1220(6)
H7B H 0.2813(4) -0.0370(5) 0.1580(6)
C8B C 0.1718(3) -0.1373(5) 0.0841(6)
H8B H 0.1296(3) -0.1483(5) 0.0934(6)
C9G C 0.2332(4) -0.1187(6) 0.5085(6)
H9G H 0.2479(4) -0.1383(6) 0.5583(6)
C10G C 0.1757(4) -0.0829(6) 0.5043(6)
H10G H 0.1511(4) -0.0747(6) 0.5501(6)
C11G C 0.1558(4) -0.0595(5) 0.4301(5)
H11G H 0.1158(4) -0.0363(5) 0.4248(5)
C12G C 0.2463(4) -0.0990(5) 0.3774(5)
H12G H 0.2724(4) -0.1013(5) 0.3325(5)
C13C C -0.0542(3) 0.3501(6) 0.5974(6)
H13C H -0.0920(3) 0.3614(6) 0.6230(6)
C16C C -0.0536(4) -0.1814(5) 0.3100(6)
H16C H -0.0914(4) -0.2080(5) 0.3233(6)
P1 P 0.0000 -0.0524(2) 0.0217(3)
F1 F 0.0000 -0.1307(3) 0.0828(5)
F2 F 0.0000 0.0263(4) -0.0391(5)
F3 F -0.0520(2) -0.0995(3) -0.0287(4)
F4 F -0.0518(2) -0.0053(3) 0.0737(4)
F3C F 0.0520(2) -0.0995(3) -0.0287(4)
F4C F 0.0518(2) -0.0053(3) 0.0737(4)
P2 P 0.0000 0.3992(2) 0.0146(3)
F5 F 0.0000 0.4938(7) -0.0143(8)
F6 F 0.0000 0.2997(6) 0.0416(8)
F7 F 0.0508(4) 0.3729(5) -0.0475(7)
F8 F 0.0508(4) 0.4201(5) 0.0760(6)
F7C F -0.0508(4) 0.3729(5) -0.0475(7)
F8C F -0.0508(4) 0.4201(5) 0.0760(6)
P3 P 0.29617(11) 0.1617(2) 0.2570(3)
F13 F 0.3332(3) 0.2326(4) 0.2110(4)
F14 F 0.2610(3) 0.0899(4) 0.3042(5)
F15 F 0.2369(5) 0.2012(9) 0.2136(9)
F16 F 0.3105(6) 0.1161(10) 0.1764(9)
F17 F 0.3603(4) 0.1339(7) 0.2869(9)
F18 F 0.2858(8) 0.2301(8) 0.3240(9)
O1 O 0.1033(4) 0.4692(4) 0.3586(6)
F9? F 0.0000 0.4077(14) -0.0764(12)
F10? F 0.0000 0.4029(12) 0.1115(10)
F11? F 0.0517(6) 0.4756(9) 0.0180(10)
F12? F 0.0514(7) 0.3296(9) 0.0146(10)
F19? F 0.2478(6) 0.1354(10) 0.1958(9)
F20? F 0.3330(5) 0.0792(6) 0.2280(10)
F21? F 0.3408(5) 0.1654(9) 0.3322(8)
F22? F 0.2541(7) 0.2239(8) 0.2936(9)
loop_
_geom_bond_atom_site_label_1
_geom_bond_atom_site_label_2
_geom_bond_site_symmetry_1
_geom_bond_site_symmetry_2
Ag1 N1 1_555 1_555
Ag2 N2 1_555 1_555
P1 F1 1_555 1_555
P2 F5 1_555 1_555
P3 F13 1_555 1_555
F2 P1 1_555 1_555
F3 P1 1_555 1_555
F4 P1 1_555 1_555
F6 P2 1_555 1_555
F7 P2 1_555 1_555
F8 P2 1_555 1_555
F14 P3 1_555 1_555
F15 P3 1_555 1_555
F16 P3 1_555 1_555
F17 P3 1_555 1_555
F18 P3 1_555 1_555
N1 C1 1_555 1_555
N2 C3 1_555 1_555
N3 Ag1 1_555 1_555
N4 C7 1_555 1_555
N5 Ag1 1_555 1_555
N6 C11 1_555 1_555
N7 Ag1 1_555 1_555
N8 Ag2 1_555 1_555
C1 H1 1_555 1_555
C2 C1 1_555 1_555
H2 C2 1_555 1_555
C3 C2 1_555 1_555
H3 C3 1_555 1_555
C4 N1 1_555 1_555
H4 C4 1_555 1_555
C5 N3 1_555 1_555
H5 C5 1_555 1_555
C6 C5 1_555 1_555
H6 C6 1_555 1_555
C7 C6 1_555 1_555
H7 C7 1_555 1_555
C8 N3 1_555 1_555
H8 C8 1_555 1_555
C9 N5 1_555 1_555
H9 C9 1_555 1_555
C10 C9 1_555 1_555
H10 C10 1_555 1_555
C11 C10 1_555 1_555
H11 C11 1_555 1_555
C12 N5 1_555 1_555
H12 C12 1_555 1_555
C13 N7 1_555 1_555
H13 C13 1_555 1_555
C14 C13 1_555 1_555
H14 C14 1_555 1_555
C15 N7 1_555 1_555
H15 C15 1_555 1_555
C16 N8 1_555 1_555
H16 C16 1_555 1_555
C17 C16 1_555 1_555
H17 C17 1_555 1_555
C18 N8 1_555 1_555
H18 C18 1_555 1_555
Ag1C N1C 1_555 1_555
Ag1B N3B 1_555 1_555
Ag1G N5G 1_555 1_555
Ag2B N4 1_555 1_555
Ag2G N6 1_555 1_555
Ag2C N2C 1_555 1_555
F3C P1 1_555 1_555
F4C P1 1_555 1_555
F7C P2 1_555 1_555
F8C P2 1_555 1_555
N1C C1C 1_555 1_555
N2C C3C 1_555 1_555
N2B Ag2B 1_555 1_555
N3B C5B 1_555 1_555
N3C Ag1C 1_555 1_555
N4B Ag2 1_555 1_555
N5G C9G 1_555 1_555
N5C Ag1C 1_555 1_555
N6G Ag2 1_555 1_555
N6E Ag2B 1_555 1_555
N7C C15 1_555 1_555
N8C C18 1_555 1_555
N8B Ag2B 1_555 1_555
C1C H1C 1_555 1_555
C2C C1C 1_555 1_555
H2C C2C 1_555 1_555
C3C C2C 1_555 1_555
H3C C3C 1_555 1_555
C4C N1C 1_555 1_555
H4C C4C 1_555 1_555
C5B H5B 1_555 1_555
C6B C5B 1_555 1_555
H6B C6B 1_555 1_555
C7B N4B 1_555 1_555
H7B C7B 1_555 1_555
C8B N3B 1_555 1_555
H8B C8B 1_555 1_555
C9G H9G 1_555 1_555
C10G C9G 1_555 1_555
H10G C10G 1_555 1_555
C11G N6G 1_555 1_555
H11G C11G 1_555 1_555
C12G N5G 1_555 1_555
H12G C12G 1_555 1_555
C13C C14 1_555 1_555
H13C C13C 1_555 1_555
C16C C17 1_555 1_555
H16C C16C 1_555 1_555
N2 C4 1_555 1_555
N4 C8 1_555 1_555
N6 C12 1_555 1_555
Ag1C N7C 1_555 1_555
Ag2C N8C 1_555 1_555
N2C C4C 1_555 1_555
N4B C8B 1_555 1_555
N6G C12G 1_555 1_555
N7C C13C 1_555 1_555
N8C C16C 1_555 1_555
C6B C7B 1_555 1_555
C10G C11G 1_555 1_555

#END
