
#######################################################################
#
#                 Cambridge Crystallographic Data Centre
#                                CCDC 
#
#######################################################################
#
# If this CIF has been generated from an entry in the Cambridge 
# Structural Database, then it will include bibliographic, chemical, 
# crystal, experimental, refinement or atomic coordinate data resulting 
# from the CCDC's data processing and validation procedures.
#
#######################################################################

data_MICPEU
_symmetry_cell_setting           triclinic
_symmetry_space_group_name_H-M   'P -1'
_symmetry_Int_Tables_number      2
_space_group_name_Hall           '-P 1'
loop_
_symmetry_equiv_pos_site_id
_symmetry_equiv_pos_as_xyz
1 x,y,z
2 -x,-y,-z
_cell_length_a                   12.9299(18)
_cell_length_b                   13.1800(18)
_cell_length_c                   16.971(2)
_cell_angle_alpha                65.036(2)
_cell_angle_beta                 69.116(2)
_cell_angle_gamma                86.222(3)
_cell_volume                     2437.44
loop_
_atom_site_label
_atom_site_type_symbol
_atom_site_fract_x
_atom_site_fract_y
_atom_site_fract_z
Cd1 Cd 0.617338(9) 0.370660(10) 0.254134(8)
F1 F 0.78622(8) 0.54471(9) 0.56376(8)
F2 F 0.95224(9) 0.70637(9) 0.49277(8)
F3 F 1.11319(10) 0.83618(10) -0.03875(9)
F4 F 1.20150(9) 0.96009(10) 0.01586(9)
F5 F 0.32992(9) 0.06429(10) 0.11236(8)
F6 F 0.33817(10) -0.15359(10) 0.14935(8)
F7 F 0.18559(9) -0.07134(9) 0.40898(8)
F8 F 0.00931(10) -0.05005(10) 0.35844(8)
O1 O 0.72037(11) 0.19345(15) 0.27433(10)
O2 O 0.89416(12) 0.17062(16) 0.22583(10)
O3 O 0.83687(17) 0.32984(13) 0.16276(12)
O4 O 0.47424(12) 0.50191(12) 0.23572(10)
O5 O 0.50183(13) 0.50758(13) 0.35183(11)
O6 O 0.42412(12) 0.64066(11) 0.27266(9)
N1 N 0.68551(11) 0.35330(12) 0.36994(10)
N2 N 0.72794(12) 0.54134(12) 0.14678(10)
N3 N 0.58345(11) 0.33788(12) 0.13769(10)
N4 N 0.46620(11) 0.23321(12) 0.36413(10)
N5 N 0.81835(13) 0.22975(13) 0.22050(10)
N6 N 0.46580(12) 0.55092(12) 0.28747(10)
C1 C 0.61922(15) 0.33133(17) 0.45778(12)
C2 C 0.79511(14) 0.36470(16) 0.35010(13)
C3 C 0.65823(14) 0.32070(17) 0.52623(12)
C4 C 0.84066(14) 0.35499(16) 0.41451(13)
C5 C 0.77198(13) 0.33277(13) 0.50519(12)
C6 C 0.81761(15) 0.32355(15) 0.57872(12)
C7 C 0.91161(14) 0.41317(14) 0.53954(12)
C8 C 0.89201(13) 0.52098(15) 0.53292(12)
C9 C 0.97758(14) 0.60423(14) 0.49549(12)
C10 C 0.73034(15) 0.62696(16) 0.16945(13)
C11 C 0.78581(17) 0.56000(16) 0.05813(13)
C12 C 0.78751(15) 0.73089(16) 0.10648(13)
C13 C 0.84482(17) 0.66186(16) -0.00881(12)
C14 C 0.84549(13) 0.75098(14) 0.01444(12)
C15 C 0.90483(16) 0.86397(15) -0.06158(12)
C16 C 0.95255(13) 0.93342(14) -0.02870(11)
C17 C 1.05516(14) 0.91700(14) -0.01935(12)
C18 C 1.10068(13) 0.98163(15) 0.00846(12)
C19 C 0.63950(17) 0.26830(18) 0.10279(15)
C20 C 0.49547(16) 0.37674(16) 0.11316(13)
C21 C 0.61054(17) 0.23390(18) 0.04657(15)
C22 C 0.46316(16) 0.34717(16) 0.05636(14)
C23 C 0.51994(14) 0.27308(13) 0.02218(11)
C24 C 0.48605(18) 0.23975(16) -0.04103(14)
C25 C 0.49415(15) 0.11643(15) -0.02033(12)
C26 C 0.41533(15) 0.03380(16) 0.05507(13)
C27 C 0.42020(15) -0.07941(15) 0.07498(12)
C28 C 0.47015(19) 0.1295(2) 0.3697(2)
C29 C 0.37284(14) 0.25390(15) 0.41875(13)
C30 C 0.38501(19) 0.04472(19) 0.4292(2)
C31 C 0.28436(15) 0.17294(16) 0.48093(14)
C32 C 0.28992(14) 0.06507(15) 0.48726(12)
C33 C 0.19497(16) -0.02662(17) 0.55521(15)
C34 C 0.09481(14) -0.01136(14) 0.52648(12)
C35 C 0.09342(14) -0.03593(14) 0.45556(13)
C36 C 0.00223(15) -0.02527(15) 0.42945(12)
H21 H 0.5432(17) 0.3253(16) 0.4738(14)
H22 H 0.8385(16) 0.3833(17) 0.2911(15)
H23 H 0.6084(17) 0.3111(17) 0.5840(15)
H24 H 0.9177(18) 0.3675(18) 0.3951(15)
H25 H 0.8481(15) 0.2530(16) 0.5962(13)
H26 H 0.7629(15) 0.3313(15) 0.6278(13)
H27 H 0.6924(16) 0.6144(16) 0.2296(14)
H28 H 0.7882(16) 0.4983(17) 0.0404(14)
H29 H 0.7846(17) 0.7839(17) 0.1259(14)
H30 H 0.8847(16) 0.6694(16) -0.0673(14)
H31 H 0.8573(17) 0.9038(17) -0.0885(14)
H32 H 0.9626(15) 0.8493(15) -0.1077(13)
H33 H 0.7027(19) 0.244(2) 0.1201(16)
H34 H 0.4559(18) 0.4244(19) 0.1373(15)
H35 H 0.6472(19) 0.185(2) 0.0275(16)
H36 H 0.4022(18) 0.3780(19) 0.0422(15)
H37 H 0.4133(18) 0.2567(17) -0.0337(14)
H38 H 0.5307(17) 0.2837(18) -0.1021(15)
H39 H 0.537(2) 0.114(2) 0.3310(19)
H40 H 0.3724(16) 0.3318(17) 0.4133(13)
H41 H 0.402(3) -0.029(3) 0.441(2)
H42 H 0.224(2) 0.1911(19) 0.5173(16)
H43 H 0.1744(19) -0.0275(19) 0.6150(17)
H44 H 0.2222(19) -0.096(2) 0.5590(16)
Cd1A Cd 1.382662(9) 0.629340(10) 0.745866(8)
Cd1A_2 Cd 1.382662(9) 1.629340(10) -0.254134(8)
Cd1A_3 Cd 0.382662(9) -0.370660(10) -0.254134(8)
Cd1A_4 Cd -0.617338(9) -0.370660(10) 0.745866(8)
F1A F 1.21378(8) 0.45529(9) 0.43624(8)
F2A F 1.04776(9) 0.29363(9) 0.50723(8)
F3A F 0.88681(10) 1.16382(10) 0.03875(9)
F4A F 0.79850(9) 1.03991(10) -0.01586(9)
F5A F 0.67008(9) -0.06429(10) -0.11236(8)
F6A F 0.66183(10) 0.15359(10) -0.14935(8)
F7A F -0.18559(9) 0.07134(9) 0.59102(8)
F8A F -0.00931(10) 0.05005(10) 0.64156(8)
O1A O 1.27963(11) 0.80655(15) 0.72567(10)
O2A O 1.10584(12) 0.82938(16) 0.77417(10)
O3A O 1.16313(17) 0.67016(13) 0.83724(12)
O4A O 1.52576(12) 0.49809(12) 0.76428(10)
O5A O 1.49817(13) 0.49242(13) 0.64817(11)
O6A O 1.57588(12) 0.35934(11) 0.72734(9)
N1A N 1.31449(11) 0.64670(12) 0.63006(10)
N2A N 1.27206(12) 1.45866(12) -0.14678(10)
N2A_2 N 1.27206(12) 0.45866(12) 0.85322(10)
N3A N 0.41655(11) -0.33788(12) -0.13769(10)
N3A_2 N 1.41655(11) 0.66212(12) 0.86231(10)
N4A N -0.46620(11) -0.23321(12) 0.63587(10)
N4A_2 N 1.53380(11) 0.76679(12) 0.63587(10)
N5A N 1.18165(13) 0.77025(13) 0.77950(10)
N6A N 1.53420(12) 0.44908(12) 0.71253(10)
C1A C 1.38078(15) 0.66867(17) 0.54222(12)
C2A C 1.20489(14) 0.63530(16) 0.64990(13)
C3A C 1.34177(14) 0.67930(17) 0.47377(12)
C4A C 1.15934(14) 0.64501(16) 0.58549(13)
C5A C 1.22802(13) 0.66723(13) 0.49481(12)
C6A C 1.18239(15) 0.67645(15) 0.42128(12)
C7A C 1.08839(14) 0.58683(14) 0.46046(12)
C8A C 1.10799(13) 0.47902(15) 0.46708(12)
C9A C 1.02242(14) 0.39577(14) 0.50451(12)
C10A C 1.26966(15) 1.37304(16) -0.16945(13)
C11A C 1.21419(17) 1.44000(16) -0.05813(13)
C12A C 1.21249(15) 1.26911(16) -0.10648(13)
C13A C 1.15518(17) 1.33814(16) 0.00881(12)
C14A C 1.15451(13) 1.24902(14) -0.01444(12)
C15A C 1.09517(16) 1.13603(15) 0.06158(12)
C16A C 1.04745(13) 1.06658(14) 0.02870(11)
C17A C 0.94484(14) 1.08300(14) 0.01935(12)
C18A C 0.89932(13) 1.01837(15) -0.00846(12)
C19A C 0.36050(17) -0.26830(18) -0.10279(15)
C20A C 0.50453(16) -0.37674(16) -0.11316(13)
C21A C 0.38946(17) -0.23390(18) -0.04657(15)
C22A C 0.53684(16) -0.34717(16) -0.05636(14)
C23A C 0.48006(14) -0.27308(13) -0.02218(11)
C24A C 0.51395(18) -0.23975(16) 0.04103(14)
C25A C 0.50585(15) -0.11643(15) 0.02033(12)
C26A C 0.58467(15) -0.03380(16) -0.05507(13)
C27A C 0.57980(15) 0.07941(15) -0.07498(12)
C28A C -0.47015(19) -0.1295(2) 0.6303(2)
C29A C -0.37284(14) -0.25390(15) 0.58125(13)
C30A C -0.38501(19) -0.04472(19) 0.5708(2)
C31A C -0.28436(15) -0.17294(16) 0.51907(14)
C32A C -0.28992(14) -0.06507(15) 0.51274(12)
C33A C -0.19497(16) 0.02662(17) 0.44479(15)
C34A C -0.09481(14) 0.01136(14) 0.47352(12)
C35A C -0.09342(14) 0.03593(14) 0.54444(13)
C36A C -0.00223(15) 0.02527(15) 0.57055(12)
H21A H 1.4568(17) 0.6747(16) 0.5262(14)
H22A H 1.1615(16) 0.6167(17) 0.7089(15)
H23A H 1.3916(17) 0.6889(17) 0.4160(15)
H24A H 1.0823(18) 0.6325(18) 0.6049(15)
H25A H 1.1519(15) 0.7470(16) 0.4038(13)
H26A H 1.2371(15) 0.6687(15) 0.3722(13)
H27A H 1.3076(16) 1.3856(16) -0.2296(14)
H28A H 1.2118(16) 1.5017(17) -0.0404(14)
H29A H 1.2154(17) 1.2161(17) -0.1259(14)
H30A H 1.1153(16) 1.3306(16) 0.0673(14)
H31A H 1.1427(17) 1.0962(17) 0.0885(14)
H32A H 1.0374(15) 1.1507(15) 0.1077(13)
H33A H 0.2973(19) -0.244(2) -0.1201(16)
H34A H 0.5441(18) -0.4244(19) -0.1373(15)
H35A H 0.3528(19) -0.185(2) -0.0275(16)
H36A H 0.5978(18) -0.3780(19) -0.0422(15)
H37A H 0.5867(18) -0.2567(17) 0.0337(14)
H38A H 0.4693(17) -0.2837(18) 0.1021(15)
H39A H -0.537(2) -0.114(2) 0.6690(19)
H40A H -0.3724(16) -0.3318(17) 0.5867(13)
H41A H -0.402(3) 0.029(3) 0.559(2)
H42A H -0.224(2) -0.1911(19) 0.4827(16)
H43A H -0.1744(19) 0.0275(19) 0.3850(17)
H44A H -0.2222(19) 0.096(2) 0.4410(16)
C37 C 0.12367(17) 0.39015(18) 0.23751(14)
C38 C 0.06641(16) 0.4528(2) 0.17980(15)
H1 H 0.0176 0.4152 0.1679
C39 C 0.0800(2) 0.5689(2) 0.13980(17)
H2 H 0.0405 0.6106 0.1005
C40 C 0.1502(2) 0.6242(2) 0.15657(18)
H3 H 0.1586 0.7041 0.1297
C41 C 0.2080(2) 0.5640(2) 0.21203(17)
H4 H 0.2572 0.6023 0.2231
C42 C 0.19529(19) 0.4485(2) 0.25183(15)
H5 H 0.2364 0.4078 0.2899
C43 C 0.1074(2) 0.2630(2) 0.28207(18)
H6 H 0.0900 0.2354 0.3499
H7 H 0.0425 0.2390 0.2739
C44 C 0.2061(2) 0.2090(2) 0.24315(18)
H8 H 0.1891 0.1270 0.2748
H9 H 0.2702 0.2298 0.2531
H10 H 0.2234 0.2347 0.1762
C45 C 0.7139(2) 0.83855(18) 0.30259(14)
C46 C 0.8242(2) 0.8832(2) 0.26194(15)
H11 H 0.8419 0.9624 0.2316
C47 C 0.9088(2) 0.8131(3) 0.26516(18)
H12 H 0.9841 0.8443 0.2371
C48 C 0.8835(3) 0.6975(3) 0.30930(18)
H13 H 0.9411 0.6489 0.3108
C49 C 0.7736(2) 0.6538(2) 0.35102(16)
H14 H 0.7556 0.5746 0.3829
C50 C 0.6908(2) 0.72265(18) 0.34722(15)
H15 H 0.6156 0.6907 0.3757
C51 C 0.6209(3) 0.9134(2) 0.2985(2)
H16 H 0.6494 0.9902 0.2825
H17 H 0.5613 0.8852 0.3610
C52 C 0.5715(3) 0.9195(3) 0.2276(2)
H18 H 0.5121 0.9697 0.2279
H19 H 0.5409 0.8441 0.2440
H20 H 0.6297 0.9485 0.1653
loop_
_geom_bond_atom_site_label_1
_geom_bond_atom_site_label_2
_geom_bond_site_symmetry_1
_geom_bond_site_symmetry_2
Cd1 O1 1_555 1_555
F1 C8 1_555 1_555
F2 C9 1_555 1_555
F3 C17 1_555 1_555
F4 C18 1_555 1_555
F5 C26 1_555 1_555
F6 C27 1_555 1_555
F7 C35 1_555 1_555
F8 C36 1_555 1_555
O1 N5 1_555 1_555
O2 N5 1_555 1_555
O3 N5 1_555 1_555
O4 Cd1 1_555 1_555
O5 N6 1_555 1_555
O6 N6 1_555 1_555
N1 Cd1 1_555 1_555
N2 Cd1 1_555 1_555
N3 Cd1 1_555 1_555
N4 Cd1 1_555 1_555
N6 O4 1_555 1_555
C1 N1 1_555 1_555
C2 N1 1_555 1_555
C3 C1 1_555 1_555
C4 C2 1_555 1_555
C5 C3 1_555 1_555
C6 C5 1_555 1_555
C7 C6 1_555 1_555
C8 C7 1_555 1_555
C9 C8 1_555 1_555
C10 N2 1_555 1_555
C11 N2 1_555 1_555
C12 C10 1_555 1_555
C13 C11 1_555 1_555
C14 C12 1_555 1_555
C15 C14 1_555 1_555
C16 C15 1_555 1_555
C17 C16 1_555 1_555
C18 C17 1_555 1_555
C19 N3 1_555 1_555
C20 N3 1_555 1_555
C21 C19 1_555 1_555
C22 C20 1_555 1_555
C23 C21 1_555 1_555
C24 C23 1_555 1_555
C25 C24 1_555 1_555
C26 C25 1_555 1_555
C27 C26 1_555 1_555
C28 N4 1_555 1_555
C29 N4 1_555 1_555
C30 C28 1_555 1_555
C31 C29 1_555 1_555
C32 C30 1_555 1_555
C33 C32 1_555 1_555
C34 C33 1_555 1_555
C35 C34 1_555 1_555
C36 C35 1_555 1_555
C37 C38 1_555 1_555
C38 H1 1_555 1_555
C39 C38 1_555 1_555
H2 C39 1_555 1_555
C40 C39 1_555 1_555
H3 C40 1_555 1_555
C41 C40 1_555 1_555
H4 C41 1_555 1_555
C42 C37 1_555 1_555
H5 C42 1_555 1_555
C43 C37 1_555 1_555
H6 C43 1_555 1_555
H7 C43 1_555 1_555
C44 C43 1_555 1_555
H8 C44 1_555 1_555
H9 C44 1_555 1_555
H10 C44 1_555 1_555
C45 C46 1_555 1_555
C46 H11 1_555 1_555
C47 C46 1_555 1_555
H12 C47 1_555 1_555
C48 C47 1_555 1_555
H13 C48 1_555 1_555
C49 C48 1_555 1_555
H14 C49 1_555 1_555
C50 C45 1_555 1_555
H15 C50 1_555 1_555
C51 C45 1_555 1_555
H16 C51 1_555 1_555
H17 C51 1_555 1_555
C52 C51 1_555 1_555
H18 C52 1_555 1_555
H19 C52 1_555 1_555
H20 C52 1_555 1_555
H21 C1 1_555 1_555
H22 C2 1_555 1_555
H23 C3 1_555 1_555
H24 C4 1_555 1_555
H25 C6 1_555 1_555
H26 C6 1_555 1_555
H27 C10 1_555 1_555
H28 C11 1_555 1_555
H29 C12 1_555 1_555
H30 C13 1_555 1_555
H31 C15 1_555 1_555
H32 C15 1_555 1_555
H33 C19 1_555 1_555
H34 C20 1_555 1_555
H35 C21 1_555 1_555
H36 C22 1_555 1_555
H37 C24 1_555 1_555
H38 C24 1_555 1_555
H39 C28 1_555 1_555
H40 C29 1_555 1_555
H41 C30 1_555 1_555
H42 C31 1_555 1_555
H43 C33 1_555 1_555
H44 C33 1_555 1_555
Cd1A O1A 1_555 1_555
Cd1A_2 N2A 1_555 1_555
Cd1A_3 N3A 1_555 1_555
Cd1A_4 N4A 1_555 1_555
F1A C8A 1_555 1_555
F2A C9A 1_555 1_555
F3A C17A 1_555 1_555
F4A C18A 1_555 1_555
F5A C26A 1_555 1_555
F6A C27A 1_555 1_555
F7A C35A 1_555 1_555
F8A C36A 1_555 1_555
O1A N5A 1_555 1_555
O2A N5A 1_555 1_555
O3A N5A 1_555 1_555
O4A Cd1A 1_555 1_555
O5A N6A 1_555 1_555
O6A N6A 1_555 1_555
N1A Cd1A 1_555 1_555
N2A C10A 1_555 1_555
N2A_2 Cd1A 1_555 1_555
N3A C19A 1_555 1_555
N3A_2 Cd1A 1_555 1_555
N4A C28A 1_555 1_555
N4A_2 Cd1A 1_555 1_555
N6A O4A 1_555 1_555
C1A N1A 1_555 1_555
C2A N1A 1_555 1_555
C3A C1A 1_555 1_555
C4A C2A 1_555 1_555
C5A C3A 1_555 1_555
C6A C5A 1_555 1_555
C7A C9 1_555 1_555
C8A C7A 1_555 1_555
C9A C7 1_555 1_555
C10A C12A 1_555 1_555
C11A N2A 1_555 1_555
C12A C14A 1_555 1_555
C13A C11A 1_555 1_555
C14A C13A 1_555 1_555
C15A C14A 1_555 1_555
C16A C18 1_555 1_555
C17A C16A 1_555 1_555
C18A C16 1_555 1_555
C19A C21A 1_555 1_555
C20A N3A 1_555 1_555
C21A C23A 1_555 1_555
C22A C20A 1_555 1_555
C23A C22A 1_555 1_555
C24A C23A 1_555 1_555
C25A C27 1_555 1_555
C26A C25A 1_555 1_555
C27A C25 1_555 1_555
C28A C30A 1_555 1_555
C29A N4A 1_555 1_555
C30A C32A 1_555 1_555
C31A C29A 1_555 1_555
C32A C31A 1_555 1_555
C33A C32A 1_555 1_555
C34A C36 1_555 1_555
C35A C34A 1_555 1_555
C36A C34 1_555 1_555
H21A C1A 1_555 1_555
H22A C2A 1_555 1_555
H23A C3A 1_555 1_555
H24A C4A 1_555 1_555
H25A C6A 1_555 1_555
H26A C6A 1_555 1_555
H27A C10A 1_555 1_555
H28A C11A 1_555 1_555
H29A C12A 1_555 1_555
H30A C13A 1_555 1_555
H31A C15A 1_555 1_555
H32A C15A 1_555 1_555
H33A C19A 1_555 1_555
H34A C20A 1_555 1_555
H35A C21A 1_555 1_555
H36A C22A 1_555 1_555
H37A C24A 1_555 1_555
H38A C24A 1_555 1_555
H39A C28A 1_555 1_555
H40A C29A 1_555 1_555
H41A C30A 1_555 1_555
H42A C31A 1_555 1_555
H43A C33A 1_555 1_555
H44A C33A 1_555 1_555
C4 C5 1_555 1_555
C13 C14 1_555 1_555
C22 C23 1_555 1_555
C31 C32 1_555 1_555
C41 C42 1_555 1_555
C49 C50 1_555 1_555
C4A C5A 1_555 1_555
C6A C7A 1_555 1_555
C8A C9A 1_555 1_555
C15A C16A 1_555 1_555
C17A C18A 1_555 1_555
C24A C25A 1_555 1_555
C26A C27A 1_555 1_555
C33A C34A 1_555 1_555
C35A C36A 1_555 1_555

#END
