
#######################################################################
#
#                 Cambridge Crystallographic Data Centre
#                                CCDC 
#
#######################################################################
#
# If this CIF has been generated from an entry in the Cambridge 
# Structural Database, then it will include bibliographic, chemical, 
# crystal, experimental, refinement or atomic coordinate data resulting 
# from the CCDC's data processing and validation procedures.
#
#######################################################################

data_MIFKUJ
_symmetry_cell_setting           triclinic
_symmetry_space_group_name_H-M   'P -1'
_symmetry_Int_Tables_number      2
_space_group_name_Hall           '-P 1'
loop_
_symmetry_equiv_pos_site_id
_symmetry_equiv_pos_as_xyz
1 x,y,z
2 -x,-y,-z
_cell_length_a                   12.0239(15)
_cell_length_b                   13.4820(17)
_cell_length_c                   14.0414(18)
_cell_angle_alpha                70.491(2)
_cell_angle_beta                 77.141(2)
_cell_angle_gamma                89.312(2)
_cell_volume                     2086.9
loop_
_atom_site_label
_atom_site_type_symbol
_atom_site_fract_x
_atom_site_fract_y
_atom_site_fract_z
Zn1 Zn -0.07234(3) 0.64189(3) 0.01613(3)
O1 O 0.0081(4) 0.8313(3) 0.0124(2)
O2 O -0.0721(3) 0.6863(2) 0.1362(2)
O3 O 0.0828(2) 0.59474(18) -0.01349(18)
O4 O 0.1726(2) 0.48784(19) -0.0913(2)
O5 O 0.7503(5) 0.7425(5) -0.0079(4)
O6 O 0.8814(4) 0.7119(4) -0.1197(5)
C1 C -0.0237(4) 0.8265(3) 0.1874(3)
C2 C -0.0455(4) 0.7643(4) 0.2896(3)
H1 H -0.0667 0.6913 0.3089
C3 C -0.0370(4) 0.8064(4) 0.3656(3)
H2 H -0.0529 0.7620 0.4364
C4 C -0.0060(4) 0.9108(4) 0.3401(3)
C5 C 0.0144(4) 0.9755(4) 0.2345(4)
H3 H 0.0334 1.0489 0.2151
C6 C 0.0068(4) 0.9328(4) 0.1598(3)
H4 H 0.0226 0.9764 0.0888
C7 C -0.0296(4) 0.7804(3) 0.1047(3)
C8 C 0.0016(4) 0.9594(4) 0.4203(4)
C9 C -0.0560(4) 1.0475(5) 0.4224(4)
H5 H -0.0946 1.0813 0.3692
C10 C 0.0582(4) 0.9129(5) 0.4987(4)
C11 C 0.1327(4) 0.8205(7) 0.4993(6)
C12 C 0.2180(6) 0.8335(8) 0.4096(7)
H6 H 0.2249 0.8968 0.3519
C13 C 0.2899(14) 0.7585(17) 0.4037(14)
H7 H 0.3442 0.7650 0.3410
C14 C 0.2832(9) 0.6771(15) 0.4858(14)
C15 C 0.1954(6) 0.6510(8) 0.5889(7)
H8 H 0.1903 0.5876 0.6462
C16 C 0.1227(5) 0.7346(7) 0.5870(6)
H9 H 0.0663 0.7308 0.6477
C17 C 0.3706(3) 0.8326(3) -0.3210(3)
C18 C 0.2729(3) 0.8527(3) -0.2597(3)
H10 H 0.2522 0.9233 -0.2723
C19 C 0.2036(3) 0.7712(3) -0.1793(3)
H11 H 0.1380 0.7863 -0.1357
C20 C 0.2320(3) 0.6676(2) -0.1641(3)
C21 C 0.3322(3) 0.6482(3) -0.2271(3)
H12 H 0.3522 0.5777 -0.2172
C22 C 0.4013(3) 0.7296(3) -0.3025(3)
H13 H 0.4706 0.7155 -0.3423
C23 C 0.1564(3) 0.5779(2) -0.0847(3)
C24 C 0.4391(3) 0.9201(3) -0.4093(3)
C25 C 0.3851(3) 0.9804(3) -0.4842(3)
H14 H 0.3049 0.9678 -0.4732
C26 C 0.5570(3) 0.9402(3) -0.4239(3)
C27 C 0.6225(4) 0.8853(3) -0.3452(3)
C28 C 0.5809(6) 0.8748(4) -0.2420(4)
H15 H 0.5090 0.8998 -0.2197
C29 C 0.6472(9) 0.8267(5) -0.1715(6)
H16 H 0.6178 0.8204 -0.1009
C30 C 0.7451(8) 0.7901(5) -0.1947(7)
C31 C 0.7866(5) 0.7995(5) -0.2983(7)
H17 H 0.8584 0.7728 -0.3179
C32 C 0.7268(4) 0.8467(4) -0.3743(5)
H18 H 0.7569 0.8522 -0.4445
C33 C 0.8038(9) 0.7428(6) -0.0935(5)
O7 O 0.3635(8) 0.5255(11) 0.5625(9)
O8 O 0.4401(10) 0.5915(11) 0.4122(14)
C34 C 0.394(2) 0.5729(17) 0.4865(16)
O1A O -0.0081(4) 1.1687(3) 0.9876(2)
O2A O 0.0721(3) 1.3137(2) 0.8638(2)
C1A C 0.0237(4) 1.1735(3) 0.8126(3)
C2A C 0.0455(4) 1.2357(4) 0.7104(3)
H1A H 0.0667 1.3087 0.6911
C3A C 0.0370(4) 1.1936(4) 0.6344(3)
H2A H 0.0529 1.2380 0.5636
C4A C 0.0060(4) 1.0892(4) 0.6599(3)
C5A C -0.0144(4) 1.0245(4) 0.7655(4)
H3A H -0.0334 0.9511 0.7849
C6A C -0.0068(4) 1.0672(4) 0.8402(3)
H4A H -0.0226 1.0236 0.9112
C7A C 0.0296(4) 1.2196(3) 0.8953(3)
C8A C -0.0016(4) 1.0406(4) 0.5797(4)
C9A C 0.0560(4) 0.9525(5) 0.5776(4)
H5A H 0.0946 0.9187 0.6308
C10A C -0.0582(4) 1.0871(5) 0.5013(4)
C11A C -0.1327(4) 1.1795(7) 0.5007(6)
C12A C -0.2180(6) 1.1665(8) 0.5904(7)
H6A H -0.2249 1.1032 0.6481
C13A C -0.2899(14) 1.2415(17) 0.5963(14)
H7A H -0.3442 1.2350 0.6590
C14A C -0.2832(9) 1.3229(15) 0.5142(14)
C15A C -0.1954(6) 1.3490(8) 0.4111(7)
H8A H -0.1903 1.4124 0.3538
C16A C -0.1227(5) 1.2654(7) 0.4130(6)
H9A H -0.0663 1.2692 0.3523
O7A O -0.3635(8) 1.4745(11) 0.4375(9)
O8A O -0.4401(10) 1.4085(11) 0.5878(14)
C34A C -0.394(2) 1.4271(17) 0.5135(16)
O3A O 0.9172(2) 1.40526(18) -0.98651(18)
O4A O 0.8274(2) 1.51216(19) -0.9087(2)
O5A O 0.2497(5) 1.2575(5) -0.9921(4)
O6A O 0.1186(4) 1.2881(4) -0.8803(5)
C17A C 0.6294(3) 1.1674(3) -0.6790(3)
C18A C 0.7271(3) 1.1473(3) -0.7403(3)
H10A H 0.7478 1.0767 -0.7277
C19A C 0.7964(3) 1.2288(3) -0.8207(3)
H11A H 0.8620 1.2137 -0.8643
C20A C 0.7680(3) 1.3324(2) -0.8359(3)
C21A C 0.6678(3) 1.3518(3) -0.7729(3)
H12A H 0.6478 1.4223 -0.7828
C22A C 0.5987(3) 1.2704(3) -0.6975(3)
H13A H 0.5294 1.2845 -0.6577
C23A C 0.8436(3) 1.4221(2) -0.9153(3)
C24A C 0.5609(3) 1.0799(3) -0.5907(3)
C25A C 0.6149(3) 1.0196(3) -0.5158(3)
H14A H 0.6951 1.0322 -0.5268
C26A C 0.4430(3) 1.0598(3) -0.5761(3)
C27A C 0.3775(4) 1.1147(3) -0.6548(3)
C28A C 0.4191(6) 1.1252(4) -0.7580(4)
H15A H 0.4910 1.1002 -0.7803
C29A C 0.3528(9) 1.1733(5) -0.8285(6)
H16A H 0.3822 1.1796 -0.8991
C30A C 0.2549(8) 1.2099(5) -0.8053(7)
C31A C 0.2134(5) 1.2005(5) -0.7017(7)
H17A H 0.1416 1.2272 -0.6821
C32A C 0.2732(4) 1.1533(4) -0.6257(5)
H18A H 0.2431 1.1478 -0.5555
C33A C 0.1962(9) 1.2572(6) -0.9065(5)
Zn1A Zn 0.07234(3) 0.35811(3) -0.01613(3)
Zn1_2 Zn 0.92766(3) 0.64189(3) 0.01613(3)
Zn1_3 Zn 0.92766(3) 1.64189(3) -0.98387(3)
Zn1A_2 Zn 0.07234(3) 1.35811(3) -1.01613(3)
Zn1A_3 Zn 0.07234(3) 1.35811(3) 0.98387(3)
Zn1A_4 Zn 1.07234(3) 1.35811(3) -1.01613(3)
O2A_2 O 0.0721(3) 0.3137(2) -0.1362(2)
O3A_2 O -0.0828(2) 0.40526(18) 0.01349(18)
O4A_2 O -0.1726(2) 0.51216(19) 0.0913(2)
O5_2 O -0.2497(5) 0.7425(5) -0.0079(4)
O5A_2 O 0.2497(5) 0.2575(5) 0.0079(4)
O6_2 O -0.1186(4) 0.7119(4) -0.1197(5)
O6A_2 O 0.1186(4) 0.2881(4) 0.1197(5)
loop_
_geom_bond_atom_site_label_1
_geom_bond_atom_site_label_2
_geom_bond_site_symmetry_1
_geom_bond_site_symmetry_2
Zn1 O2 1_555 1_555
O1 C7 1_555 1_555
O2 C7 1_555 1_555
O3 Zn1 1_555 1_555
O4 C23 1_555 1_555
O5 C33 1_555 1_555
O6 C33 1_555 1_555
C1 C2 1_555 1_555
C2 H1 1_555 1_555
C3 C2 1_555 1_555
H2 C3 1_555 1_555
C4 C3 1_555 1_555
C5 C4 1_555 1_555
H3 C5 1_555 1_555
C6 C1 1_555 1_555
H4 C6 1_555 1_555
C7 C1 1_555 1_555
C8 C4 1_555 1_555
C9 C8 1_555 1_555
H5 C9 1_555 1_555
C10 C8 1_555 1_555
C11 C10 1_555 1_555
C12 C11 1_555 1_555
H6 C12 1_555 1_555
C13 C12 1_555 1_555
H7 C13 1_555 1_555
C14 C13 1_555 1_555
C15 C14 1_555 1_555
H8 C15 1_555 1_555
C16 C11 1_555 1_555
H9 C16 1_555 1_555
C17 C18 1_555 1_555
C18 H10 1_555 1_555
C19 C18 1_555 1_555
H11 C19 1_555 1_555
C20 C19 1_555 1_555
C21 C20 1_555 1_555
H12 C21 1_555 1_555
C22 C17 1_555 1_555
H13 C22 1_555 1_555
C23 O3 1_555 1_555
C24 C17 1_555 1_555
C25 C24 1_555 1_555
H14 C25 1_555 1_555
C26 C24 1_555 1_555
C27 C26 1_555 1_555
C28 C27 1_555 1_555
H15 C28 1_555 1_555
C29 C28 1_555 1_555
H16 C29 1_555 1_555
C30 C29 1_555 1_555
C31 C30 1_555 1_555
H17 C31 1_555 1_555
C32 C27 1_555 1_555
H18 C32 1_555 1_555
C33 C30 1_555 1_555
O7 C34 1_555 1_555
O8 C34 1_555 1_555
C34 C14 1_555 1_555
O1A C7A 1_555 1_555
O2A C7A 1_555 1_555
C1A C2A 1_555 1_555
C2A H1A 1_555 1_555
C3A C2A 1_555 1_555
H2A C3A 1_555 1_555
C4A C3A 1_555 1_555
C5A C4A 1_555 1_555
H3A C5A 1_555 1_555
C6A C1A 1_555 1_555
H4A C6A 1_555 1_555
C7A C1A 1_555 1_555
C8A C4A 1_555 1_555
C9A C10 1_555 1_555
H5A C9A 1_555 1_555
C10A C9 1_555 1_555
C11A C10A 1_555 1_555
C12A C11A 1_555 1_555
H6A C12A 1_555 1_555
C13A C12A 1_555 1_555
H7A C13A 1_555 1_555
C14A C13A 1_555 1_555
C15A C14A 1_555 1_555
H8A C15A 1_555 1_555
C16A C11A 1_555 1_555
H9A C16A 1_555 1_555
O7A C34A 1_555 1_555
O8A C34A 1_555 1_555
C34A C14A 1_555 1_555
O3A C23A 1_555 1_555
O4A C23A 1_555 1_555
O5A C33A 1_555 1_555
O6A C33A 1_555 1_555
C17A C18A 1_555 1_555
C18A H10A 1_555 1_555
C19A C18A 1_555 1_555
H11A C19A 1_555 1_555
C20A C19A 1_555 1_555
C21A C20A 1_555 1_555
H12A C21A 1_555 1_555
C22A C17A 1_555 1_555
H13A C22A 1_555 1_555
C23A C20A 1_555 1_555
C24A C17A 1_555 1_555
C25A C26 1_555 1_555
H14A C25A 1_555 1_555
C26A C25 1_555 1_555
C27A C26A 1_555 1_555
C28A C27A 1_555 1_555
H15A C28A 1_555 1_555
C29A C28A 1_555 1_555
H16A C29A 1_555 1_555
C30A C29A 1_555 1_555
C31A C30A 1_555 1_555
H17A C31A 1_555 1_555
C32A C27A 1_555 1_555
H18A C32A 1_555 1_555
C33A C30A 1_555 1_555
Zn1A O4 1_555 1_555
Zn1_2 O5 1_555 1_555
Zn1_3 O4A 1_555 1_555
Zn1A_2 O5A 1_555 1_555
Zn1A_3 O2A 1_555 1_555
Zn1A_4 O3A 1_555 1_555
O2A_2 Zn1A 1_555 1_555
O3A_2 Zn1A 1_555 1_555
O4A_2 Zn1 1_555 1_555
O5_2 Zn1 1_555 1_555
O5A_2 Zn1A 1_555 1_555
O6_2 Zn1 1_555 1_555
O6A_2 Zn1A 1_555 1_555
O6 Zn1_2 1_555 1_555
C5 C6 1_555 1_555
C15 C16 1_555 1_555
C20 C23 1_555 1_555
C21 C22 1_555 1_555
C31 C32 1_555 1_555
C5A C6A 1_555 1_555
C8A C9A 1_555 1_555
C8A C10A 1_555 1_555
C15A C16A 1_555 1_555
O6A Zn1A_2 1_555 1_555
C21A C22A 1_555 1_555
C24A C25A 1_555 1_555
C24A C26A 1_555 1_555
C31A C32A 1_555 1_555

#END
