
#######################################################################
#
#                 Cambridge Crystallographic Data Centre
#                                CCDC 
#
#######################################################################
#
# If this CIF has been generated from an entry in the Cambridge 
# Structural Database, then it will include bibliographic, chemical, 
# crystal, experimental, refinement or atomic coordinate data resulting 
# from the CCDC's data processing and validation procedures.
#
#######################################################################

data_MIFQOJ
_symmetry_cell_setting           trigonal
_symmetry_space_group_name_H-M   'P -3 1 c'
_symmetry_Int_Tables_number      163
_space_group_name_Hall           "-P 3 2'c"
loop_
_symmetry_equiv_pos_site_id
_symmetry_equiv_pos_as_xyz
1 x,y,z
2 -y,x-y,z
3 -x+y,-x,z
4 -y,-x,1/2-z
5 x,x-y,1/2-z
6 -x+y,y,1/2-z
7 -x,-y,-z
8 y,-x+y,-z
9 x-y,x,-z
10 y,x,1/2+z
11 -x,-x+y,1/2+z
12 x-y,-y,1/2+z
_cell_length_a                   17.275(5)
_cell_length_b                   17.275(5)
_cell_length_c                   14.107(5)
_cell_angle_alpha                90
_cell_angle_beta                 90
_cell_angle_gamma                120
_cell_volume                     3645.87
loop_
_atom_site_label
_atom_site_type_symbol
_atom_site_fract_x
_atom_site_fract_y
_atom_site_fract_z
Mn1 Mn -0.3333 0.3333 0.10384(4)
O1 O -0.21800(10) 0.35693(10) 0.18213(12)
N1 N 0.10830(13) 0.60255(13) 0.41038(14)
N2 N 0.22443(12) 0.66571(13) 0.51128(14)
C1 C -0.1800(2) 0.40999(11) 0.2500
C2 C -0.0799(2) 0.46003(11) 0.2500
C3 C -0.03378(16) 0.50651(16) 0.33047(17)
H1 H -0.0647 0.5062 0.3846
C4 C 0.05876(16) 0.55324(16) 0.32918(17)
C5 C 0.1054(2) 0.55270(11) 0.2500
H2 H 0.1676 0.5838 0.2500
C6 C 0.18820(16) 0.61192(16) 0.43840(17)
H3 H 0.2146 0.5829 0.4086
C7 C 0.16341(17) 0.69359(17) 0.53457(18)
C8 C 0.1667(2) 0.7498(2) 0.6057(2)
H4 H 0.2151 0.7763 0.6471
C9 C 0.0964(3) 0.7654(3) 0.6137(3)
H5 H 0.0960 0.8012 0.6628
C10 C 0.0251(3) 0.7284(3) 0.5491(3)
H6 H -0.0202 0.7423 0.5548
C11 C 0.0206(2) 0.6725(2) 0.4780(2)
H7 H -0.0271 0.6474 0.4358
C12 C 0.09041(17) 0.65493(17) 0.47180(19)
O1D O -0.21800(10) 0.42507(14) 0.31787(12)
N1D N 0.10830(13) 0.50575(18) 0.08962(14)
N2D N 0.22443(12) 0.55872(18) -0.01128(14)
C3D C -0.03378(16) 0.45971(23) 0.16953(17)
H1D H -0.0647 0.4291 0.1154
C4D C 0.05876(16) 0.50552(23) 0.17082(17)
C6D C 0.18820(16) 0.57628(23) 0.06160(17)
H3D H 0.2146 0.6317 0.0914
C7D C 0.16341(17) 0.46982(24) -0.03457(18)
C8D C 0.1667(2) 0.4169(3) -0.1057(2)
H4D H 0.2151 0.4388 -0.1471
C9D C 0.0964(3) 0.3310(4) -0.1137(3)
H5D H 0.0960 0.2948 -0.1628
C10D C 0.0251(3) 0.2967(4) -0.0491(3)
H6D H -0.0202 0.2375 -0.0548
C11D C 0.0206(2) 0.3481(3) 0.0220(2)
H7D H -0.0271 0.3255 0.0642
C12D C 0.09041(17) 0.43548(24) 0.02820(19)
O1A O -0.35693(10) 0.42507(14) 0.18213(12)
N1A N -0.60255(13) 0.50575(18) 0.41038(14)
N2A N -0.66571(13) 0.55872(18) 0.51128(14)
C1A C -0.40999(11) 0.41001(23) 0.2500
C2A C -0.46003(11) 0.46007(23) 0.2500
C3A C -0.50651(16) 0.45971(23) 0.33047(17)
H1A H -0.5062 0.4291 0.3846
C4A C -0.55324(16) 0.50552(23) 0.32918(17)
C5A C -0.55270(11) 0.55270(23) 0.2500
H2A H -0.5838 0.5838 0.2500
C6A C -0.61192(16) 0.57628(23) 0.43840(17)
H3A H -0.5829 0.6317 0.4086
C7A C -0.69359(17) 0.46982(24) 0.53457(18)
C8A C -0.7498(2) 0.4169(3) 0.6057(2)
H4A H -0.7763 0.4388 0.6471
C9A C -0.7654(3) 0.3310(4) 0.6137(3)
H5A H -0.8012 0.2948 0.6628
C10A C -0.7284(3) 0.2967(4) 0.5491(3)
H6A H -0.7423 0.2375 0.5548
C11A C -0.6725(2) 0.3481(3) 0.4780(2)
H7A H -0.6474 0.3255 0.4358
C12A C -0.65493(17) 0.43548(24) 0.47180(19)
O1E O -0.42507(14) 0.35693(10) 0.31787(12)
N1E N -0.50575(18) 0.60255(13) 0.08962(14)
N2E N -0.55872(18) 0.66571(13) -0.01128(14)
C3E C -0.45971(23) 0.50651(16) 0.16953(17)
H1E H -0.4291 0.5062 0.1154
C4E C -0.50552(23) 0.55324(16) 0.17082(17)
C6E C -0.57628(23) 0.61192(16) 0.06160(17)
H3E H -0.6317 0.5829 0.0914
C7E C -0.46982(24) 0.69359(17) -0.03457(18)
C8E C -0.4169(3) 0.7498(2) -0.1057(2)
H4E H -0.4388 0.7763 -0.1471
C9E C -0.3310(4) 0.7654(3) -0.1137(3)
H5E H -0.2948 0.8012 -0.1628
C10E C -0.2967(4) 0.7284(3) -0.0491(3)
H6E H -0.2375 0.7423 -0.0548
C11E C -0.3481(3) 0.6725(2) 0.0220(2)
H7E H -0.3255 0.6474 0.0642
C12E C -0.43548(24) 0.65493(17) 0.02820(19)
O1B O -0.42507(14) 0.21800(10) 0.18213(12)
N1B N -0.50575(18) -0.10830(13) 0.41038(14)
N2B N -0.55872(18) -0.22443(12) 0.51128(14)
C1B C -0.41001(23) 0.1800(2) 0.2500
C2B C -0.46007(23) 0.0799(2) 0.2500
C3B C -0.45971(23) 0.03378(16) 0.33047(17)
H1B H -0.4291 0.0647 0.3846
C4B C -0.50552(23) -0.05876(16) 0.32918(17)
C5B C -0.55270(23) -0.1054(2) 0.2500
H2B H -0.5838 -0.1676 0.2500
C6B C -0.57628(23) -0.18820(16) 0.43840(17)
H3B H -0.6317 -0.2146 0.4086
C7B C -0.46982(24) -0.16341(17) 0.53457(18)
C8B C -0.4169(3) -0.1667(2) 0.6057(2)
H4B H -0.4388 -0.2151 0.6471
C9B C -0.3310(4) -0.0964(3) 0.6137(3)
H5B H -0.2948 -0.0960 0.6628
C10B C -0.2967(4) -0.0251(3) 0.5491(3)
H6B H -0.2375 0.0202 0.5548
C11B C -0.3481(3) -0.0206(2) 0.4780(2)
H7B H -0.3255 0.0271 0.4358
C12B C -0.43548(24) -0.09041(17) 0.47180(19)
O1C O -0.35693(10) 0.21800(10) 0.31787(12)
N1C N -0.60255(13) -0.10830(13) 0.08962(14)
N2C N -0.66571(13) -0.22443(12) -0.01128(14)
C3C C -0.50651(16) 0.03378(16) 0.16953(17)
H1C H -0.5062 0.0647 0.1154
C4C C -0.55324(16) -0.05876(16) 0.17082(17)
C6C C -0.61192(16) -0.18820(16) 0.06160(17)
H3C H -0.5829 -0.2146 0.0914
C7C C -0.69359(17) -0.16341(17) -0.03457(18)
C8C C -0.7498(2) -0.1667(2) -0.1057(2)
H4C H -0.7763 -0.2151 -0.1471
C9C C -0.7654(3) -0.0964(3) -0.1137(3)
H5C H -0.8012 -0.0960 -0.1628
C10C C -0.7284(3) -0.0251(3) -0.0491(3)
H6C H -0.7423 0.0202 -0.0548
C11C C -0.6725(2) -0.0206(2) 0.0220(2)
H7C H -0.6474 0.0271 0.0642
C12C C -0.65493(17) -0.09041(17) 0.02820(19)
Mn1C Mn -0.3333 0.3333 0.39616(4)
Mn1F Mn -0.6667 -0.3333 -0.10384(4)
Mn1F_2 Mn -0.6667 0.6667 -0.10384(4)
Mn1F_3 Mn 0.3333 0.6667 -0.10384(4)
Mn1I Mn -0.6667 -0.3333 0.60384(4)
Mn1I_2 Mn -0.6667 0.6667 0.60384(4)
Mn1I_3 Mn 0.3333 0.6667 0.60384(4)
N2F N -0.22443(12) 0.33429(13) 0.48872(14)
N2G N -0.33429(13) 0.44128(18) 0.48872(14)
N2H N -0.44128(18) 0.22443(12) 0.48872(14)
N2I N -0.33429(13) 0.22443(12) 0.01128(14)
N2J N -0.22443(12) 0.44128(18) 0.01128(14)
N2K N -0.44128(18) 0.33429(13) 0.01128(14)
Cl1 Cl 0.3333 0.6667 0.2500
loop_
_geom_bond_atom_site_label_1
_geom_bond_atom_site_label_2
_geom_bond_site_symmetry_1
_geom_bond_site_symmetry_2
Mn1 O1 1_555 1_555
O1 C1 1_555 1_555
N1 C4 1_555 1_555
N2 C6 1_555 1_555
C1 C2 1_555 1_555
C2 C3 1_555 1_555
C3 H1 1_555 1_555
C4 C3 1_555 1_555
C5 C4 1_555 1_555
H2 C5 1_555 1_555
C6 N1 1_555 1_555
H3 C6 1_555 1_555
C7 N2 1_555 1_555
C8 C7 1_555 1_555
H4 C8 1_555 1_555
C9 C8 1_555 1_555
H5 C9 1_555 1_555
C10 C9 1_555 1_555
H6 C10 1_555 1_555
C11 C10 1_555 1_555
H7 C11 1_555 1_555
C12 N1 1_555 1_555
O1D C1 1_555 1_555
N1D C4D 1_555 1_555
N2D C6D 1_555 1_555
C3D C2 1_555 1_555
H1D C3D 1_555 1_555
C4D C5 1_555 1_555
C6D N1D 1_555 1_555
H3D C6D 1_555 1_555
C7D N2D 1_555 1_555
C8D C7D 1_555 1_555
H4D C8D 1_555 1_555
C9D C8D 1_555 1_555
H5D C9D 1_555 1_555
C10D C9D 1_555 1_555
H6D C10D 1_555 1_555
C11D C10D 1_555 1_555
H7D C11D 1_555 1_555
C12D N1D 1_555 1_555
O1A Mn1 1_555 1_555
N1A C4A 1_555 1_555
N2A C6A 1_555 1_555
C1A O1A 1_555 1_555
C2A C1A 1_555 1_555
C3A C2A 1_555 1_555
H1A C3A 1_555 1_555
C4A C3A 1_555 1_555
C5A C4A 1_555 1_555
H2A C5A 1_555 1_555
C6A N1A 1_555 1_555
H3A C6A 1_555 1_555
C7A N2A 1_555 1_555
C8A C7A 1_555 1_555
H4A C8A 1_555 1_555
C9A C8A 1_555 1_555
H5A C9A 1_555 1_555
C10A C9A 1_555 1_555
H6A C10A 1_555 1_555
C11A C10A 1_555 1_555
H7A C11A 1_555 1_555
C12A N1A 1_555 1_555
O1E C1A 1_555 1_555
N1E C4E 1_555 1_555
N2E C6E 1_555 1_555
C3E C2A 1_555 1_555
H1E C3E 1_555 1_555
C4E C5A 1_555 1_555
C6E N1E 1_555 1_555
H3E C6E 1_555 1_555
C7E N2E 1_555 1_555
C8E C7E 1_555 1_555
H4E C8E 1_555 1_555
C9E C8E 1_555 1_555
H5E C9E 1_555 1_555
C10E C9E 1_555 1_555
H6E C10E 1_555 1_555
C11E C10E 1_555 1_555
H7E C11E 1_555 1_555
C12E N1E 1_555 1_555
O1B Mn1 1_555 1_555
N1B C4B 1_555 1_555
N2B C6B 1_555 1_555
C1B O1B 1_555 1_555
C2B C1B 1_555 1_555
C3B C2B 1_555 1_555
H1B C3B 1_555 1_555
C4B C3B 1_555 1_555
C5B C4B 1_555 1_555
H2B C5B 1_555 1_555
C6B N1B 1_555 1_555
H3B C6B 1_555 1_555
C7B N2B 1_555 1_555
C8B C7B 1_555 1_555
H4B C8B 1_555 1_555
C9B C8B 1_555 1_555
H5B C9B 1_555 1_555
C10B C9B 1_555 1_555
H6B C10B 1_555 1_555
C11B C10B 1_555 1_555
H7B C11B 1_555 1_555
C12B N1B 1_555 1_555
O1C C1B 1_555 1_555
N1C C4C 1_555 1_555
N2C C6C 1_555 1_555
C3C C2B 1_555 1_555
H1C C3C 1_555 1_555
C4C C5B 1_555 1_555
C6C N1C 1_555 1_555
H3C C6C 1_555 1_555
C7C N2C 1_555 1_555
C8C C7C 1_555 1_555
H4C C8C 1_555 1_555
C9C C8C 1_555 1_555
H5C C9C 1_555 1_555
C10C C9C 1_555 1_555
H6C C10C 1_555 1_555
C11C C10C 1_555 1_555
H7C C11C 1_555 1_555
C12C N1C 1_555 1_555
Mn1C O1D 1_555 1_555
Mn1F N2C 1_555 1_555
Mn1F_2 N2E 1_555 1_555
Mn1F_3 N2D 1_555 1_555
Mn1I N2B 1_555 1_555
Mn1I_2 N2A 1_555 1_555
Mn1I_3 N2 1_555 1_555
N2F Mn1C 1_555 1_555
N2G Mn1C 1_555 1_555
N2H Mn1C 1_555 1_555
N2I Mn1 1_555 1_555
N2J Mn1 1_555 1_555
N2K Mn1 1_555 1_555
C7 C12 1_555 1_555
C11 C12 1_555 1_555
C3D C4D 1_555 1_555
C7D C12D 1_555 1_555
C11D C12D 1_555 1_555
C7A C12A 1_555 1_555
C11A C12A 1_555 1_555
O1E Mn1C 1_555 1_555
C3E C4E 1_555 1_555
C7E C12E 1_555 1_555
C11E C12E 1_555 1_555
C7B C12B 1_555 1_555
C11B C12B 1_555 1_555
O1C Mn1C 1_555 1_555
C3C C4C 1_555 1_555
C7C C12C 1_555 1_555
C11C C12C 1_555 1_555

#END
