
#######################################################################
#
#                 Cambridge Crystallographic Data Centre
#                                CCDC 
#
#######################################################################
#
# If this CIF has been generated from an entry in the Cambridge 
# Structural Database, then it will include bibliographic, chemical, 
# crystal, experimental, refinement or atomic coordinate data resulting 
# from the CCDC's data processing and validation procedures.
#
#######################################################################

data_MIHBAG
_symmetry_cell_setting           monoclinic
_symmetry_space_group_name_H-M   'P 21/c'
_symmetry_Int_Tables_number      14
_space_group_name_Hall           '-P 2ybc'
loop_
_symmetry_equiv_pos_site_id
_symmetry_equiv_pos_as_xyz
1 x,y,z
2 -x,1/2+y,1/2-z
3 -x,-y,-z
4 x,1/2-y,1/2+z
_cell_length_a                   11.7056(10)
_cell_length_b                   12.3216(10)
_cell_length_c                   12.7812(10)
_cell_angle_alpha                90
_cell_angle_beta                 98.154(2)
_cell_angle_gamma                90
_cell_volume                     1824.82
loop_
_atom_site_label
_atom_site_type_symbol
_atom_site_fract_x
_atom_site_fract_y
_atom_site_fract_z
Mn1 Mn 0.5000 0.5000 0.5000
Mn2 Mn 0.6404(1) 0.1238(1) 0.6649(1)
O1 O 0.5045(2) 0.3269(2) 0.5245(2)
C1 C 0.5067(3) 0.2561(3) 0.5976(3)
C2 C 0.5540(3) 0.2718(3) 0.7045(3)
C3 C 0.5454(3) 0.1932(3) 0.7840(3)
C4 C 0.4865(3) 0.0929(3) 0.7626(3)
C5 C 0.4618(3) 0.0686(3) 0.6515(3)
C6 C 0.4707(3) 0.1460(3) 0.5729(3)
O2 O 0.4644(2) 0.0244(2) 0.8316(2)
C7 C 0.6995(3) 0.1289(3) 0.5432(3)
O3 O 0.7329(3) 0.1342(3) 0.4634(3)
C8 C 0.7720(4) 0.1752(4) 0.7375(4)
O4 O 0.8531(3) 0.2108(4) 0.7844(3)
C9 C 0.6841(4) -0.0147(4) 0.6909(4)
O5 O 0.7101(4) -0.1030(3) 0.7067(4)
N1 N 0.6965(2) 0.5019(2) 0.4979(2)
C10 C 0.7598(3) 0.4147(3) 0.5229(4)
C11 C 0.8776(3) 0.4093(3) 0.5251(4)
C12 C 0.9361(3) 0.5003(3) 0.4994(3)
C13 C 0.8715(4) 0.5919(4) 0.4738(5)
C14 C 0.7541(4) 0.5887(4) 0.4739(5)
H1 H 0.5925 0.3364 0.7235
H2 H 0.5796 0.2078 0.8528
H3 H 0.4391 -0.0015 0.6311
H4 H 0.4527 0.1258 0.5023
H5 H 0.7220 0.3522 0.5403
H6 H 0.9171 0.3452 0.5437
H7 H 0.9068 0.6557 0.4565
H8 H 0.7123 0.6518 0.4559
C12B C 1.0639(3) 0.4997(3) 0.5006(3)
C11B C 1.1224(3) 0.5907(3) 0.4749(4)
C10B C 1.2402(3) 0.5853(3) 0.4771(4)
N1B N 1.3035(2) 0.4981(2) 0.5021(2)
C14B C 1.2459(4) 0.4113(4) 0.5261(5)
C13B C 1.1285(4) 0.4081(4) 0.5262(5)
H7B H 1.0932 0.3443 0.5435
H8B H 1.2877 0.3482 0.5441
H5B H 1.2780 0.6478 0.4597
H6B H 1.0829 0.6548 0.4563
O1B O 0.4955(2) 0.6731(2) 0.4755(2)
C1B C 0.4933(3) 0.7439(3) 0.4024(3)
C2B C 0.4460(3) 0.7282(3) 0.2955(3)
C3B C 0.4546(3) 0.8068(3) 0.2160(3)
C4B C 0.5135(3) 0.9071(3) 0.2374(3)
C5B C 0.5382(3) 0.9314(3) 0.3485(3)
C6B C 0.5293(3) 0.8540(3) 0.4271(3)
O2B O 0.5356(2) 0.9756(2) 0.1684(2)
H1B H 0.4075 0.6636 0.2765
H2B H 0.4204 0.7922 0.1472
H3B H 0.5609 1.0015 0.3689
H4B H 0.5473 0.8742 0.4977
Mn2B Mn 0.3596(1) 0.8762(1) 0.3351(1)
C7B C 0.3005(3) 0.8711(3) 0.4568(3)
O3B O 0.2671(3) 0.8658(3) 0.5366(3)
C8B C 0.2280(4) 0.8248(4) 0.2625(4)
O4B O 0.1469(3) 0.7892(4) 0.2156(3)
C9B C 0.3159(4) 1.0147(4) 0.3091(4)
O5B O 0.2899(4) 1.1030(3) 0.2933(4)
O2A O 0.5356(2) 0.5244(2) 0.6684(2)
O2C O 0.4644(2) 0.4756(2) 0.3316(2)
N1B_2 N 0.3035(2) 0.4981(2) 0.5021(2)
Mn1A Mn 0.5000 0.0000 1.0000
Mn1_2 Mn 1.5000 0.5000 0.5000
Mn1A_2 Mn 0.5000 1.0000 0.0000
S1 S 0.1083(2) 0.0898(2) 0.6193(2)
O6 O 0.0119(13) 0.1638(11) 0.5843(11)
C15 C 0.0453(15) -0.0278(9) 0.6612(13)
C16 C 0.1694(17) 0.1370(20) 0.7385(16)
H9 H -0.0175 -0.0085 0.6984
H10 H 0.1018 -0.0680 0.7074
H11 H 0.0169 -0.0715 0.6009
H12 H 0.2135 0.2012 0.7288
H13 H 0.2192 0.0827 0.7739
S2? S 0.0499(7) 0.1071(7) 0.6986(7)
O7? O 0.0240(30) -0.0088(19) 0.6960(30)
C17? C 0.1840(20) 0.1460(40) 0.7430(30)
C18? C 0.0130(50) 0.1670(50) 0.5810(30)
H14? H 0.1101 0.1547 0.7804
H15? H 0.2338 0.0837 0.7505
H16? H 0.1856 0.1802 0.8110
H17? H 0.2100 0.1963 0.6946
H18? H 0.0751 0.1599 0.5399
H19? H -0.0031 0.2419 0.5911
H20? H -0.0547 0.1319 0.5444
loop_
_geom_bond_atom_site_label_1
_geom_bond_atom_site_label_2
_geom_bond_site_symmetry_1
_geom_bond_site_symmetry_2
Mn1 O1 1_555 1_555
Mn2 C1 1_555 1_555
O1 C1 1_555 1_555
C1 C2 1_555 1_555
C2 Mn2 1_555 1_555
C3 Mn2 1_555 1_555
C4 Mn2 1_555 1_555
C5 Mn2 1_555 1_555
C6 Mn2 1_555 1_555
O2 C4 1_555 1_555
C7 Mn2 1_555 1_555
O3 C7 1_555 1_555
C8 Mn2 1_555 1_555
O4 C8 1_555 1_555
C9 Mn2 1_555 1_555
O5 C9 1_555 1_555
N1 Mn1 1_555 1_555
C10 N1 1_555 1_555
C11 C10 1_555 1_555
C12 C11 1_555 1_555
C13 C12 1_555 1_555
C14 N1 1_555 1_555
S1 O6 1_555 1_555
C15 S1 1_555 1_555
C16 S1 1_555 1_555
H1 C2 1_555 1_555
H2 C3 1_555 1_555
H3 C5 1_555 1_555
H4 C6 1_555 1_555
H5 C10 1_555 1_555
H6 C11 1_555 1_555
H7 C13 1_555 1_555
H8 C14 1_555 1_555
H9 C15 1_555 1_555
H10 C15 1_555 1_555
H11 C15 1_555 1_555
H12 C16 1_555 1_555
H13 C16 1_555 1_555
C12B C12 1_555 1_555
C11B C12B 1_555 1_555
C10B C11B 1_555 1_555
N1B C10B 1_555 1_555
C14B N1B 1_555 1_555
C13B C12B 1_555 1_555
H7B C13B 1_555 1_555
H8B C14B 1_555 1_555
H5B C10B 1_555 1_555
H6B C11B 1_555 1_555
O1B Mn1 1_555 1_555
C1B O1B 1_555 1_555
C2B C1B 1_555 1_555
C3B C2B 1_555 1_555
C4B C3B 1_555 1_555
C5B C4B 1_555 1_555
C6B C1B 1_555 1_555
O2B C4B 1_555 1_555
H1B C2B 1_555 1_555
H2B C3B 1_555 1_555
H3B C5B 1_555 1_555
H4B C6B 1_555 1_555
Mn2B C1B 1_555 1_555
C7B Mn2B 1_555 1_555
O3B C7B 1_555 1_555
C8B Mn2B 1_555 1_555
O4B C8B 1_555 1_555
C9B Mn2B 1_555 1_555
O5B C9B 1_555 1_555
O2A Mn1 1_555 1_555
O2C Mn1 1_555 1_555
N1B_2 Mn1 1_555 1_555
Mn1A O2 1_555 1_555
Mn1_2 N1B 1_555 1_555
Mn1A_2 O2B 1_555 1_555
C1 C6 1_555 1_555
C2 C3 1_555 1_555
C3 C4 1_555 1_555
C4 C5 1_555 1_555
C5 C6 1_555 1_555
C13 C14 1_555 1_555
C14B C13B 1_555 1_555
C2B Mn2B 1_555 1_555
C3B Mn2B 1_555 1_555
C4B Mn2B 1_555 1_555
C5B Mn2B 1_555 1_555
C5B C6B 1_555 1_555
C6B Mn2B 1_555 1_555

#END
