
#######################################################################
#
#                 Cambridge Crystallographic Data Centre
#                                CCDC 
#
#######################################################################
#
# If this CIF has been generated from an entry in the Cambridge 
# Structural Database, then it will include bibliographic, chemical, 
# crystal, experimental, refinement or atomic coordinate data resulting 
# from the CCDC's data processing and validation procedures.
#
#######################################################################

data_MIHMAS
_symmetry_cell_setting           triclinic
_symmetry_space_group_name_H-M   'P -1'
_symmetry_Int_Tables_number      2
_space_group_name_Hall           '-P 1'
loop_
_symmetry_equiv_pos_site_id
_symmetry_equiv_pos_as_xyz
1 x,y,z
2 -x,-y,-z
_cell_length_a                   9.5168(2)
_cell_length_b                   15.0535(3)
_cell_length_c                   18.0806(4)
_cell_angle_alpha                92.6233(11)
_cell_angle_beta                 103.7107(11)
_cell_angle_gamma                95.6065(11)
_cell_volume                     2498.03
loop_
_atom_site_label
_atom_site_type_symbol
_atom_site_fract_x
_atom_site_fract_y
_atom_site_fract_z
Dy1 Dy -0.19744(3) -0.444988(19) -0.029732(16)
Cu1 Cu -0.27757(10) 0.02607(6) -0.55123(5)
C1 C -0.5149(7) -0.1267(4) -0.5888(4)
C2 C -0.5931(7) -0.1913(4) -0.5522(4)
H1 H -0.6785 -0.2299 -0.5761
C3 C -0.5215(7) -0.1866(5) -0.4775(4)
H2 H -0.5475 -0.2208 -0.4389
C4 C -0.3975(7) -0.1192(4) -0.4678(4)
C5 C -0.2887(7) -0.1045(4) -0.4014(3)
C6 C -0.1703(7) -0.0362(4) -0.3947(4)
C7 C -0.0457(7) -0.0230(4) -0.3311(4)
H3 H -0.0240 -0.0604 -0.2899
C8 C 0.0374(7) 0.0548(5) -0.3410(4)
H4 H 0.1263 0.0815 -0.3082
C9 C -0.0398(7) 0.0860(4) -0.4115(4)
C10 C -0.0006(7) 0.1684(4) -0.4373(4)
C11 C -0.0748(7) 0.1938(4) -0.5082(4)
C12 C -0.0479(9) 0.2806(5) -0.5351(5)
H5 H 0.0128 0.3306 -0.5067
C13 C -0.1239(8) 0.2777(5) -0.6071(4)
H6 H -0.1271 0.3253 -0.6399
C14 C -0.2002(7) 0.1898(4) -0.6262(4)
C15 C -0.2708(7) 0.1569(4) -0.6993(4)
C16 C -0.3479(7) 0.0721(4) -0.7152(4)
C17 C -0.4199(7) 0.0343(5) -0.7894(4)
H7 H -0.4140 0.0588 -0.8362
C18 C -0.4991(7) -0.0433(4) -0.7813(4)
H8 H -0.5592 -0.0833 -0.8210
C19 C -0.4729(7) -0.0526(4) -0.6998(3)
C20 C -0.5450(7) -0.1197(4) -0.6671(4)
N1 N -0.3992(5) -0.0799(3) -0.5360(3)
N2 N -0.1601(6) 0.0278(4) -0.4454(3)
N3 N -0.1737(6) 0.1402(3) -0.5630(3)
N4 N -0.3768(6) 0.0167(3) -0.6602(3)
C21 C -0.2882(7) -0.1605(4) -0.3366(4)
C22 C -0.2897(8) -0.2538(4) -0.3441(4)
H9 H -0.2871 -0.2815 -0.3920
C23 C -0.2948(7) -0.3063(4) -0.2847(4)
H10 H -0.2989 -0.3694 -0.2926
C24 C -0.2940(6) -0.2683(4) -0.2130(4)
C25 C -0.2915(7) -0.1762(5) -0.2031(4)
H11 H -0.2908 -0.1490 -0.1545
C26 C -0.2900(7) -0.1232(4) -0.2645(4)
H12 H -0.2902 -0.0604 -0.2571
C27 C -0.2901(6) -0.3257(4) -0.1467(4)
O1 O -0.2588(5) -0.2903(3) -0.0798(2)
O2 O -0.3135(5) -0.4105(3) -0.1590(2)
C28 C 0.1215(7) 0.2323(4) -0.3948(4)
C29 C 0.1246(8) 0.2754(5) -0.3244(4)
H13 H 0.0539 0.2554 -0.2978
C30 C 0.2278(8) 0.3465(5) -0.2922(4)
H14 H 0.2259 0.3761 -0.2450
C31 C 0.3354(7) 0.3744(4) -0.3304(4)
C32 C 0.3401(8) 0.3309(5) -0.3986(4)
H15 H 0.4140 0.3491 -0.4238
C33 C 0.2339(7) 0.2597(5) -0.4296(4)
H16 H 0.2380 0.2288 -0.4759
C34 C 0.4531(8) 0.4521(5) -0.2987(4)
O3 O 0.4510(5) 0.4823(3) -0.2304(3)
H17 H 0.5311 0.5189 -0.2064
O4 O 0.5385(7) 0.4792(4) -0.3336(4)
C35 C -0.2514(7) 0.2129(4) -0.7624(4)
C36 C -0.3186(7) 0.2902(5) -0.7776(4)
H18 H -0.3936 0.3023 -0.7532
C37 C -0.2796(7) 0.3502(4) -0.8270(4)
H19 H -0.3262 0.4030 -0.8364
C38 C -0.1695(7) 0.3310(4) -0.8629(3)
C39 C -0.1077(7) 0.2516(5) -0.8531(4)
H20 H -0.0360 0.2378 -0.8792
C40 C -0.1524(8) 0.1920(5) -0.8040(4)
H21 H -0.1142 0.1360 -0.7989
C41 C -0.1114(6) 0.3982(4) -0.9111(3)
O5 O -0.1827(5) 0.4630(3) -0.9298(2)
O6 O 0.0040(4) 0.3822(3) -0.9280(2)
C42 C -0.6523(7) -0.1857(4) -0.7209(4)
C43 C -0.5979(9) -0.2547(6) -0.7561(5)
H22 H -0.4968 -0.2609 -0.7421
C44 C -0.6906(9) -0.3142(6) -0.8115(5)
H23 H -0.6533 -0.3622 -0.8338
C45 C -0.8391(7) -0.3037(4) -0.8347(4)
C46 C -0.8865(7) -0.2312(5) -0.8039(5)
H24 H -0.9850 -0.2202 -0.8222
C47 C -0.7962(7) -0.1733(5) -0.7472(4)
H25 H -0.8339 -0.1246 -0.7261
C48 C -0.9381(7) -0.3665(4) -0.8975(4)
O7 O -0.8885(5) -0.4344(3) -0.9193(2)
O8 O -1.0651(4) -0.3462(3) -0.9258(2)
O9 O -0.3867(4) -0.3995(3) 0.0234(2)
O10 O -0.5863(4) -0.4478(3) 0.0619(2)
C49 C -0.4917(6) -0.4561(4) 0.0248(3)
Dy1_2 Dy -0.19744(3) -1.444988(19) 0.970268(16)
Dy1_3 Dy -0.19744(3) 0.555012(19) -1.029732(16)
Dy1A Dy 0.19744(3) 0.444988(19) -0.970268(16)
Dy1A_2 Dy -0.80256(3) -0.555012(19) -0.970268(16)
Dy1_4 Dy -1.19744(3) -0.444988(19) -1.029732(16)
Dy1A_3 Dy -0.80256(3) -0.555012(19) 0.029732(16)
Dy1A_4 Dy 0.19744(3) -0.555012(19) 0.029732(16)
Dy1A_5 Dy -0.80256(3) -1.555012(19) 0.029732(16)
Dy1_5 Dy -1.19744(3) -1.444988(19) -0.029732(16)
Cu1_2 Cu -0.27757(10) -0.97393(6) 0.44877(5)
C1_2 C -0.5149(7) -1.1267(4) 0.4112(4)
C2_2 C -0.5931(7) -1.1913(4) 0.4478(4)
H1_2 H -0.6785 -1.2299 0.4239
C3_2 C -0.5215(7) -1.1866(5) 0.5225(4)
H2_2 H -0.5475 -1.2208 0.5611
C4_2 C -0.3975(7) -1.1192(4) 0.5322(4)
C5_2 C -0.2887(7) -1.1045(4) 0.5986(3)
C6_2 C -0.1703(7) -1.0362(4) 0.6053(4)
C7_2 C -0.0457(7) -1.0230(4) 0.6689(4)
H3_2 H -0.0240 -1.0604 0.7101
C8_2 C 0.0374(7) -0.9452(5) 0.6590(4)
H4_2 H 0.1263 -0.9185 0.6918
C9_2 C -0.0398(7) -0.9140(4) 0.5885(4)
C10_2 C -0.0006(7) -0.8316(4) 0.5627(4)
C11_2 C -0.0748(7) -0.8062(4) 0.4918(4)
C12_2 C -0.0479(9) -0.7194(5) 0.4649(5)
H5_2 H 0.0128 -0.6694 0.4933
C13_2 C -0.1239(8) -0.7223(5) 0.3929(4)
H6_2 H -0.1271 -0.6747 0.3601
C14_2 C -0.2002(7) -0.8102(4) 0.3738(4)
C15_2 C -0.2708(7) -0.8431(4) 0.3007(4)
C16_2 C -0.3479(7) -0.9279(4) 0.2848(4)
C17_2 C -0.4199(7) -0.9657(5) 0.2106(4)
H7_2 H -0.4140 -0.9412 0.1638
C18_2 C -0.4991(7) -1.0433(4) 0.2187(4)
H8_2 H -0.5592 -1.0833 0.1790
C19_2 C -0.4729(7) -1.0526(4) 0.3002(3)
C20_2 C -0.5450(7) -1.1197(4) 0.3329(4)
N1_2 N -0.3992(5) -1.0799(3) 0.4640(3)
N2_2 N -0.1601(6) -0.9722(4) 0.5546(3)
N3_2 N -0.1737(6) -0.8598(3) 0.4370(3)
N4_2 N -0.3768(6) -0.9833(3) 0.3398(3)
C21_2 C -0.2882(7) -1.1605(4) 0.6634(4)
C22_2 C -0.2897(8) -1.2538(4) 0.6559(4)
H9_2 H -0.2871 -1.2815 0.6080
C23_2 C -0.2948(7) -1.3063(4) 0.7153(4)
H10_2 H -0.2989 -1.3694 0.7074
C24_2 C -0.2940(6) -1.2683(4) 0.7870(4)
C25_2 C -0.2915(7) -1.1762(5) 0.7969(4)
H11_2 H -0.2908 -1.1490 0.8455
C26_2 C -0.2900(7) -1.1232(4) 0.7355(4)
H12_2 H -0.2902 -1.0604 0.7429
C27_2 C -0.2901(6) -1.3257(4) 0.8533(4)
O1_2 O -0.2588(5) -1.2903(3) 0.9202(2)
O2_2 O -0.3135(5) -1.4105(3) 0.8410(2)
C28_2 C 0.1215(7) -0.7677(4) 0.6052(4)
C29_2 C 0.1246(8) -0.7246(5) 0.6756(4)
H13_2 H 0.0539 -0.7446 0.7022
C30_2 C 0.2278(8) -0.6535(5) 0.7078(4)
H14_2 H 0.2259 -0.6239 0.7550
C31_2 C 0.3354(7) -0.6256(4) 0.6696(4)
C32_2 C 0.3401(8) -0.6691(5) 0.6014(4)
H15_2 H 0.4140 -0.6509 0.5762
C33_2 C 0.2339(7) -0.7403(5) 0.5704(4)
H16_2 H 0.2380 -0.7712 0.5241
C34_2 C 0.4531(8) -0.5479(5) 0.7013(4)
O3_2 O 0.4510(5) -0.5177(3) 0.7696(3)
H17_2 H 0.5311 -0.4811 0.7936
O4_2 O 0.5385(7) -0.5208(4) 0.6664(4)
C35_2 C -0.2514(7) -0.7871(4) 0.2376(4)
C36_2 C -0.3186(7) -0.7098(5) 0.2224(4)
H18_2 H -0.3936 -0.6977 0.2468
C37_2 C -0.2796(7) -0.6498(4) 0.1730(4)
H19_2 H -0.3262 -0.5970 0.1636
C38_2 C -0.1695(7) -0.6690(4) 0.1371(3)
C39_2 C -0.1077(7) -0.7484(5) 0.1469(4)
H20_2 H -0.0360 -0.7622 0.1208
C40_2 C -0.1524(8) -0.8080(5) 0.1960(4)
H21_2 H -0.1142 -0.8640 0.2011
C41_2 C -0.1114(6) -0.6018(4) 0.0889(3)
O5_2 O -0.1827(5) -0.5370(3) 0.0702(2)
O5_3 O -0.1827(5) -1.5370(3) 1.0702(2)
O6_2 O 0.0040(4) -0.6178(3) 0.0720(2)
O6A O -0.0040(4) -0.3822(3) -0.0720(2)
O6A_2 O -0.0040(4) -1.3822(3) 0.9280(2)
C42_2 C -0.6523(7) -1.1857(4) 0.2791(4)
C43_2 C -0.5979(9) -1.2547(6) 0.2439(5)
H22_2 H -0.4968 -1.2609 0.2579
C44_2 C -0.6906(9) -1.3142(6) 0.1885(5)
H23_2 H -0.6533 -1.3622 0.1662
C45_2 C -0.8391(7) -1.3037(4) 0.1653(4)
C46_2 C -0.8865(7) -1.2312(5) 0.1961(5)
H24_2 H -0.9850 -1.2202 0.1778
C47_2 C -0.7962(7) -1.1733(5) 0.2528(4)
H25_2 H -0.8339 -1.1246 0.2739
C48_2 C -0.9381(7) -1.3665(4) 0.1025(4)
O7_2 O -0.8885(5) -1.4344(3) 0.0807(2)
O7A O -0.1115(5) -0.5656(3) -0.0807(2)
O7A_2 O -0.1115(5) -1.5656(3) 0.9193(2)
O8_2 O -1.0651(4) -1.3462(3) 0.0742(2)
O8_3 O -0.0651(4) -0.3462(3) 0.0742(2)
O8_4 O -0.0651(4) -1.3462(3) 1.0742(2)
O9A O -0.6133(4) -0.6005(3) -0.0234(2)
O9_2 O -0.3867(4) -1.3995(3) 1.0234(2)
O10A O -0.4137(4) -0.5522(3) -0.0619(2)
O10A_2 O -0.4137(4) -1.5522(3) 0.9381(2)
C49A C -0.5083(6) -0.5439(4) -0.0248(3)
loop_
_geom_bond_atom_site_label_1
_geom_bond_atom_site_label_2
_geom_bond_site_symmetry_1
_geom_bond_site_symmetry_2
Dy1 O1 1_555 1_555
Cu1 N1 1_555 1_555
C1 C2 1_555 1_555
C2 H1 1_555 1_555
C3 C2 1_555 1_555
H2 C3 1_555 1_555
C4 C3 1_555 1_555
C5 C4 1_555 1_555
C6 C5 1_555 1_555
C7 C6 1_555 1_555
H3 C7 1_555 1_555
C8 C7 1_555 1_555
H4 C8 1_555 1_555
C9 C8 1_555 1_555
C10 C9 1_555 1_555
C11 C10 1_555 1_555
C12 C11 1_555 1_555
H5 C12 1_555 1_555
C13 C12 1_555 1_555
H6 C13 1_555 1_555
C14 C13 1_555 1_555
C15 C14 1_555 1_555
C16 C15 1_555 1_555
C17 C16 1_555 1_555
H7 C17 1_555 1_555
C18 C17 1_555 1_555
H8 C18 1_555 1_555
C19 C18 1_555 1_555
C20 C1 1_555 1_555
N1 C1 1_555 1_555
N2 Cu1 1_555 1_555
N3 Cu1 1_555 1_555
N4 Cu1 1_555 1_555
C21 C5 1_555 1_555
C22 C21 1_555 1_555
H9 C22 1_555 1_555
C23 C22 1_555 1_555
H10 C23 1_555 1_555
C24 C23 1_555 1_555
C25 C24 1_555 1_555
H11 C25 1_555 1_555
C26 C21 1_555 1_555
H12 C26 1_555 1_555
C27 C24 1_555 1_555
O1 C27 1_555 1_555
O2 Dy1 1_555 1_555
C28 C10 1_555 1_555
C29 C28 1_555 1_555
H13 C29 1_555 1_555
C30 C29 1_555 1_555
H14 C30 1_555 1_555
C31 C30 1_555 1_555
C32 C31 1_555 1_555
H15 C32 1_555 1_555
C33 C28 1_555 1_555
H16 C33 1_555 1_555
C34 C31 1_555 1_555
O3 C34 1_555 1_555
H17 O3 1_555 1_555
O4 C34 1_555 1_555
C35 C15 1_555 1_555
C36 C35 1_555 1_555
H18 C36 1_555 1_555
C37 C36 1_555 1_555
H19 C37 1_555 1_555
C38 C37 1_555 1_555
C39 C38 1_555 1_555
H20 C39 1_555 1_555
C40 C35 1_555 1_555
H21 C40 1_555 1_555
C41 C38 1_555 1_555
O5 C41 1_555 1_555
O6 C41 1_555 1_555
C42 C20 1_555 1_555
C43 C42 1_555 1_555
H22 C43 1_555 1_555
C44 C43 1_555 1_555
H23 C44 1_555 1_555
C45 C44 1_555 1_555
C46 C45 1_555 1_555
H24 C46 1_555 1_555
C47 C42 1_555 1_555
H25 C47 1_555 1_555
C48 C45 1_555 1_555
O7 C48 1_555 1_555
O8 C48 1_555 1_555
O9 Dy1 1_555 1_555
O10 C49 1_555 1_555
C49 O9 1_555 1_555
Dy1_2 O1_2 1_555 1_555
Dy1_3 O5 1_555 1_555
Dy1A O6 1_555 1_555
Dy1A_2 O7 1_555 1_555
Dy1_4 O8 1_555 1_555
Dy1A_3 O10 1_555 1_555
Dy1A_4 O6_2 1_555 1_555
Dy1A_5 O7_2 1_555 1_555
Dy1_5 O8_2 1_555 1_555
Cu1_2 N1_2 1_555 1_555
C1_2 C2_2 1_555 1_555
C2_2 H1_2 1_555 1_555
C3_2 C2_2 1_555 1_555
H2_2 C3_2 1_555 1_555
C4_2 C3_2 1_555 1_555
C5_2 C4_2 1_555 1_555
C6_2 C5_2 1_555 1_555
C7_2 C6_2 1_555 1_555
H3_2 C7_2 1_555 1_555
C8_2 C7_2 1_555 1_555
H4_2 C8_2 1_555 1_555
C9_2 C8_2 1_555 1_555
C10_2 C9_2 1_555 1_555
C11_2 C10_2 1_555 1_555
C12_2 C11_2 1_555 1_555
H5_2 C12_2 1_555 1_555
C13_2 C12_2 1_555 1_555
H6_2 C13_2 1_555 1_555
C14_2 C13_2 1_555 1_555
C15_2 C14_2 1_555 1_555
C16_2 C15_2 1_555 1_555
C17_2 C16_2 1_555 1_555
H7_2 C17_2 1_555 1_555
C18_2 C17_2 1_555 1_555
H8_2 C18_2 1_555 1_555
C19_2 C18_2 1_555 1_555
C20_2 C1_2 1_555 1_555
N1_2 C1_2 1_555 1_555
N2_2 Cu1_2 1_555 1_555
N3_2 Cu1_2 1_555 1_555
N4_2 Cu1_2 1_555 1_555
C21_2 C5_2 1_555 1_555
C22_2 C21_2 1_555 1_555
H9_2 C22_2 1_555 1_555
C23_2 C22_2 1_555 1_555
H10_2 C23_2 1_555 1_555
C24_2 C23_2 1_555 1_555
C25_2 C24_2 1_555 1_555
H11_2 C25_2 1_555 1_555
C26_2 C21_2 1_555 1_555
H12_2 C26_2 1_555 1_555
C27_2 C24_2 1_555 1_555
O1_2 C27_2 1_555 1_555
O2_2 Dy1_2 1_555 1_555
C28_2 C10_2 1_555 1_555
C29_2 C28_2 1_555 1_555
H13_2 C29_2 1_555 1_555
C30_2 C29_2 1_555 1_555
H14_2 C30_2 1_555 1_555
C31_2 C30_2 1_555 1_555
C32_2 C31_2 1_555 1_555
H15_2 C32_2 1_555 1_555
C33_2 C28_2 1_555 1_555
H16_2 C33_2 1_555 1_555
C34_2 C31_2 1_555 1_555
O3_2 C34_2 1_555 1_555
H17_2 O3_2 1_555 1_555
O4_2 C34_2 1_555 1_555
C35_2 C15_2 1_555 1_555
C36_2 C35_2 1_555 1_555
H18_2 C36_2 1_555 1_555
C37_2 C36_2 1_555 1_555
H19_2 C37_2 1_555 1_555
C38_2 C37_2 1_555 1_555
C39_2 C38_2 1_555 1_555
H20_2 C39_2 1_555 1_555
C40_2 C35_2 1_555 1_555
H21_2 C40_2 1_555 1_555
C41_2 C38_2 1_555 1_555
O5_2 Dy1 1_555 1_555
O5_3 Dy1_2 1_555 1_555
O6_2 C41_2 1_555 1_555
O6A Dy1 1_555 1_555
O6A_2 Dy1_2 1_555 1_555
C42_2 C20_2 1_555 1_555
C43_2 C42_2 1_555 1_555
H22_2 C43_2 1_555 1_555
C44_2 C43_2 1_555 1_555
H23_2 C44_2 1_555 1_555
C45_2 C44_2 1_555 1_555
C46_2 C45_2 1_555 1_555
H24_2 C46_2 1_555 1_555
C47_2 C42_2 1_555 1_555
H25_2 C47_2 1_555 1_555
C48_2 C45_2 1_555 1_555
O7_2 C48_2 1_555 1_555
O7A Dy1 1_555 1_555
O7A_2 Dy1_2 1_555 1_555
O8_2 C48_2 1_555 1_555
O8_3 Dy1 1_555 1_555
O8_4 Dy1_2 1_555 1_555
O9A Dy1A_3 1_555 1_555
O9_2 Dy1_2 1_555 1_555
O10A Dy1 1_555 1_555
O10A_2 Dy1_2 1_555 1_555
C49A C49 1_555 1_555
C4 N1 1_555 1_555
C6 N2 1_555 1_555
C9 N2 1_555 1_555
C11 N3 1_555 1_555
C14 N3 1_555 1_555
C16 N4 1_555 1_555
C19 C20 1_555 1_555
C19 N4 1_555 1_555
C25 C26 1_555 1_555
C27 O2 1_555 1_555
C32 C33 1_555 1_555
C39 C40 1_555 1_555
C46 C47 1_555 1_555
C4_2 N1_2 1_555 1_555
C6_2 N2_2 1_555 1_555
C9_2 N2_2 1_555 1_555
C11_2 N3_2 1_555 1_555
C14_2 N3_2 1_555 1_555
C16_2 N4_2 1_555 1_555
C19_2 C20_2 1_555 1_555
C19_2 N4_2 1_555 1_555
C25_2 C26_2 1_555 1_555
C27_2 O2_2 1_555 1_555
C32_2 C33_2 1_555 1_555
C39_2 C40_2 1_555 1_555
C41_2 O5_2 1_555 1_555
C46_2 C47_2 1_555 1_555
O9A C49A 1_555 1_555
O10A C49A 1_555 1_555

#END
