
#######################################################################
#
#                 Cambridge Crystallographic Data Centre
#                                CCDC 
#
#######################################################################
#
# If this CIF has been generated from an entry in the Cambridge 
# Structural Database, then it will include bibliographic, chemical, 
# crystal, experimental, refinement or atomic coordinate data resulting 
# from the CCDC's data processing and validation procedures.
#
#######################################################################

data_MITSAK
_symmetry_cell_setting           monoclinic
_symmetry_space_group_name_H-M   'P 21/c'
_symmetry_Int_Tables_number      14
_space_group_name_Hall           '-P 2ybc'
loop_
_symmetry_equiv_pos_site_id
_symmetry_equiv_pos_as_xyz
1 x,y,z
2 -x,1/2+y,1/2-z
3 -x,-y,-z
4 x,1/2-y,1/2+z
_cell_length_a                   16.0984(16)
_cell_length_b                   14.6070(14)
_cell_length_c                   16.1257(16)
_cell_angle_alpha                90
_cell_angle_beta                 101.479(2)
_cell_angle_gamma                90
_cell_volume                     3716.1
loop_
_atom_site_label
_atom_site_type_symbol
_atom_site_fract_x
_atom_site_fract_y
_atom_site_fract_z
N1 N 0.5320(3) 0.6754(4) 0.3597(3)
C19 C 0.5180(4) 0.6230(4) 0.4313(4)
C20 C 0.5969(4) 0.6338(5) 0.5069(4)
C21 C 0.5958(6) 0.5751(7) 0.5763(6)
C22 C 0.5076(4) 0.4574(6) 0.4795(5)
C23 C 0.5782(5) 0.4699(6) 0.5564(5)
C24 C 0.5183(4) 0.5135(6) 0.4075(4)
N1B N 0.4680(3) 0.3246(4) 0.6403(3)
C19B C 0.4820(4) 0.3770(4) 0.5687(4)
C20B C 0.4031(4) 0.3662(5) 0.4931(4)
C21B C 0.4042(6) 0.4249(7) 0.4237(6)
C22B C 0.4924(4) 0.5426(6) 0.5205(5)
C23B C 0.4218(5) 0.5301(6) 0.4436(5)
C24B C 0.4817(4) 0.4865(6) 0.5925(4)
N2 N 0.9666(4) 0.2055(4) 0.6449(4)
C25 C 0.9736(4) 0.1489(4) 0.5709(4)
C26 C 0.9046(5) 0.1639(4) 0.4933(4)
C27 C 0.9080(5) 0.1075(6) 0.4221(5)
C28 C 0.9872(5) 0.0494(5) 0.6009(5)
C29 C 0.9936(5) -0.0085(7) 0.5224(4)
C30 C 0.9159(5) 0.0090(5) 0.4559(4)
N2B N 1.0334(4) -0.2055(4) 0.3551(4)
C25B C 1.0264(4) -0.1489(4) 0.4291(4)
C26B C 1.0954(5) -0.1639(4) 0.5067(4)
C27B C 1.0920(5) -0.1075(6) 0.5779(5)
C28B C 1.0128(5) -0.0494(5) 0.3991(5)
C29B C 1.0064(5) 0.0085(7) 0.4776(4)
C30B C 1.0841(5) -0.0090(5) 0.5441(4)
O15 O 0.6237(3) 0.1102(4) 0.2495(3)
C31 C 0.6946(4) 0.1457(5) 0.2527(4)
C32 C 0.7654(4) 0.1136(5) 0.3176(3)
O16 O 0.8795(3) 0.8580(4) 0.2554(3)
C33 C 0.8021(7) 0.8247(7) 0.2392(5)
C34 C 0.7327(4) 0.8561(4) 0.1822(4)
O17 O 0.8258(2) 0.1393(2) 0.6967(2)
O18 O 0.6738(2) 0.6334(3) 0.3023(2)
Cd1 Cd 0.457719(16) 0.931796(18) 0.391396(16)
Cd2 Cd 0.04233(2) 1.06734(3) 0.108630(19)
O1 O 0.14716(19) 1.0354(2) 0.23729(16)
O2 O 0.05373(18) 1.1449(2) 0.23592(17)
O3 O 0.40412(17) 1.0340(2) 0.47292(17)
O4 O 0.40564(15) 1.12585(19) 0.58346(16)
O5 O 0.1673(2) 1.3269(3) 0.59854(18)
O6 O 0.05363(19) 1.3274(3) 0.49656(19)
O7 O 0.44370(19) 0.8277(2) 0.50047(17)
O8 O 0.3303(2) 0.8274(3) 0.4005(2)
O9 O 0.4448(2) 0.6493(3) 0.7629(2)
O10 O 0.3529(2) 0.5405(3) 0.76468(19)
O11 O 0.0944(2) 0.6235(3) 0.41557(18)
O12 O 0.09422(19) 0.5372(3) 0.52400(19)
O13 O -0.0139(2) 0.9277(3) 0.1471(2)
O14 O 0.5112(2) 1.0709(2) 0.3506(2)
C1 C 0.1177(2) 1.1033(3) 0.2709(2)
C2 C 0.1665(3) 1.1336(3) 0.3601(2)
C3 C 0.1289(2) 1.2004(3) 0.4009(2)
H1 H 0.0768 1.2249 0.3751
C4 C 0.1679(3) 1.2304(3) 0.4785(2)
C5 C 0.2460(2) 1.1939(2) 0.5152(2)
H2 H 0.2738 1.2150 0.5678
C6 C 0.2836(2) 1.1259(2) 0.4744(2)
C7 C 0.2439(2) 1.0981(3) 0.3957(2)
H3 H 0.2695 1.0552 0.3663
C8 C 0.1291(3) 1.2989(3) 0.5314(3)
C9 C 0.3698(2) 1.0921(3) 0.5127(2)
C10 C 0.3717(3) 0.7984(3) 0.4721(2)
C11 C 0.3294(3) 0.7307(3) 0.5148(3)
C12 C 0.3718(3) 0.6994(4) 0.6019(3)
H4 H 0.4230 0.7259 0.6277
C13 C 0.3388(3) 0.6364(4) 0.6418(3)
C14 C 0.2597(3) 0.5976(4) 0.6064(3)
H5 H 0.2362 0.5525 0.6354
C15 C 0.2141(3) 0.6295(4) 0.5222(3)
C16 C 0.2537(3) 0.6915(3) 0.4844(3)
H6 H 0.2262 0.7101 0.4308
C17 C 0.3806(3) 0.6037(4) 0.7311(3)
C18 C 0.1284(3) 0.5918(3) 0.4867(3)
Cd1B Cd 0.542281(16) 1.068204(18) 0.608604(16)
Cd1C Cd 0.457719(16) 0.568204(18) 0.891396(16)
Cd1C_2 Cd 0.457719(16) 0.568204(18) -0.108604(16)
Cd2B Cd 0.95767(2) 0.93266(3) 0.891370(19)
Cd2C Cd 0.04233(2) 1.43266(3) 0.608630(19)
Cd2A Cd -0.04233(2) 0.56734(3) 0.391370(19)
Cd2C_2 Cd 0.04233(2) 0.43266(3) 0.608630(19)
Cd2A_2 Cd 0.95767(2) 0.56734(3) 0.391370(19)
Cd2B_2 Cd -0.04233(2) 0.93266(3) -0.108630(19)
O1B O 0.85284(19) 0.9646(2) 0.76271(16)
O2B O 0.94627(18) 0.8551(2) 0.76408(17)
O3B O 0.59588(17) 0.9660(2) 0.52708(17)
O4B O 0.59436(15) 0.87415(19) 0.41654(16)
O5B O 0.8327(2) 0.6731(3) 0.40146(18)
O5C O 0.1673(2) 1.1731(3) 0.09854(18)
O5A O 0.8327(2) 0.8269(3) 0.90146(18)
O6B O 0.94637(19) 0.6726(3) 0.50344(19)
O6C O 0.05363(19) 1.1726(3) -0.00344(19)
O6A O 0.94637(19) 0.8274(3) 1.00344(19)
O7C O 0.44370(19) 0.6723(2) 0.00047(17)
O7B O 0.55630(19) 1.1723(2) 0.49953(17)
O8C O 0.3303(2) 0.6726(3) -0.0995(2)
O8B O 0.6697(2) 1.1726(3) 0.5995(2)
O9C O 0.4448(2) 0.8507(3) 0.2629(2)
O9A O 0.5552(2) 1.1493(3) 0.7371(2)
O10C O 0.3529(2) 0.9595(3) 0.26468(19)
O10A O 0.6471(2) 1.0405(3) 0.73532(19)
O11C O 0.0944(2) 0.8765(3) -0.08443(18)
O11A O -0.0944(2) 1.1235(3) 0.08443(18)
O11C_2 O 1.0944(2) 0.8765(3) 0.91557(18)
O12C O 0.09422(19) 0.9628(3) 0.02400(19)
O12A O 0.90578(19) 1.0372(3) 0.97600(19)
O13B O 1.0139(2) 1.0723(3) 0.8529(2)
O14B O 0.4888(2) 0.9291(2) 0.6494(2)
C1B C 0.8823(2) 0.8967(3) 0.7291(2)
C2B C 0.8335(3) 0.8664(3) 0.6399(2)
C3B C 0.8711(2) 0.7996(3) 0.5991(2)
H1B H 0.9232 0.7751 0.6249
C4B C 0.8321(3) 0.7696(3) 0.5215(2)
C5B C 0.7540(2) 0.8061(2) 0.4848(2)
H2B H 0.7262 0.7850 0.4322
C6B C 0.7164(2) 0.8741(2) 0.5256(2)
C7B C 0.7561(2) 0.9019(3) 0.6043(2)
H3B H 0.7305 0.9448 0.6337
C8B C 0.8709(3) 0.7011(3) 0.4686(3)
C9B C 0.6302(2) 0.9079(3) 0.4873(2)
C10C C 0.3717(3) 0.7016(3) -0.0279(2)
C11C C 0.3294(3) 0.7693(3) 0.0148(3)
C12C C 0.3718(3) 0.8006(4) 0.1019(3)
H4C H 0.4230 0.7741 0.1277
C13C C 0.3388(3) 0.8636(4) 0.1418(3)
C14C C 0.2597(3) 0.9024(4) 0.1064(3)
H5C H 0.2362 0.9475 0.1354
C15C C 0.2141(3) 0.8705(4) 0.0222(3)
C16C C 0.2537(3) 0.8085(3) -0.0156(3)
H6C H 0.2262 0.7899 -0.0692
C17C C 0.3806(3) 0.8963(4) 0.2311(3)
C18C C 0.1284(3) 0.9082(3) -0.0133(3)
loop_
_geom_bond_atom_site_label_1
_geom_bond_atom_site_label_2
_geom_bond_site_symmetry_1
_geom_bond_site_symmetry_2
Cd1 O3 1_555 1_555
Cd2 O1 1_555 1_555
N1 C19 1_555 1_555
N2 C25 1_555 1_555
O1 C1 1_555 1_555
O2 Cd2 1_555 1_555
O3 C9 1_555 1_555
O4 C9 1_555 1_555
O5 C8 1_555 1_555
O6 C8 1_555 1_555
O7 Cd1 1_555 1_555
O8 Cd1 1_555 1_555
O9 C17 1_555 1_555
O10 C17 1_555 1_555
O11 C18 1_555 1_555
O12 C18 1_555 1_555
O13 Cd2 1_555 1_555
O14 Cd1 1_555 1_555
O15 C31 1_555 1_555
O16 C33 1_555 1_555
C1 O2 1_555 1_555
C2 C1 1_555 1_555
C3 C2 1_555 1_555
H1 C3 1_555 1_555
C4 C3 1_555 1_555
C5 C4 1_555 1_555
H2 C5 1_555 1_555
C6 C5 1_555 1_555
C7 C2 1_555 1_555
H3 C7 1_555 1_555
C8 C4 1_555 1_555
C9 C6 1_555 1_555
C10 O7 1_555 1_555
C11 C10 1_555 1_555
C12 C11 1_555 1_555
H4 C12 1_555 1_555
C13 C12 1_555 1_555
C14 C13 1_555 1_555
H5 C14 1_555 1_555
C15 C14 1_555 1_555
C16 C11 1_555 1_555
H6 C16 1_555 1_555
C17 C13 1_555 1_555
C18 C15 1_555 1_555
C19 C20 1_555 1_555
C20 C21 1_555 1_555
C21 C23 1_555 1_555
C22 C23 1_555 1_555
C23 C22B 1_555 1_555
C24 C19 1_555 1_555
C25 C26 1_555 1_555
C26 C27 1_555 1_555
C27 C30 1_555 1_555
C28 C25 1_555 1_555
C29 C28 1_555 1_555
C30 C29 1_555 1_555
C31 C32 1_555 1_555
C33 C34 1_555 1_555
Cd1B O4 1_555 1_555
Cd1C O9 1_555 1_555
Cd1C_2 O7C 1_555 1_555
Cd2B O1B 1_555 1_555
Cd2C O5 1_555 1_555
Cd2A O11 1_555 1_555
Cd2C_2 O12 1_555 1_555
Cd2A_2 O5B 1_555 1_555
Cd2B_2 O11C 1_555 1_555
N1B C19B 1_555 1_555
N2B C25B 1_555 1_555
O1B C1B 1_555 1_555
O2B Cd2B 1_555 1_555
O3B Cd1B 1_555 1_555
O4B Cd1 1_555 1_555
O5B C8B 1_555 1_555
O5C Cd2 1_555 1_555
O5A Cd2B 1_555 1_555
O6B Cd2A_2 1_555 1_555
O6C Cd2 1_555 1_555
O6A Cd2B 1_555 1_555
O7C C10C 1_555 1_555
O7B Cd1B 1_555 1_555
O8C Cd1C_2 1_555 1_555
O8B Cd1B 1_555 1_555
O9C Cd1 1_555 1_555
O9A Cd1B 1_555 1_555
O10C Cd1 1_555 1_555
O10A Cd1B 1_555 1_555
O11C C18C 1_555 1_555
O11A Cd2 1_555 1_555
O11C_2 Cd2B 1_555 1_555
O12C Cd2 1_555 1_555
O12A Cd2B 1_555 1_555
O13B Cd2B 1_555 1_555
O14B Cd1B 1_555 1_555
C1B O2B 1_555 1_555
C2B C1B 1_555 1_555
C3B C2B 1_555 1_555
H1B C3B 1_555 1_555
C4B C3B 1_555 1_555
C5B C4B 1_555 1_555
H2B C5B 1_555 1_555
C6B C5B 1_555 1_555
C7B C2B 1_555 1_555
H3B C7B 1_555 1_555
C8B O6B 1_555 1_555
C9B O3B 1_555 1_555
C10C O8C 1_555 1_555
C11C C10C 1_555 1_555
C12C C11C 1_555 1_555
H4C C12C 1_555 1_555
C13C C12C 1_555 1_555
C14C C13C 1_555 1_555
H5C C14C 1_555 1_555
C15C C14C 1_555 1_555
C16C C11C 1_555 1_555
H6C C16C 1_555 1_555
C17C O9C 1_555 1_555
C18C O12C 1_555 1_555
C19B C20B 1_555 1_555
C20B C21B 1_555 1_555
C21B C23B 1_555 1_555
C22B C22 1_555 1_555
C23B C22 1_555 1_555
C24B C19B 1_555 1_555
C25B C26B 1_555 1_555
C26B C27B 1_555 1_555
C27B C30B 1_555 1_555
C28B C25B 1_555 1_555
C29B C29 1_555 1_555
C30B C29 1_555 1_555
O6 Cd2C 1_555 1_555
O8 C10 1_555 1_555
O10 Cd1C 1_555 1_555
C6 C7 1_555 1_555
C15 C16 1_555 1_555
C22 C24 1_555 1_555
C30 C29B 1_555 1_555
O4B C9B 1_555 1_555
O10C C17C 1_555 1_555
C4B C8B 1_555 1_555
C6B C7B 1_555 1_555
C6B C9B 1_555 1_555
C13C C17C 1_555 1_555
C15C C16C 1_555 1_555
C15C C18C 1_555 1_555
C22B C23B 1_555 1_555
C22B C24B 1_555 1_555
C28B C29B 1_555 1_555
C29B C30B 1_555 1_555

#END
