
#######################################################################
#
#                 Cambridge Crystallographic Data Centre
#                                CCDC 
#
#######################################################################
#
# If this CIF has been generated from an entry in the Cambridge 
# Structural Database, then it will include bibliographic, chemical, 
# crystal, experimental, refinement or atomic coordinate data resulting 
# from the CCDC's data processing and validation procedures.
#
#######################################################################

data_MIVWAR
_symmetry_cell_setting           monoclinic
_symmetry_space_group_name_H-M   'C 2'
_symmetry_Int_Tables_number      5
_space_group_name_Hall           'C 2y'
loop_
_symmetry_equiv_pos_site_id
_symmetry_equiv_pos_as_xyz
1 x,y,z
2 -x,y,-z
3 1/2+x,1/2+y,z
4 1/2-x,1/2+y,-z
_cell_length_a                   16.835(8)
_cell_length_b                   9.707(5)
_cell_length_c                   39.767(19)
_cell_angle_alpha                90
_cell_angle_beta                 90.522(10)
_cell_angle_gamma                90
_cell_volume                     6498.35
loop_
_atom_site_label
_atom_site_type_symbol
_atom_site_fract_x
_atom_site_fract_y
_atom_site_fract_z
Cu1 Cu 0.0000 0.06478(14) 0.0000
Cu2 Cu 0.55023(6) -0.28513(10) -0.33335(2)
C1 C 0.6635(6) -1.1206(9) -0.48420(19)
C2 C 0.6362(6) -1.0116(11) -0.4654(2)
H1 H 0.5928 -0.9587 -0.4721
C3 C 0.6782(6) -0.9857(9) -0.4354(2)
C4 C 0.7359(7) -1.0672(11) -0.4251(3)
H2 H 0.7594 -1.0506 -0.4043
C5 C 0.7630(7) -1.1767(11) -0.4442(3)
H3 H 0.8064 -1.2291 -0.4372
C6 C 0.7235(6) -1.2045(9) -0.4734(2)
H4 H 0.7375 -1.2810 -0.4861
O1 O 0.6227(4) -1.1556(6) -0.51332(13)
O2 O 0.6382(7) -0.9510(10) -0.5358(2)
N1 N 0.4973(4) -1.2137(7) -0.62333(15)
C7 C 0.5381(7) -1.2974(15) -0.6039(3)
H5 H 0.5418 -1.3892 -0.6104
C8 C 0.5747(6) -1.2594(10) -0.5754(2)
H6 H 0.6018 -1.3233 -0.5622
C9 C 0.5711(7) -1.1239(10) -0.5662(2)
C10 C 0.5329(7) -1.0322(10) -0.5869(2)
H7 H 0.5306 -0.9387 -0.5819
C11 C 0.4982(6) -1.0851(10) -0.61539(19)
H8 H 0.4736 -1.0237 -0.6301
C12 C 0.6132(6) -1.0643(10) -0.5363(2)
N2 N 0.5977(4) -0.4379(7) -0.35913(14)
O3 O 0.6519(5) -0.8718(7) -0.41757(16)
O4 O 0.7390(6) -0.7356(8) -0.4417(2)
C13 C 0.6523(7) -0.4135(10) -0.3830(2)
H9 H 0.6693 -0.3234 -0.3863
C14 C 0.6838(6) -0.5155(10) -0.4026(2)
H10 H 0.7251 -0.4974 -0.4173
C15 C 0.6528(6) -0.6444(9) -0.39965(19)
C16 C 0.5988(5) -0.6717(9) -0.3764(2)
H11 H 0.5778 -0.7598 -0.3742
C17 C 0.5744(6) -0.5649(10) -0.3555(2)
H12 H 0.5398 -0.5853 -0.3381
C18 C 0.6855(7) -0.7543(10) -0.4219(2)
C19 C 0.5865(6) -0.7805(11) -0.10272(19)
C20 C 0.5966(7) -0.7008(12) -0.1322(2)
H13 H 0.6447 -0.6637 -0.1390
C21 C 0.5218(8) -0.6843(11) -0.1504(2)
C22 C 0.4538(5) -0.7329(10) -0.1405(2)
H14 H 0.4088 -0.7213 -0.1539
C23 C 0.4483(6) -0.8000(14) -0.1108(2)
H15 H 0.3991 -0.8287 -0.1030
C24 C 0.5164(7) -0.8256(11) -0.0920(2)
H16 H 0.5131 -0.8744 -0.0720
O5 O 0.6548(4) -0.7948(9) -0.08344(13)
O6 O 0.6804(5) -0.9893(9) -0.1083(2)
N3 N 0.8989(4) -0.9301(8) -0.02602(15)
C25 C 0.8466(6) -0.8294(9) -0.0227(2)
H17 H 0.8548 -0.7648 -0.0058
C26 C 0.7831(6) -0.8163(9) -0.0425(2)
H18 H 0.7488 -0.7419 -0.0401
C27 C 0.7694(5) -0.9142(9) -0.06622(19)
C28 C 0.8204(6) -1.0195(10) -0.0690(2)
H19 H 0.8114 -1.0879 -0.0850
C29 C 0.8818(6) -1.0256(10) -0.0496(2)
H20 H 0.9162 -1.0998 -0.0520
C30 C 0.6962(6) -0.9061(10) -0.08805(19)
O7 O 0.6261(7) -0.7330(12) -0.2024(2)
N4 N 0.5618(5) -0.3949(7) -0.29023(16)
O8 O 0.5269(4) -0.6097(7) -0.17975(14)
C31 C 0.5009(9) -0.4116(13) -0.2706(3)
H21 H 0.4531 -0.3717 -0.2773
C32 C 0.5016(7) -0.4820(13) -0.2413(3)
H22 H 0.4579 -0.4849 -0.2272
C33 C 0.5712(6) -0.5489(11) -0.2338(2)
C34 C 0.6345(7) -0.5333(11) -0.2542(2)
H23 H 0.6826 -0.5758 -0.2491
C35 C 0.6270(7) -0.4566(10) -0.2815(2)
H24 H 0.6711 -0.4465 -0.2953
C36 C 0.5799(7) -0.6396(11) -0.2036(2)
C37 C 0.2644(6) 0.2556(10) -0.2307(2)
C38 C 0.2298(5) 0.2072(11) -0.2018(2)
H25 H 0.2341 0.1153 -0.1955
C39 C 0.1886(6) 0.3009(10) -0.18276(18)
C40 C 0.1755(5) 0.4298(11) -0.1921(2)
H26 H 0.1450 0.4884 -0.1789
C41 C 0.2100(6) 0.4780(11) -0.2235(2)
H27 H 0.2010 0.5665 -0.2317
C42 C 0.2564(7) 0.3846(10) -0.2401(3)
H28 H 0.2836 0.4141 -0.2591
N5 N 0.0593(4) 0.1023(8) -0.04333(17)
O9 O 0.1501(4) 0.2583(7) -0.15332(13)
O10 O 0.2627(6) 0.1776(13) -0.1313(2)
C43 C 0.1208(6) 0.0347(10) -0.05120(19)
H29 H 0.1370 -0.0369 -0.0372
C44 C 0.1660(5) 0.0627(12) -0.0801(2)
H30 H 0.2108 0.0107 -0.0850
C45 C 0.1435(5) 0.1630(11) -0.09971(19)
C46 C 0.0755(5) 0.2424(14) -0.0911(3)
H31 H 0.0580 0.3161 -0.1041
C47 C 0.0376(7) 0.2030(16) -0.0624(3)
H32 H -0.0072 0.2527 -0.0561
C48 C 0.1912(6) 0.2012(13) -0.1301(2)
N6 N 0.4966(5) -0.1358(8) -0.30703(15)
O11 O 0.3071(5) 0.1628(8) -0.25057(17)
O12 O 0.4182(4) 0.2213(11) -0.2247(2)
C49 C 0.5376(5) -0.0680(10) -0.2838(2)
H33 H 0.5917 -0.0853 -0.2814
C50 C 0.5022(6) 0.0282(10) -0.2629(2)
H34 H 0.5317 0.0748 -0.2466
C51 C 0.4216(6) 0.0528(9) -0.2670(2)
C52 C 0.3854(5) -0.0162(9) -0.29082(19)
H35 H 0.3314 0.0006 -0.2938
C53 C 0.4185(6) -0.1087(9) -0.3114(2)
H36 H 0.3888 -0.1527 -0.3280
C54 C 0.3851(7) 0.1538(10) -0.2451(2)
O13 O 0.6667(4) -0.1672(8) -0.3342(2)
O14 O 0.0000 -0.1688(10) 0.0000
Cu2A Cu -0.55023(6) -0.28513(10) 0.33335(2)
C1A C -0.6635(6) -1.1206(9) 0.48420(19)
C2A C -0.6362(6) -1.0116(11) 0.4654(2)
H1A H -0.5928 -0.9587 0.4721
C3A C -0.6782(6) -0.9857(9) 0.4354(2)
C4A C -0.7359(7) -1.0672(11) 0.4251(3)
H2A H -0.7594 -1.0506 0.4043
C5A C -0.7630(7) -1.1767(11) 0.4442(3)
H3A H -0.8064 -1.2291 0.4372
C6A C -0.7235(6) -1.2045(9) 0.4734(2)
H4A H -0.7375 -1.2810 0.4861
O1A O -0.6227(4) -1.1556(6) 0.51332(13)
O2A O -0.6382(7) -0.9510(10) 0.5358(2)
N1A N -0.4973(4) -1.2137(7) 0.62333(15)
C7A C -0.5381(7) -1.2974(15) 0.6039(3)
H5A H -0.5418 -1.3892 0.6104
C8A C -0.5747(6) -1.2594(10) 0.5754(2)
H6A H -0.6018 -1.3233 0.5622
C9A C -0.5711(7) -1.1239(10) 0.5662(2)
C10A C -0.5329(7) -1.0322(10) 0.5869(2)
H7A H -0.5306 -0.9387 0.5819
C11A C -0.4982(6) -1.0851(10) 0.61539(19)
H8A H -0.4736 -1.0237 0.6301
C12A C -0.6132(6) -1.0643(10) 0.5363(2)
N2A N -0.5977(4) -0.4379(7) 0.35913(14)
O3A O -0.6519(5) -0.8718(7) 0.41757(16)
O4A O -0.7390(6) -0.7356(8) 0.4417(2)
C13A C -0.6523(7) -0.4135(10) 0.3830(2)
H9A H -0.6693 -0.3234 0.3863
C14A C -0.6838(6) -0.5155(10) 0.4026(2)
H10A H -0.7251 -0.4974 0.4173
C15A C -0.6528(6) -0.6444(9) 0.39965(19)
C16A C -0.5988(5) -0.6717(9) 0.3764(2)
H11A H -0.5778 -0.7598 0.3742
C17A C -0.5744(6) -0.5649(10) 0.3555(2)
H12A H -0.5398 -0.5853 0.3381
C18A C -0.6855(7) -0.7543(10) 0.4219(2)
C19A C -0.5865(6) -0.7805(11) 0.10272(19)
C20A C -0.5966(7) -0.7008(12) 0.1322(2)
H13A H -0.6447 -0.6637 0.1390
C21A C -0.5218(8) -0.6843(11) 0.1504(2)
C22A C -0.4538(5) -0.7329(10) 0.1405(2)
H14A H -0.4088 -0.7213 0.1539
C23A C -0.4483(6) -0.8000(14) 0.1108(2)
H15A H -0.3991 -0.8287 0.1030
C24A C -0.5164(7) -0.8256(11) 0.0920(2)
H16A H -0.5131 -0.8744 0.0720
O5A O -0.6548(4) -0.7948(9) 0.08344(13)
O6A O -0.6804(5) -0.9893(9) 0.1083(2)
N3A N -0.8989(4) -0.9301(8) 0.02602(15)
C25A C -0.8466(6) -0.8294(9) 0.0227(2)
H17A H -0.8548 -0.7648 0.0058
C26A C -0.7831(6) -0.8163(9) 0.0425(2)
H18A H -0.7488 -0.7419 0.0401
C27A C -0.7694(5) -0.9142(9) 0.06622(19)
C28A C -0.8204(6) -1.0195(10) 0.0690(2)
H19A H -0.8114 -1.0879 0.0850
C29A C -0.8818(6) -1.0256(10) 0.0496(2)
H20A H -0.9162 -1.0998 0.0520
C30A C -0.6962(6) -0.9061(10) 0.08805(19)
O7A O -0.6261(7) -0.7330(12) 0.2024(2)
N4A N -0.5618(5) -0.3949(7) 0.29023(16)
O8A O -0.5269(4) -0.6097(7) 0.17975(14)
C31A C -0.5009(9) -0.4116(13) 0.2706(3)
H21A H -0.4531 -0.3717 0.2773
C32A C -0.5016(7) -0.4820(13) 0.2413(3)
H22A H -0.4579 -0.4849 0.2272
C33A C -0.5712(6) -0.5489(11) 0.2338(2)
C34A C -0.6345(7) -0.5333(11) 0.2542(2)
H23A H -0.6826 -0.5758 0.2491
C35A C -0.6270(7) -0.4566(10) 0.2815(2)
H24A H -0.6711 -0.4465 0.2953
C36A C -0.5799(7) -0.6396(11) 0.2036(2)
C37A C -0.2644(6) 0.2556(10) 0.2307(2)
C38A C -0.2298(5) 0.2072(11) 0.2018(2)
H25A H -0.2341 0.1153 0.1955
C39A C -0.1886(6) 0.3009(10) 0.18276(18)
C40A C -0.1755(5) 0.4298(11) 0.1921(2)
H26A H -0.1450 0.4884 0.1789
C41A C -0.2100(6) 0.4780(11) 0.2235(2)
H27A H -0.2010 0.5665 0.2317
C42A C -0.2564(7) 0.3846(10) 0.2401(3)
H28A H -0.2836 0.4141 0.2591
N5A N -0.0593(4) 0.1023(8) 0.04333(17)
O9A O -0.1501(4) 0.2583(7) 0.15332(13)
O10A O -0.2627(6) 0.1776(13) 0.1313(2)
C43A C -0.1208(6) 0.0347(10) 0.05120(19)
H29A H -0.1370 -0.0369 0.0372
C44A C -0.1660(5) 0.0627(12) 0.0801(2)
H30A H -0.2108 0.0107 0.0850
C45A C -0.1435(5) 0.1630(11) 0.09971(19)
C46A C -0.0755(5) 0.2424(14) 0.0911(3)
H31A H -0.0580 0.3161 0.1041
C47A C -0.0376(7) 0.2030(16) 0.0624(3)
H32A H 0.0072 0.2527 0.0561
C48A C -0.1912(6) 0.2012(13) 0.1301(2)
N6A N -0.4966(5) -0.1358(8) 0.30703(15)
O11A O -0.3071(5) 0.1628(8) 0.25057(17)
O12A O -0.4182(4) 0.2213(11) 0.2247(2)
C49A C -0.5376(5) -0.0680(10) 0.2838(2)
H33A H -0.5917 -0.0853 0.2814
C50A C -0.5022(6) 0.0282(10) 0.2629(2)
H34A H -0.5317 0.0748 0.2466
C51A C -0.4216(6) 0.0528(9) 0.2670(2)
C52A C -0.3854(5) -0.0162(9) 0.29082(19)
H35A H -0.3314 0.0006 0.2938
C53A C -0.4185(6) -0.1087(9) 0.3114(2)
H36A H -0.3888 -0.1527 0.3280
C54A C -0.3851(7) 0.1538(10) 0.2451(2)
O13A O -0.6667(4) -0.1672(8) 0.3342(2)
Cu1_2 Cu -1.0000 -0.93522(14) 0.0000
Cu1_3 Cu 1.0000 -0.93522(14) 0.0000
Cu2_2 Cu -0.44977(6) -1.28513(10) 0.66665(2)
Cu2A_2 Cu 0.44977(6) -1.28513(10) -0.66665(2)
N1_2 N -0.5027(4) -0.2137(7) 0.37667(15)
N1A_2 N 0.5027(4) -0.2137(7) -0.37667(15)
N3_2 N -0.1011(4) 0.0699(8) -0.02602(15)
N3A_2 N 0.1011(4) 0.0699(8) 0.02602(15)
loop_
_geom_bond_atom_site_label_1
_geom_bond_atom_site_label_2
_geom_bond_site_symmetry_1
_geom_bond_site_symmetry_2
Cu1 N5 1_555 1_555
Cu2 N2 1_555 1_555
C1 C2 1_555 1_555
C2 H1 1_555 1_555
C3 C2 1_555 1_555
C4 C3 1_555 1_555
H2 C4 1_555 1_555
C5 C4 1_555 1_555
H3 C5 1_555 1_555
C6 C1 1_555 1_555
H4 C6 1_555 1_555
O1 C1 1_555 1_555
O2 C12 1_555 1_555
N1 C7 1_555 1_555
C7 H5 1_555 1_555
C8 C7 1_555 1_555
H6 C8 1_555 1_555
C9 C8 1_555 1_555
C10 C9 1_555 1_555
H7 C10 1_555 1_555
C11 N1 1_555 1_555
H8 C11 1_555 1_555
C12 O1 1_555 1_555
N2 C13 1_555 1_555
O3 C3 1_555 1_555
O4 C18 1_555 1_555
C13 H9 1_555 1_555
C14 C13 1_555 1_555
H10 C14 1_555 1_555
C15 C14 1_555 1_555
C16 C15 1_555 1_555
H11 C16 1_555 1_555
C17 N2 1_555 1_555
H12 C17 1_555 1_555
C18 O3 1_555 1_555
C19 C20 1_555 1_555
C20 H13 1_555 1_555
C21 C20 1_555 1_555
C22 C21 1_555 1_555
H14 C22 1_555 1_555
C23 C22 1_555 1_555
H15 C23 1_555 1_555
C24 C19 1_555 1_555
H16 C24 1_555 1_555
O5 C19 1_555 1_555
O6 C30 1_555 1_555
N3 C25 1_555 1_555
C25 H17 1_555 1_555
C26 C25 1_555 1_555
H18 C26 1_555 1_555
C27 C26 1_555 1_555
C28 C27 1_555 1_555
H19 C28 1_555 1_555
C29 N3 1_555 1_555
H20 C29 1_555 1_555
C30 O5 1_555 1_555
O7 C36 1_555 1_555
N4 Cu2 1_555 1_555
O8 C21 1_555 1_555
C31 N4 1_555 1_555
H21 C31 1_555 1_555
C32 C31 1_555 1_555
H22 C32 1_555 1_555
C33 C32 1_555 1_555
C34 C33 1_555 1_555
H23 C34 1_555 1_555
C35 N4 1_555 1_555
H24 C35 1_555 1_555
C36 O8 1_555 1_555
C37 C38 1_555 1_555
C38 H25 1_555 1_555
C39 C38 1_555 1_555
C40 C39 1_555 1_555
H26 C40 1_555 1_555
C41 C40 1_555 1_555
H27 C41 1_555 1_555
C42 C37 1_555 1_555
H28 C42 1_555 1_555
N5 C43 1_555 1_555
O9 C39 1_555 1_555
O10 C48 1_555 1_555
C43 H29 1_555 1_555
C44 C43 1_555 1_555
H30 C44 1_555 1_555
C45 C44 1_555 1_555
C46 C45 1_555 1_555
H31 C46 1_555 1_555
C47 N5 1_555 1_555
H32 C47 1_555 1_555
C48 O9 1_555 1_555
N6 Cu2 1_555 1_555
O11 C37 1_555 1_555
O12 C54 1_555 1_555
C49 N6 1_555 1_555
H33 C49 1_555 1_555
C50 C49 1_555 1_555
H34 C50 1_555 1_555
C51 C50 1_555 1_555
C52 C51 1_555 1_555
H35 C52 1_555 1_555
C53 N6 1_555 1_555
H36 C53 1_555 1_555
C54 O11 1_555 1_555
O13 Cu2 1_555 1_555
O14 Cu1 1_555 1_555
Cu2A N2A 1_555 1_555
C1A C2A 1_555 1_555
C2A H1A 1_555 1_555
C3A C2A 1_555 1_555
C4A C3A 1_555 1_555
H2A C4A 1_555 1_555
C5A C4A 1_555 1_555
H3A C5A 1_555 1_555
C6A C1A 1_555 1_555
H4A C6A 1_555 1_555
O1A C1A 1_555 1_555
O2A C12A 1_555 1_555
N1A C7A 1_555 1_555
C7A H5A 1_555 1_555
C8A C7A 1_555 1_555
H6A C8A 1_555 1_555
C9A C8A 1_555 1_555
C10A C9A 1_555 1_555
H7A C10A 1_555 1_555
C11A N1A 1_555 1_555
H8A C11A 1_555 1_555
C12A O1A 1_555 1_555
N2A C13A 1_555 1_555
O3A C3A 1_555 1_555
O4A C18A 1_555 1_555
C13A H9A 1_555 1_555
C14A C13A 1_555 1_555
H10A C14A 1_555 1_555
C15A C14A 1_555 1_555
C16A C15A 1_555 1_555
H11A C16A 1_555 1_555
C17A N2A 1_555 1_555
H12A C17A 1_555 1_555
C18A O3A 1_555 1_555
C19A C20A 1_555 1_555
C20A H13A 1_555 1_555
C21A C20A 1_555 1_555
C22A C21A 1_555 1_555
H14A C22A 1_555 1_555
C23A C22A 1_555 1_555
H15A C23A 1_555 1_555
C24A C19A 1_555 1_555
H16A C24A 1_555 1_555
O5A C19A 1_555 1_555
O6A C30A 1_555 1_555
N3A C25A 1_555 1_555
C25A H17A 1_555 1_555
C26A C25A 1_555 1_555
H18A C26A 1_555 1_555
C27A C26A 1_555 1_555
C28A C27A 1_555 1_555
H19A C28A 1_555 1_555
C29A N3A 1_555 1_555
H20A C29A 1_555 1_555
C30A O5A 1_555 1_555
O7A C36A 1_555 1_555
N4A Cu2A 1_555 1_555
O8A C21A 1_555 1_555
C31A N4A 1_555 1_555
H21A C31A 1_555 1_555
C32A C31A 1_555 1_555
H22A C32A 1_555 1_555
C33A C32A 1_555 1_555
C34A C33A 1_555 1_555
H23A C34A 1_555 1_555
C35A N4A 1_555 1_555
H24A C35A 1_555 1_555
C36A O8A 1_555 1_555
C37A C38A 1_555 1_555
C38A H25A 1_555 1_555
C39A C38A 1_555 1_555
C40A C39A 1_555 1_555
H26A C40A 1_555 1_555
C41A C40A 1_555 1_555
H27A C41A 1_555 1_555
C42A C37A 1_555 1_555
H28A C42A 1_555 1_555
N5A Cu1 1_555 1_555
O9A C39A 1_555 1_555
O10A C48A 1_555 1_555
C43A N5A 1_555 1_555
H29A C43A 1_555 1_555
C44A C43A 1_555 1_555
H30A C44A 1_555 1_555
C45A C44A 1_555 1_555
C46A C45A 1_555 1_555
H31A C46A 1_555 1_555
C47A N5A 1_555 1_555
H32A C47A 1_555 1_555
C48A O9A 1_555 1_555
N6A Cu2A 1_555 1_555
O11A C37A 1_555 1_555
O12A C54A 1_555 1_555
C49A N6A 1_555 1_555
H33A C49A 1_555 1_555
C50A C49A 1_555 1_555
H34A C50A 1_555 1_555
C51A C50A 1_555 1_555
C52A C51A 1_555 1_555
H35A C52A 1_555 1_555
C53A N6A 1_555 1_555
H36A C53A 1_555 1_555
C54A O11A 1_555 1_555
O13A Cu2A 1_555 1_555
Cu1_2 N3A 1_555 1_555
Cu1_3 N3 1_555 1_555
Cu2_2 N1A 1_555 1_555
Cu2A_2 N1 1_555 1_555
N1_2 Cu2A 1_555 1_555
N1A_2 Cu2 1_555 1_555
N3_2 Cu1 1_555 1_555
N3A_2 Cu1 1_555 1_555
C5 C6 1_555 1_555
C9 C12 1_555 1_555
C10 C11 1_555 1_555
C15 C18 1_555 1_555
C16 C17 1_555 1_555
C23 C24 1_555 1_555
C27 C30 1_555 1_555
C28 C29 1_555 1_555
C33 C36 1_555 1_555
C34 C35 1_555 1_555
C41 C42 1_555 1_555
C45 C48 1_555 1_555
C46 C47 1_555 1_555
C51 C54 1_555 1_555
C52 C53 1_555 1_555
C5A C6A 1_555 1_555
C9A C12A 1_555 1_555
C10A C11A 1_555 1_555
C15A C18A 1_555 1_555
C16A C17A 1_555 1_555
C23A C24A 1_555 1_555
C27A C30A 1_555 1_555
C28A C29A 1_555 1_555
C33A C36A 1_555 1_555
C34A C35A 1_555 1_555
C41A C42A 1_555 1_555
C45A C48A 1_555 1_555
C46A C47A 1_555 1_555
C51A C54A 1_555 1_555
C52A C53A 1_555 1_555

#END
