
#######################################################################
#
#                 Cambridge Crystallographic Data Centre
#                                CCDC 
#
#######################################################################
#
# If this CIF has been generated from an entry in the Cambridge 
# Structural Database, then it will include bibliographic, chemical, 
# crystal, experimental, refinement or atomic coordinate data resulting 
# from the CCDC's data processing and validation procedures.
#
#######################################################################

data_MIXKUB
_symmetry_cell_setting           triclinic
_symmetry_space_group_name_H-M   'P -1'
_symmetry_Int_Tables_number      2
_space_group_name_Hall           '-P 1'
loop_
_symmetry_equiv_pos_site_id
_symmetry_equiv_pos_as_xyz
1 x,y,z
2 -x,-y,-z
_cell_length_a                   8.5707(11)
_cell_length_b                   9.8985(12)
_cell_length_c                   14.2812(17)
_cell_angle_alpha                104.986(5)
_cell_angle_beta                 102.291(5)
_cell_angle_gamma                91.286(5)
_cell_volume                     1139.68
loop_
_atom_site_label
_atom_site_type_symbol
_atom_site_fract_x
_atom_site_fract_y
_atom_site_fract_z
Zn1 Zn 0.66780(5) 0.58387(4) 0.53828(3)
Zn2 Zn 0.66305(6) 0.36064(5) 0.33879(3)
O1 O 0.5117(3) 0.4709(3) 0.4006(2)
O2 O 0.7819(4) 0.4013(3) 0.5564(2)
O3 O 0.7767(4) 0.2413(3) 0.4132(2)
N1 N 0.8291(4) 0.6954(4) 0.6736(3)
O4 O 0.5849(4) 0.7728(3) 0.5243(2)
O5 O 0.5058(5) 0.7191(3) 0.3593(3)
C1 C 0.8203(5) 0.2895(4) 0.5071(3)
C2 C 0.5083(6) 0.9570(4) 0.4501(3)
H1 H 0.5977 0.9988 0.4326
H2 H 0.4123 0.9611 0.4010
C3 C 0.9087(7) 0.8138(7) 0.6778(4)
H3 H 0.8914 0.8484 0.6221
C4 C 0.5347(6) 0.8042(4) 0.4438(3)
C5 C 0.9255(6) 0.2024(5) 0.5622(4)
H4 H 0.9860 0.1462 0.5184
H5 H 0.8591 0.1390 0.5820
C6 C 0.8562(7) 0.6481(6) 0.7552(4)
H6 H 0.8017 0.5643 0.7523
N2 N 1.1523(8) 0.9040(7) 0.9458(5)
C7 C 1.0423(7) 0.8396(8) 0.8472(4)
C8 C 0.9604(9) 0.7176(7) 0.8425(4)
H7 H 0.9750 0.6819 0.8977
N3 N 1.2119(9) 1.0031(7) 0.9404(5)
C9 C 1.0195(8) 0.8888(8) 0.7654(5)
H8 H 1.0761 0.9708 0.7669
C10 C 1.3255(7) 1.0712(7) 1.0396(4)
C11 C 1.3918(9) 1.1954(9) 1.0419(5)
H9 H 1.3665 1.2299 0.9863
C12 C 1.3629(9) 1.0238(7) 1.1216(5)
H10 H 1.3176 0.9376 1.1218
C13 C 1.4701(8) 1.1054(6) 1.2055(5)
H11 H 1.4968 1.0717 1.2614
C14 C 1.4986(9) 1.2729(7) 1.1272(4)
H12 H 1.5459 1.3584 1.1272
N4 N 1.5353(5) 1.2290(4) 1.2088(3)
C15 C 1.1410(5) 0.4019(5) 0.6300(3)
C16 C 1.0414(6) 0.2944(5) 0.6546(3)
H13 H 0.9810 0.3418 0.7019
H14 H 1.1118 0.2353 0.6858
O6 O 1.1545(4) 0.3845(4) 0.5440(2)
O7 O 1.2068(4) 0.5081(4) 0.7023(2)
O4A O 0.4151(4) 1.2272(3) 0.4757(2)
O5A O 0.4942(5) 1.2809(3) 0.6407(3)
C2A C 0.4917(6) 1.0430(4) 0.5499(3)
H1A H 0.4023 1.0012 0.5674
H2A H 0.5877 1.0389 0.5990
C4A C 0.4653(6) 1.1958(4) 0.5562(3)
Zn1A Zn 0.33220(5) 0.41613(4) 0.46172(3)
Zn2A Zn 0.33695(6) 0.63936(5) 0.66121(3)
O1A O 0.4883(3) 0.5291(3) 0.5994(2)
O2A O 0.2181(4) 0.5987(3) 0.4436(2)
O3A O 0.2233(4) 0.7587(3) 0.5868(2)
N1A N 0.1709(4) 0.3046(4) 0.3264(3)
C1A C 0.1797(5) 0.7105(4) 0.4929(3)
C3A C 0.0913(7) 0.1862(7) 0.3222(4)
H3A H 0.1086 0.1516 0.3779
C5A C 0.0745(6) 0.7976(5) 0.4378(4)
H4A H 0.0140 0.8538 0.4816
H5A H 0.1409 0.8610 0.4180
C6A C 0.1438(7) 0.3519(6) 0.2448(4)
H6A H 0.1983 0.4357 0.2477
N2A N -0.1523(8) 0.0960(7) 0.0542(5)
C7A C -0.0423(7) 0.1604(8) 0.1528(4)
C8A C 0.0396(9) 0.2824(7) 0.1575(4)
H7A H 0.0250 0.3181 0.1023
N3A N -0.2119(9) -0.0031(7) 0.0596(5)
C9A C -0.0195(8) 0.1112(8) 0.2346(5)
H8A H -0.0761 0.0292 0.2331
C10A C -0.3255(7) -0.0712(7) -0.0396(4)
C11A C -0.3918(9) -0.1954(9) -0.0419(5)
H9A H -0.3665 -0.2299 0.0137
C12A C -0.3629(9) -0.0238(7) -0.1216(5)
H10A H -0.3176 0.0624 -0.1218
C13A C -0.4701(8) -0.1054(6) -0.2055(5)
H11A H -0.4968 -0.0717 -0.2614
C14A C -0.4986(9) -0.2729(7) -0.1272(4)
H12A H -0.5459 -0.3584 -0.1272
N4A N -0.5353(5) -0.2290(4) -0.2088(3)
C15A C -0.1410(5) 0.5981(5) 0.3700(3)
C16A C -0.0414(6) 0.7056(5) 0.3454(3)
H13A H 0.0190 0.6582 0.2981
H14A H -0.1118 0.7647 0.3142
O6A O -0.1545(4) 0.6155(4) 0.4560(2)
O7A O -0.2068(4) 0.4919(4) 0.2977(2)
Zn1_2 Zn -0.33220(5) 0.58387(4) 0.53828(3)
Zn1A_2 Zn 0.33220(5) 1.41613(4) 0.46172(3)
Zn1A_3 Zn 1.33220(5) 0.41613(4) 0.46172(3)
Zn2_2 Zn -0.33695(6) 0.36064(5) 0.33879(3)
Zn2_3 Zn 1.66305(6) 1.36064(5) 1.33879(3)
Zn2A_2 Zn -0.66305(6) -0.36064(5) -0.33879(3)
Zn2A_3 Zn 1.33695(6) 0.63936(5) 0.66121(3)
O4A_2 O 0.4151(4) 0.2272(3) 0.4757(2)
N4_2 N 0.5353(5) 0.2290(4) 0.2088(3)
N4A_2 N 0.4647(5) 0.7710(4) 0.7912(3)
O6_2 O 0.1545(4) 0.3845(4) 0.5440(2)
O6A_2 O 0.8455(4) 0.6155(4) 0.4560(2)
O7_2 O 0.2068(4) 0.5081(4) 0.7023(2)
O7A_2 O 0.7932(4) 0.4919(4) 0.2977(2)
O8 O 1.2446(18) 0.4420(13) 0.8877(6)
H15 H 1.1917 0.5031 0.8655
H16 H 1.2990 0.4019 0.8467
O9 O 1.527(3) 0.293(2) 0.8322(16)
O10 O 0.985(3) 0.276(2) 0.8955(16)
loop_
_geom_bond_atom_site_label_1
_geom_bond_atom_site_label_2
_geom_bond_site_symmetry_1
_geom_bond_site_symmetry_2
Zn1 O1 1_555 1_555
Zn2 O1 1_555 1_555
O1 Zn1A 1_555 1_555
O2 Zn1 1_555 1_555
O3 Zn2 1_555 1_555
N1 Zn1 1_555 1_555
O4 Zn1 1_555 1_555
O5 C4 1_555 1_555
C1 O2 1_555 1_555
C2 H1 1_555 1_555
H2 C2 1_555 1_555
C3 N1 1_555 1_555
H3 C3 1_555 1_555
C4 O4 1_555 1_555
C5 C1 1_555 1_555
H4 C5 1_555 1_555
H5 C5 1_555 1_555
C6 N1 1_555 1_555
H6 C6 1_555 1_555
N2 C7 1_555 1_555
C7 C8 1_555 1_555
C8 C6 1_555 1_555
H7 C8 1_555 1_555
N3 N2 1_555 1_555
C9 C3 1_555 1_555
H8 C9 1_555 1_555
C10 N3 1_555 1_555
C11 C10 1_555 1_555
H9 C11 1_555 1_555
C12 C10 1_555 1_555
H10 C12 1_555 1_555
C13 C12 1_555 1_555
H11 C13 1_555 1_555
C14 C11 1_555 1_555
H12 C14 1_555 1_555
N4 C13 1_555 1_555
C15 C16 1_555 1_555
C16 C5 1_555 1_555
H13 C16 1_555 1_555
H14 C16 1_555 1_555
O6 C15 1_555 1_555
O7 C15 1_555 1_555
O8 H15 1_555 1_555
H16 O8 1_555 1_555
O4A C4A 1_555 1_555
O5A C4A 1_555 1_555
C2A C2 1_555 1_555
H1A C2A 1_555 1_555
H2A C2A 1_555 1_555
C4A C2A 1_555 1_555
Zn1A O1A 1_555 1_555
Zn2A O1A 1_555 1_555
O1A Zn1 1_555 1_555
O2A Zn1A 1_555 1_555
O3A Zn2A 1_555 1_555
N1A Zn1A 1_555 1_555
C1A O2A 1_555 1_555
C3A N1A 1_555 1_555
H3A C3A 1_555 1_555
C5A C1A 1_555 1_555
H4A C5A 1_555 1_555
H5A C5A 1_555 1_555
C6A N1A 1_555 1_555
H6A C6A 1_555 1_555
N2A C7A 1_555 1_555
C7A C8A 1_555 1_555
C8A C6A 1_555 1_555
H7A C8A 1_555 1_555
N3A N2A 1_555 1_555
C9A C3A 1_555 1_555
H8A C9A 1_555 1_555
C10A N3A 1_555 1_555
C11A C10A 1_555 1_555
H9A C11A 1_555 1_555
C12A C10A 1_555 1_555
H10A C12A 1_555 1_555
C13A C12A 1_555 1_555
H11A C13A 1_555 1_555
C14A C11A 1_555 1_555
H12A C14A 1_555 1_555
N4A C13A 1_555 1_555
C15A C16A 1_555 1_555
C16A C5A 1_555 1_555
H13A C16A 1_555 1_555
H14A C16A 1_555 1_555
O6A C15A 1_555 1_555
O7A C15A 1_555 1_555
Zn1_2 O6A 1_555 1_555
Zn1A_2 O4A 1_555 1_555
Zn1A_3 O6 1_555 1_555
Zn2_2 O7A 1_555 1_555
Zn2_3 N4 1_555 1_555
Zn2A_2 N4A 1_555 1_555
Zn2A_3 O7 1_555 1_555
O4A_2 Zn1A 1_555 1_555
N4_2 Zn2 1_555 1_555
N4A_2 Zn2A 1_555 1_555
O6_2 Zn1A 1_555 1_555
O6A_2 Zn1 1_555 1_555
O7_2 Zn2A 1_555 1_555
O7A_2 Zn2 1_555 1_555
O3 C1 1_555 1_555
C2 C4 1_555 1_555
C7 C9 1_555 1_555
C14 N4 1_555 1_555
O3A C1A 1_555 1_555
C7A C9A 1_555 1_555
C14A N4A 1_555 1_555

#END
