
#######################################################################
#
#                 Cambridge Crystallographic Data Centre
#                                CCDC 
#
#######################################################################
#
# If this CIF has been generated from an entry in the Cambridge 
# Structural Database, then it will include bibliographic, chemical, 
# crystal, experimental, refinement or atomic coordinate data resulting 
# from the CCDC's data processing and validation procedures.
#
#######################################################################

data_MIXPIU
_symmetry_cell_setting           monoclinic
_symmetry_space_group_name_H-M   'P 21'
_symmetry_Int_Tables_number      4
_space_group_name_Hall           'P 2yb'
loop_
_symmetry_equiv_pos_site_id
_symmetry_equiv_pos_as_xyz
1 x,y,z
2 -x,1/2+y,-z
_cell_length_a                   10.0089(3)
_cell_length_b                   22.0259(6)
_cell_length_c                   11.7311(3)
_cell_angle_alpha                90
_cell_angle_beta                 104.961(3)
_cell_angle_gamma                90
_cell_volume                     2498.51
loop_
_atom_site_label
_atom_site_type_symbol
_atom_site_fract_x
_atom_site_fract_y
_atom_site_fract_z
Zn1 Zn 0.67262(14) 0.70046(6) 0.05965(11)
Zn2 Zn 1.26347(14) 0.67444(6) 0.37911(11)
Zn3 Zn 0.08336(15) 0.67577(7) -0.25037(12)
Zn4 Zn 0.70648(15) 0.55194(6) 0.19946(11)
Zn5 Zn 0.60952(16) 0.82486(7) -0.15374(12)
C1 C -0.1166(13) 0.6794(5) -0.0929(9)
H1 H -0.0843 0.6435 -0.0536
N1 N -0.0688(11) 0.7037(5) -0.1805(8)
O1 O 0.6275(8) 0.6073(4) -0.0229(6)
C2 C 1.2287(10) 0.7987(5) 0.4256(8)
O2 O 0.3194(11) 0.3594(4) -0.0039(8)
N2 N 1.0652(10) 0.6553(4) 0.2988(8)
O3 O 0.1762(10) 0.5715(4) -0.1092(8)
C3 C 0.9761(14) 0.6915(5) 0.2268(11)
H2 H 0.9944 0.7316 0.2111
O4 O 0.0291(10) 0.7156(5) -0.4062(8)
N3 N 0.5581(8) 0.6719(4) 0.1831(7)
N4 N 0.4722(11) 0.3818(5) -0.3162(9)
O5 O 0.2702(8) 0.2849(4) -0.1363(8)
C4 C 0.4610(12) 0.6984(5) 0.2258(9)
H3 H 0.4388 0.7395 0.2165
O6 O 1.2519(10) 0.7631(4) 0.3505(8)
N5 N 0.8713(10) 0.6072(4) 0.2226(8)
O7 O 0.3576(11) 0.6464(5) -0.4563(7)
N6 N 0.0748(15) 0.3992(6) -0.5254(10)
O8 O 0.6235(11) 0.5144(4) 0.0452(6)
O9 O 0.5199(11) 0.3485(4) -0.2304(9)
C5 C 0.6033(12) 0.5540(5) -0.0346(9)
O10 O 0.0858(11) 0.5915(4) -0.2974(8)
C6 C 1.2116(14) 0.9903(5) 0.3553(11)
H4 H 1.2053 1.0317 0.3392
N7 N 0.2706(10) 0.7112(5) -0.1734(9)
N8 N 0.4583(9) 0.7668(5) -0.1450(8)
N9 N 0.8582(9) 0.6636(4) 0.1805(8)
C7 C 1.2495(11) 0.9081(5) 0.4904(9)
H5 H 1.2677 0.8944 0.5679
C8 C 0.2075(10) 0.3860(5) -0.1985(9)
C9 C 0.4760(12) 0.4474(5) -0.2906(9)
C10 C 0.1155(12) 0.4147(6) -0.3961(10)
C11 C 0.5335(10) 0.5298(5) -0.1598(9)
C12 C 0.1381(14) 0.5559(6) -0.2128(12)
O11 O 0.2840(10) 0.5646(5) -0.5587(7)
C13 C 0.5266(11) 0.4684(5) -0.1806(9)
H6 H 0.5571 0.4414 -0.1184
N10 N -0.2337(12) 0.7619(5) -0.1459(9)
C14 C 0.1460(12) 0.4909(5) -0.2489(10)
C15 C 0.1056(14) 0.4749(6) -0.3680(11)
H7 H 0.0732 0.5038 -0.4263
N11 N 0.4782(9) 0.7221(4) -0.0601(8)
C16 C 0.3620(12) 0.6913(5) -0.0797(9)
H8 H 0.3467 0.6593 -0.0328
C17 C 0.2678(13) 0.3388(6) -0.1046(11)
N12 N 0.3995(10) 0.6597(4) 0.2831(8)
C18 C 0.4186(11) 0.4860(6) -0.3855(9)
H9 H 0.3806 0.4704 -0.4605
C19 C 0.1969(13) 0.4462(6) -0.1664(11)
H10 H 0.2249 0.4567 -0.0870
C20 C 1.1939(12) 0.8856(5) 0.2863(9)
H11 H 1.1767 0.8582 0.2238
N13 N -0.2154(9) 0.7136(4) -0.0708(7)
C21 C 1.2268(12) 0.8657(5) 0.4000(11)
C22 C 0.1633(12) 0.3698(5) -0.3145(10)
H12 H 0.1655 0.3295 -0.3377
O12 O 0.0947(16) 0.3473(6) -0.5519(10)
N14 N 0.5550(10) 0.6125(4) 0.2125(8)
O13 O 1.2969(10) 0.9932(4) 0.6727(7)
C23 C 1.2463(12) 0.9681(5) 0.4705(10)
O14 O 0.4307(13) 0.3637(5) -0.4157(9)
O15 O 1.2376(15) 1.0674(5) 0.5438(9)
C24 C 1.1868(12) 0.9472(6) 0.2662(10)
C25 C 0.4787(12) 0.5708(5) -0.2526(8)
H13 H 0.4817 0.6124 -0.2388
C26 C 1.2634(14) 1.0154(5) 0.5683(10)
C27 C 0.9940(13) 0.6039(5) 0.2935(10)
H14 H 1.0286 0.5692 0.3362
O16 O 0.5870(19) 0.8443(9) -0.3233(10)
O17 O 1.2170(11) 0.7820(5) 0.5258(7)
C28 C 0.4197(12) 0.5478(6) -0.3654(10)
C29 C 0.4645(13) 0.6070(5) 0.2737(10)
H15 H 0.4464 0.5707 0.3074
O18 O 1.1332(10) 1.0227(5) 0.1234(9)
N15 N 1.1442(13) 0.9698(5) 0.1427(9)
O19 O 1.1245(15) 0.9317(6) 0.0656(8)
C30 C 0.3522(11) 0.5890(5) -0.4648(9)
O20 O 0.0241(15) 0.4372(7) -0.5934(9)
C31 C -0.1409(13) 0.7531(6) -0.2080(10)
H16 H -0.1289 0.7800 -0.2658
O21 O 0.4610(17) 0.9054(6) -0.1713(10)
C32 C 0.3303(15) 0.7595(6) -0.2103(11)
H17 H 0.2873 0.7843 -0.2732
H18 H 0.0460 0.6800 -0.3750
H19 H 0.0909 0.7367 -0.4279
H20 H 0.5795 0.8491 -0.3982
H21 H 0.4938 0.8306 -0.3029
H22 H 0.5298 0.8915 -0.1173
H23 H 0.4610 0.9282 -0.2227
Zn1_2 Zn -0.32738(14) 0.70046(6) 0.05965(11)
Zn1A Zn 0.32738(14) 0.20046(6) -0.05965(11)
Zn2_2 Zn 0.26347(14) 0.67444(6) -0.62089(11)
Zn2_3 Zn 0.26347(14) 0.67444(6) 0.37911(11)
Zn4A Zn 1.29352(15) 1.05194(6) 0.80054(11)
Zn5_2 Zn -0.39048(16) 0.82486(7) -0.15374(12)
Zn5A Zn 0.39048(16) 0.32486(7) 0.15374(12)
O2A O 0.6806(11) 0.8594(4) 0.0039(8)
O5A O 0.7298(8) 0.7849(4) 0.1363(8)
O7_2 O 1.3576(11) 0.6464(5) 0.5437(7)
O11_2 O 1.2840(10) 0.5646(5) 0.4413(7)
N10_2 N 0.7663(12) 0.7619(5) -0.1459(9)
N12_2 N 1.3995(10) 0.6597(4) 0.2831(8)
N13_2 N 0.7846(9) 0.7136(4) -0.0708(7)
O13A O 0.7031(10) 0.4932(4) 0.3273(7)
loop_
_geom_bond_atom_site_label_1
_geom_bond_atom_site_label_2
_geom_bond_site_symmetry_1
_geom_bond_site_symmetry_2
Zn1 O1 1_555 1_555
Zn2 N2 1_555 1_555
Zn3 N1 1_555 1_555
Zn4 N5 1_555 1_555
Zn5 N8 1_555 1_555
C1 H1 1_555 1_555
N1 C1 1_555 1_555
O1 C5 1_555 1_555
C2 O6 1_555 1_555
O2 C17 1_555 1_555
N2 C3 1_555 1_555
O3 C12 1_555 1_555
C3 H2 1_555 1_555
O4 Zn3 1_555 1_555
N3 Zn1 1_555 1_555
N4 O9 1_555 1_555
O5 C17 1_555 1_555
C4 N3 1_555 1_555
H3 C4 1_555 1_555
O6 Zn2 1_555 1_555
N5 N9 1_555 1_555
O7 C30 1_555 1_555
N6 C10 1_555 1_555
O8 Zn4 1_555 1_555
C5 O8 1_555 1_555
O10 Zn3 1_555 1_555
C6 H4 1_555 1_555
N7 Zn3 1_555 1_555
N8 N11 1_555 1_555
N9 Zn1 1_555 1_555
C7 H5 1_555 1_555
C8 C17 1_555 1_555
C9 N4 1_555 1_555
C10 C15 1_555 1_555
C11 C5 1_555 1_555
C12 O10 1_555 1_555
O11 C30 1_555 1_555
C13 C9 1_555 1_555
H6 C13 1_555 1_555
N10 N13 1_555 1_555
C14 C12 1_555 1_555
C15 C14 1_555 1_555
H7 C15 1_555 1_555
N11 Zn1 1_555 1_555
C16 N7 1_555 1_555
H8 C16 1_555 1_555
N12 C4 1_555 1_555
C18 C9 1_555 1_555
H9 C18 1_555 1_555
C19 C8 1_555 1_555
H10 C19 1_555 1_555
C20 H11 1_555 1_555
N13 C1 1_555 1_555
C21 C2 1_555 1_555
C22 C8 1_555 1_555
H12 C22 1_555 1_555
O12 N6 1_555 1_555
N14 Zn4 1_555 1_555
O13 C26 1_555 1_555
C23 C6 1_555 1_555
O14 N4 1_555 1_555
O15 C26 1_555 1_555
C24 C6 1_555 1_555
C25 C11 1_555 1_555
H13 C25 1_555 1_555
C26 C23 1_555 1_555
C27 N2 1_555 1_555
H14 C27 1_555 1_555
O16 Zn5 1_555 1_555
O17 C2 1_555 1_555
C28 C18 1_555 1_555
C29 N12 1_555 1_555
H15 C29 1_555 1_555
O18 N15 1_555 1_555
N15 C24 1_555 1_555
O19 N15 1_555 1_555
C30 C28 1_555 1_555
O20 N6 1_555 1_555
C31 N1 1_555 1_555
H16 C31 1_555 1_555
O21 Zn5 1_555 1_555
C32 N7 1_555 1_555
H17 C32 1_555 1_555
H18 O4 1_555 1_555
H19 O4 1_555 1_555
H20 O16 1_555 1_555
H21 O16 1_555 1_555
H22 O21 1_555 1_555
H23 O21 1_555 1_555
Zn1_2 N13 1_555 1_555
Zn1A O5 1_555 1_555
Zn2_2 O7 1_555 1_555
Zn2_3 N12 1_555 1_555
Zn4A O13 1_555 1_555
Zn5_2 N10 1_555 1_555
Zn5A O2 1_555 1_555
O2A Zn5 1_555 1_555
O5A Zn1 1_555 1_555
O7_2 Zn2 1_555 1_555
O11_2 Zn2 1_555 1_555
N10_2 Zn5 1_555 1_555
N12_2 Zn2 1_555 1_555
N13_2 Zn1 1_555 1_555
O13A Zn4 1_555 1_555
C3 N9 1_555 1_555
N3 N14 1_555 1_555
N5 C27 1_555 1_555
N8 C32 1_555 1_555
C7 C21 1_555 1_555
C7 C23 1_555 1_555
C10 C22 1_555 1_555
C11 C13 1_555 1_555
O11 Zn2_2 1_555 1_555
N10 C31 1_555 1_555
C14 C19 1_555 1_555
N11 C16 1_555 1_555
C20 C21 1_555 1_555
C20 C24 1_555 1_555
N14 C29 1_555 1_555
C25 C28 1_555 1_555
N10_2 N13_2 1_555 1_555

#END
