
#######################################################################
#
#                 Cambridge Crystallographic Data Centre
#                                CCDC 
#
#######################################################################
#
# If this CIF has been generated from an entry in the Cambridge 
# Structural Database, then it will include bibliographic, chemical, 
# crystal, experimental, refinement or atomic coordinate data resulting 
# from the CCDC's data processing and validation procedures.
#
#######################################################################

data_MIYHAE
_symmetry_cell_setting           orthorhombic
_symmetry_space_group_name_H-M   'C c c a'
_symmetry_Int_Tables_number      68
_space_group_name_Hall           '-C 2b 2bc'
loop_
_symmetry_equiv_pos_site_id
_symmetry_equiv_pos_as_xyz
1 x,y,z
2 1/2+x,1/2+y,z
3 1/2-x,-y,z
4 -x,y,1/2-z
5 1/2+x,-y,1/2-z
6 -x,1/2-y,z
7 1/2-x,1/2+y,1/2-z
8 x,1/2-y,1/2-z
9 -x,-y,-z
10 1/2-x,1/2-y,-z
11 1/2+x,y,-z
12 x,-y,1/2+z
13 1/2-x,y,1/2+z
14 x,1/2+y,-z
15 1/2+x,1/2-y,1/2+z
16 -x,1/2+y,1/2+z
_cell_length_a                   19.2056(5)
_cell_length_b                   47.9669(16)
_cell_length_c                   36.2063(9)
_cell_angle_alpha                90
_cell_angle_beta                 90
_cell_angle_gamma                90
_cell_volume                     33354.4
loop_
_atom_site_label
_atom_site_type_symbol
_atom_site_fract_x
_atom_site_fract_y
_atom_site_fract_z
Ag1 Ag -0.33857(3) -0.152530(11) -0.277980(14)
Ag2 Ag -0.27138(3) -0.091600(11) -0.241850(13)
Ag3 Ag -0.19269(3) -0.153270(11) -0.226740(14)
Ag8 Ag -0.51208(3) -0.020970(12) -0.452910(13)
Ag9 Ag -0.53396(3) -0.040850(13) -0.542730(13)
Ag10 Ag -0.39562(3) -0.064850(14) -0.497110(13)
N1 N -0.2980(3) -0.19058(11) -0.26285(15)
N2 N -0.2354(3) -0.19026(11) -0.24484(14)
N3 N -0.3631(3) -0.11444(11) -0.30093(14)
N4 N -0.3344(3) -0.09014(11) -0.28782(13)
N5 N -0.2005(3) -0.09450(12) -0.19936(14)
N6 N -0.1623(3) -0.11872(12) -0.19689(14)
C1 C -0.3825(4) -0.22446(16) -0.2872(2)
H1 H -0.3880 -0.2120 -0.3081
H2 H -0.4219 -0.2224 -0.2707
H3 H -0.3801 -0.2436 -0.2959
C2 C -0.3172(3) -0.21743(13) -0.26713(18)
C3 C -0.2679(3) -0.23487(12) -0.25103(17)
C4 C -0.2179(3) -0.21677(13) -0.23735(17)
C5 C -0.1518(4) -0.22298(15) -0.21773(19)
H4 H -0.1470 -0.2106 -0.1967
H5 H -0.1128 -0.2202 -0.2344
H6 H -0.1522 -0.2422 -0.2093
C6 C -0.4197(4) -0.13173(16) -0.3572(2)
H7 H -0.4503 -0.1425 -0.3413
H8 H -0.3846 -0.1439 -0.3677
H9 H -0.4466 -0.1233 -0.3769
C7 C -0.3851(3) -0.10946(13) -0.33508(16)
C8 C -0.3720(3) -0.08204(13) -0.34477(15)
C9 C -0.3402(3) -0.07048(13) -0.31399(16)
C10 C -0.3152(5) -0.04171(14) -0.3075(2)
H10 H -0.2850 -0.0414 -0.2861
H11 H -0.3548 -0.0295 -0.3033
H12 H -0.2896 -0.0353 -0.3290
C11 C -0.2175(5) -0.05062(15) -0.1651(2)
H13 H -0.2462 -0.0462 -0.1864
H14 H -0.1810 -0.0368 -0.1627
H15 H -0.2461 -0.0506 -0.1430
C12 C -0.1859(4) -0.07849(14) -0.17007(16)
C13 C -0.1386(3) -0.09238(14) -0.14773(16)
C14 C -0.1248(4) -0.11706(15) -0.16552(17)
C15 C -0.0771(4) -0.14003(18) -0.1544(2)
H16 H -0.0773 -0.1544 -0.1733
H17 H -0.0927 -0.1479 -0.1312
H18 H -0.0303 -0.1328 -0.1515
N13 N -0.0387(3) -0.06338(13) -0.07127(14)
N14 N -0.0944(3) -0.07372(14) -0.05287(14)
C32 C 0.0056(4) -0.0601(2) -0.1350(2)
H37 H 0.0443 -0.0511 -0.1226
H38 H -0.0151 -0.0472 -0.1524
H39 H 0.0223 -0.0765 -0.1481
C33 C -0.0473(4) -0.06861(15) -0.10735(16)
C34 C -0.1088(3) -0.08257(14) -0.11269(16)
C35 C -0.1367(4) -0.08578(17) -0.07757(17)
C36 C -0.2044(5) -0.0989(3) -0.0661(2)
H40 H -0.2010 -0.1052 -0.0407
H41 H -0.2142 -0.1148 -0.0819
H42 H -0.2416 -0.0854 -0.0683
N17 N -0.6015(3) -0.00917(13) -0.48058(13)
N18 N -0.6114(3) -0.02065(14) -0.51499(15)
C42 C -0.6691(4) 0.01297(17) -0.43087(18)
H49 H -0.6243 0.0203 -0.4231
H50 H -0.7030 0.0280 -0.4315
H51 H -0.6842 -0.0012 -0.4135
C43 C -0.6625(3) 0.00045(15) -0.46858(16)
C44 C -0.7132(3) -0.00375(15) -0.49539(17)
C45 C -0.6779(3) -0.01740(16) -0.52401(17)
C46 C -0.7039(4) -0.0285(2) -0.5606(2)
H52 H -0.6812 -0.0461 -0.5659
H53 H -0.7539 -0.0314 -0.5593
H54 H -0.6934 -0.0153 -0.5800
N21 N -0.3921(3) -0.05938(14) -0.44041(14)
N22 N -0.4356(3) -0.04106(13) -0.42330(14)
C52 C -0.3116(5) -0.09740(18) -0.4251(2)
H61 H -0.2751 -0.0981 -0.4067
H62 H -0.3346 -0.1154 -0.4265
H63 H -0.2915 -0.0929 -0.4490
C53 C -0.3629(4) -0.07573(16) -0.41487(18)
C54 C -0.3882(3) -0.06853(14) -0.38044(15)
C55 C -0.4339(3) -0.04661(15) -0.38687(16)
C56 C -0.4779(4) -0.03085(18) -0.36049(19)
H64 H -0.5206 -0.0252 -0.3727
H65 H -0.4890 -0.0426 -0.3395
H66 H -0.4529 -0.0145 -0.3520
Ag1G Ag -0.33857(3) -0.347470(11) -0.222020(14)
Ag2G Ag -0.27138(3) -0.408400(11) -0.258150(13)
Ag2L Ag -0.22862(3) -0.091600(11) -0.741850(13)
Ag3G Ag -0.19269(3) -0.346730(11) -0.273260(14)
Ag3L Ag -0.30731(3) -0.153270(11) -0.726740(14)
Ag8B Ag -0.98792(3) 0.020970(12) -0.452910(13)
Ag8G Ag -0.51208(3) -0.479030(12) -0.047090(13)
Ag9L Ag 0.03396(3) -0.040850(13) -0.042730(13)
Ag9B Ag -0.96604(3) 0.040850(13) -0.542730(13)
Ag10L Ag -0.10438(3) -0.064850(14) 0.002890(13)
Ag10G Ag -0.39562(3) -0.435150(14) -0.002890(13)
N1G N -0.2980(3) -0.30942(11) -0.23715(15)
N2G N -0.2354(3) -0.30974(11) -0.25516(14)
N3G N -0.3631(3) -0.38556(11) -0.19907(14)
N4G N -0.3344(3) -0.40986(11) -0.21218(13)
N5L N -0.2995(3) -0.09450(12) -0.69936(14)
N5G N -0.2005(3) -0.40550(12) -0.30064(14)
N6L N -0.3377(3) -0.11872(12) -0.69689(14)
N6G N -0.1623(3) -0.38128(12) -0.30311(14)
C1G C -0.3825(4) -0.27554(16) -0.2128(2)
H1G H -0.3880 -0.2880 -0.1919
H2G H -0.4219 -0.2776 -0.2293
H3G H -0.3801 -0.2564 -0.2041
C2G C -0.3172(3) -0.28257(13) -0.23287(18)
C3G C -0.2679(3) -0.26513(12) -0.24897(17)
C4G C -0.2179(3) -0.28323(13) -0.26265(17)
C5G C -0.1518(4) -0.27702(15) -0.28227(19)
H4G H -0.1470 -0.2894 -0.3033
H5G H -0.1128 -0.2798 -0.2656
H6G H -0.1522 -0.2578 -0.2907
C6G C -0.4197(4) -0.36827(16) -0.1428(2)
H7G H -0.4503 -0.3575 -0.1587
H8G H -0.3846 -0.3561 -0.1323
H9G H -0.4466 -0.3767 -0.1231
C7G C -0.3851(3) -0.39054(13) -0.16492(16)
C8G C -0.3720(3) -0.41796(13) -0.15523(15)
C9G C -0.3402(3) -0.42952(13) -0.18601(16)
C10G C -0.3152(5) -0.45829(14) -0.1925(2)
H10G H -0.2850 -0.4586 -0.2139
H11G H -0.3548 -0.4705 -0.1967
H12G H -0.2896 -0.4647 -0.1710
C11L C -0.2825(5) -0.05062(15) -0.6651(2)
H13L H -0.2538 -0.0462 -0.6864
H14L H -0.3190 -0.0368 -0.6627
H15L H -0.2539 -0.0506 -0.6430
C12L C -0.3141(4) -0.07849(14) -0.67007(16)
C13L C -0.3614(3) -0.09238(14) -0.64773(16)
C14L C -0.3752(4) -0.11706(15) -0.66552(17)
C15L C -0.4229(4) -0.14003(18) -0.6544(2)
H16L H -0.4227 -0.1544 -0.6733
H17L H -0.4073 -0.1479 -0.6312
H18L H -0.4697 -0.1328 -0.6515
N13L N -0.4613(3) -0.06338(13) -0.57127(14)
N14L N -0.4056(3) -0.07372(14) -0.55287(14)
N14I N -0.4056(3) -0.42628(14) 0.05287(14)
C32L C -0.5056(4) -0.0601(2) -0.6350(2)
H37L H -0.5443 -0.0511 -0.6226
H38L H -0.4849 -0.0472 -0.6524
H39L H -0.5223 -0.0765 -0.6481
C33L C -0.4527(4) -0.06861(15) -0.60735(16)
C34L C -0.3912(3) -0.08257(14) -0.61269(16)
C35L C -0.3633(4) -0.08578(17) -0.57757(17)
C36L C -0.2956(5) -0.0989(3) -0.5661(2)
H40L H -0.2990 -0.1052 -0.5407
H41L H -0.2858 -0.1148 -0.5819
H42L H -0.2584 -0.0854 -0.5683
N17B N -0.8985(3) 0.00917(13) -0.48058(13)
N17G N -0.6015(3) -0.49083(13) -0.01942(13)
N18B N -0.8886(3) 0.02065(14) -0.51499(15)
C42B C -0.8309(4) -0.01297(17) -0.43087(18)
H49B H -0.8757 -0.0203 -0.4231
H50B H -0.7970 -0.0280 -0.4315
H51B H -0.8158 0.0012 -0.4135
C43B C -0.8375(3) -0.00045(15) -0.46858(16)
C44B C -0.7868(3) 0.00375(15) -0.49539(17)
C45B C -0.8221(3) 0.01740(16) -0.52401(17)
C46B C -0.7961(4) 0.0285(2) -0.5606(2)
H52B H -0.8188 0.0461 -0.5659
H53B H -0.7461 0.0314 -0.5593
H54B H -0.8066 0.0153 -0.5800
N21G N -0.3921(3) -0.44062(14) -0.05959(14)
N21L N -0.1079(3) -0.05938(14) 0.05959(14)
N22G N -0.4356(3) -0.45894(13) -0.07670(14)
C52G C -0.3116(5) -0.40260(18) -0.0749(2)
H61G H -0.2751 -0.4019 -0.0933
H62G H -0.3346 -0.3846 -0.0735
H63G H -0.2915 -0.4071 -0.0510
C53G C -0.3629(4) -0.42427(16) -0.08513(18)
C54G C -0.3882(3) -0.43147(14) -0.11956(15)
C55G C -0.4339(3) -0.45339(15) -0.11313(16)
C56G C -0.4779(4) -0.46915(18) -0.13951(19)
H64G H -0.5206 -0.4748 -0.1273
H65G H -0.4890 -0.4574 -0.1605
H66G H -0.4529 -0.4855 -0.1480
Ag4 Ag -0.5000 -0.148230(15) -0.2500
Ag5 Ag -0.56057(3) -0.084340(11) -0.281220(15)
Ag6 Ag -0.5000 -0.169670(16) 0.2500
Ag7 Ag -0.42085(3) -0.109490(11) 0.228050(15)
Ag11 Ag -0.76336(3) -0.229520(15) -0.541170(15)
Ag12 Ag -0.78451(3) -0.208090(15) -0.451870(14)
Ag13 Ag -0.65230(4) -0.182170(17) -0.500100(14)
N7 N -0.5655(3) -0.14698(11) -0.29534(14)
N8 N -0.5827(3) -0.12082(11) -0.30845(15)
N9 N -0.5287(3) -0.04632(11) -0.26109(15)
N10 N -0.5328(3) 0.07252(12) -0.24288(16)
N11 N -0.5704(3) -0.16920(11) -0.70773(14)
N12 N -0.6104(3) -0.14579(11) -0.70214(14)
C16 C -0.5729(5) -0.19580(15) -0.3154(2)
H19 H -0.5322 -0.1986 -0.3000
H20 H -0.5657 -0.2048 -0.3391
H21 H -0.6134 -0.2038 -0.3034
C17 C -0.5841(4) -0.16562(14) -0.32111(16)
C18 C -0.6126(3) -0.15202(13) -0.35136(16)
C19 C -0.6112(4) -0.12388(15) -0.34178(18)
C20 C -0.6363(5) -0.09928(17) -0.3631(2)
H22 H -0.6465 -0.0841 -0.3463
H23 H -0.6781 -0.1043 -0.3766
H24 H -0.6005 -0.0935 -0.3804
C21 C -0.6069(4) -0.01283(16) -0.2920(2)
H25 H -0.6134 -0.0274 -0.3103
H26 H -0.5984 0.0048 -0.3044
H27 H -0.6484 -0.0113 -0.2769
C22 C -0.5460(4) -0.01987(15) -0.26803(18)
C23 C -0.5000 -0.00233(19) -0.2500
C24 C -0.5000 0.0282(2) -0.2500
C25 C -0.5528(4) 0.04588(13) -0.23840(18)
C26 C -0.6217(4) 0.03937(16) -0.2219(2)
H28 H -0.6295 0.0513 -0.2006
H29 H -0.6227 0.0200 -0.2142
H30 H -0.6580 0.0426 -0.2400
C27 C -0.5383(4) -0.21267(15) -0.6753(2)
H31 H -0.5193 -0.2175 -0.6993
H32 H -0.5008 -0.2108 -0.6576
H33 H -0.5700 -0.2272 -0.6673
C28 C -0.5765(3) -0.18582(13) -0.67820(16)
C29 C -0.6213(3) -0.17335(14) -0.65321(16)
C30 C -0.6406(4) -0.14865(15) -0.66919(17)
C31 C -0.6889(4) -0.12621(17) -0.6551(2)
H34 H -0.7099 -0.1166 -0.6758
H35 H -0.7251 -0.1346 -0.6401
H36 H -0.6627 -0.1130 -0.6403
N15 N -0.6888(3) -0.20916(14) -0.57186(15)
N16 N -0.6505(3) -0.18861(16) -0.55618(15)
C37 C -0.7224(5) -0.2253(2) -0.6345(2)
H43 H -0.7714 -0.2256 -0.6281
H44 H -0.7169 -0.2187 -0.6596
H45 H -0.7034 -0.2440 -0.6324
C38 C -0.6842(4) -0.20616(17) -0.60853(17)
C39 C -0.6414(3) -0.18421(14) -0.61676(16)
C40 C -0.6212(4) -0.17344(19) -0.58276(18)
C41 C -0.5752(5) -0.1491(2) -0.5742(2)
H46 H -0.5684 -0.1477 -0.5478
H47 H -0.5304 -0.1516 -0.5863
H48 H -0.5968 -0.1321 -0.5832
N19 N -0.7112(3) -0.18517(14) -0.42467(14)
N20 N -0.6582(3) -0.17387(16) -0.44435(15)
C47 C -0.7514(4) -0.1889(2) -0.36042(19)
H55 H -0.7946 -0.1943 -0.3723
H56 H -0.7320 -0.2048 -0.3474
H57 H -0.7603 -0.1739 -0.3430
C48 C -0.7011(4) -0.17918(15) -0.38890(17)
C49 C -0.6412(3) -0.16360(15) -0.38544(17)
C50 C -0.6152(4) -0.16080(19) -0.42086(18)
C51 C -0.5522(5) -0.1464(3) -0.4341(2)
H58 H -0.5510 -0.1276 -0.4240
H59 H -0.5112 -0.1565 -0.4260
H60 H -0.5529 -0.1455 -0.4608
N23 N -0.8520(3) -0.24084(15) -0.51294(15)
N24 N -0.8623(3) -0.22871(14) -0.47887(15)
C57 C -0.9197(4) -0.26363(19) -0.5617(2)
H67 H -0.9559 -0.2777 -0.5612
H68 H -0.9317 -0.2494 -0.5796
H69 H -0.8758 -0.2722 -0.5686
C58 C -0.9129(4) -0.25070(16) -0.52433(17)
C59 C -0.9636(4) -0.24595(18) -0.49741(18)
C60 C -0.9284(4) -0.23216(18) -0.4694(2)
C61 C -0.9556(4) -0.2204(2) -0.4340(2)
H70 H -0.9319 -0.2031 -0.4286
H71 H -1.0052 -0.2170 -0.4363
H72 H -0.9473 -0.2336 -0.4142
Ag5C Ag -0.43943(3) -0.084340(11) -0.218780(15)
Ag6_2 Ag -0.5000 -0.169670(16) -0.7500
Ag7C Ag -0.57915(3) -0.109490(11) -0.728050(15)
Ag7H Ag -0.57915(3) 0.109490(11) -0.228050(15)
Ag7K Ag -0.42085(3) 0.109490(11) -0.271950(15)
Ag11C Ag -0.23664(3) -0.229520(15) 0.041170(15)
Ag11E Ag -1.23664(3) -0.270480(15) -0.541170(15)
Ag12C Ag -0.21549(3) -0.208090(15) -0.048130(14)
Ag12E Ag -1.21549(3) -0.291910(15) -0.451870(14)
Ag13C Ag -0.34770(4) -0.182170(17) 0.000100(14)
N7C N -0.4345(3) -0.14698(11) -0.20466(14)
N8C N -0.4173(3) -0.12082(11) -0.19155(15)
N9C N -0.4713(3) -0.04632(11) -0.23891(15)
N10C N -0.4672(3) 0.07252(12) -0.25712(16)
N10H N -0.4672(3) -0.07252(12) 0.24288(16)
N11C N -0.4296(3) -0.16920(11) 0.20773(14)
N11_2 N -0.5704(3) -0.16920(11) 0.29227(14)
N12C N -0.3896(3) -0.14579(11) 0.20214(14)
N12H N -0.3896(3) 0.14579(11) -0.29786(14)
C16C C -0.4271(5) -0.19580(15) -0.1846(2)
H19C H -0.4678 -0.1986 -0.2000
H20C H -0.4343 -0.2048 -0.1609
H21C H -0.3866 -0.2038 -0.1966
C17C C -0.4159(4) -0.16562(14) -0.17889(16)
C18C C -0.3874(3) -0.15202(13) -0.14864(16)
C19C C -0.3888(4) -0.12388(15) -0.15822(18)
C20C C -0.3637(5) -0.09928(17) -0.1369(2)
H22C H -0.3535 -0.0841 -0.1537
H23C H -0.3219 -0.1043 -0.1234
H24C H -0.3995 -0.0935 -0.1196
C21C C -0.3931(4) -0.01283(16) -0.2080(2)
H25C H -0.3866 -0.0274 -0.1897
H26C H -0.4016 0.0048 -0.1956
H27C H -0.3516 -0.0113 -0.2231
C22C C -0.4540(4) -0.01987(15) -0.23197(18)
C25C C -0.4472(4) 0.04588(13) -0.26160(18)
C26C C -0.3783(4) 0.03937(16) -0.2781(2)
H28C H -0.3705 0.0513 -0.2994
H29C H -0.3773 0.0200 -0.2858
H30C H -0.3420 0.0426 -0.2600
C27C C -0.4617(4) -0.21267(15) 0.1753(2)
H31C H -0.4807 -0.2175 0.1993
H32C H -0.4992 -0.2108 0.1576
H33C H -0.4300 -0.2272 0.1673
C28C C -0.4235(3) -0.18582(13) 0.17820(16)
C29C C -0.3787(3) -0.17335(14) 0.15321(16)
C30C C -0.3594(4) -0.14865(15) 0.16919(17)
C31C C -0.3111(4) -0.12621(17) 0.1551(2)
H34C H -0.2901 -0.1166 0.1758
H35C H -0.2749 -0.1346 0.1401
H36C H -0.3373 -0.1130 0.1403
N15C N -0.3112(3) -0.20916(14) 0.07186(15)
N16C N -0.3495(3) -0.18861(16) 0.05618(15)
C37C C -0.2776(5) -0.2253(2) 0.1345(2)
H43C H -0.2286 -0.2256 0.1281
H44C H -0.2831 -0.2187 0.1596
H45C H -0.2966 -0.2440 0.1324
C38C C -0.3158(4) -0.20616(17) 0.10853(17)
C39C C -0.3586(3) -0.18421(14) 0.11676(16)
C40C C -0.3788(4) -0.17344(19) 0.08276(18)
C41C C -0.4248(5) -0.1491(2) 0.0742(2)
H46C H -0.4316 -0.1477 0.0478
H47C H -0.4696 -0.1516 0.0863
H48C H -0.4032 -0.1321 0.0832
N19C N -0.2888(3) -0.18517(14) -0.07533(14)
N20C N -0.3418(3) -0.17387(16) -0.05565(15)
C47C C -0.2486(4) -0.1889(2) -0.13958(19)
H55C H -0.2054 -0.1943 -0.1277
H56C H -0.2680 -0.2048 -0.1526
H57C H -0.2397 -0.1739 -0.1570
C48C C -0.2989(4) -0.17918(15) -0.11110(17)
C49C C -0.3588(3) -0.16360(15) -0.11456(17)
C50C C -0.3848(4) -0.16080(19) -0.07914(18)
C51C C -0.4478(5) -0.1464(3) -0.0659(2)
H58C H -0.4490 -0.1276 -0.0760
H59C H -0.4888 -0.1565 -0.0740
H60C H -0.4471 -0.1455 -0.0392
N23E N -1.1480(3) -0.25916(15) -0.51294(15)
N23C N -0.1480(3) -0.24084(15) 0.01294(15)
N24E N -1.1377(3) -0.27129(14) -0.47887(15)
N24C N -0.1377(3) -0.22871(14) -0.02113(15)
C57E C -1.0803(4) -0.23637(19) -0.5617(2)
H67E H -1.0441 -0.2223 -0.5612
H68E H -1.0683 -0.2506 -0.5796
H69E H -1.1242 -0.2278 -0.5686
C58E C -1.0871(4) -0.24930(16) -0.52433(17)
C59E C -1.0364(4) -0.25405(18) -0.49741(18)
C60E C -1.0716(4) -0.26784(18) -0.4694(2)
C61E C -1.0444(4) -0.2796(2) -0.4340(2)
H70E H -1.0681 -0.2969 -0.4286
H71E H -0.9948 -0.2830 -0.4363
H72E H -1.0527 -0.2664 -0.4142
loop_
_geom_bond_atom_site_label_1
_geom_bond_atom_site_label_2
_geom_bond_site_symmetry_1
_geom_bond_site_symmetry_2
Ag1 N1 1_555 1_555
Ag2 N4 1_555 1_555
Ag3 N2 1_555 1_555
Ag4 N7 1_555 1_555
Ag5 N8 1_555 1_555
Ag6 N11C 1_555 1_555
Ag7 N10H 1_555 1_555
Ag8 N17 1_555 1_555
Ag9 N18 1_555 1_555
Ag10 N21 1_555 1_555
Ag11 N15 1_555 1_555
Ag12 N19 1_555 1_555
Ag13 N16 1_555 1_555
N1 N2 1_555 1_555
N2 C4 1_555 1_555
N3 Ag1 1_555 1_555
N4 N3 1_555 1_555
N5 Ag2 1_555 1_555
N6 Ag3 1_555 1_555
N7 N8 1_555 1_555
N8 C19 1_555 1_555
N9 Ag5 1_555 1_555
N10 C25 1_555 1_555
N11 N12 1_555 1_555
N12 C30 1_555 1_555
C1 H1 1_555 1_555
H2 C1 1_555 1_555
H3 C1 1_555 1_555
C2 N1 1_555 1_555
C3 C2 1_555 1_555
C4 C3 1_555 1_555
C5 C4 1_555 1_555
H4 C5 1_555 1_555
H5 C5 1_555 1_555
H6 C5 1_555 1_555
C6 H7 1_555 1_555
H8 C6 1_555 1_555
H9 C6 1_555 1_555
C7 N3 1_555 1_555
C8 C7 1_555 1_555
C9 N4 1_555 1_555
C10 C9 1_555 1_555
H10 C10 1_555 1_555
H11 C10 1_555 1_555
H12 C10 1_555 1_555
C11 H13 1_555 1_555
H14 C11 1_555 1_555
H15 C11 1_555 1_555
C12 N5 1_555 1_555
C13 C12 1_555 1_555
C14 N6 1_555 1_555
C15 C14 1_555 1_555
H16 C15 1_555 1_555
H17 C15 1_555 1_555
H18 C15 1_555 1_555
C16 H19 1_555 1_555
H20 C16 1_555 1_555
H21 C16 1_555 1_555
C17 N7 1_555 1_555
C18 C17 1_555 1_555
C19 C18 1_555 1_555
C20 C19 1_555 1_555
H22 C20 1_555 1_555
H23 C20 1_555 1_555
H24 C20 1_555 1_555
C21 H25 1_555 1_555
H26 C21 1_555 1_555
H27 C21 1_555 1_555
C22 N9 1_555 1_555
C23 C22 1_555 1_555
C24 C23 1_555 1_555
C25 C24 1_555 1_555
C26 C25 1_555 1_555
H28 C26 1_555 1_555
H29 C26 1_555 1_555
H30 C26 1_555 1_555
C27 H31 1_555 1_555
H32 C27 1_555 1_555
H33 C27 1_555 1_555
C28 N11 1_555 1_555
C29 C28 1_555 1_555
C30 C29 1_555 1_555
C31 C30 1_555 1_555
H34 C31 1_555 1_555
H35 C31 1_555 1_555
H36 C31 1_555 1_555
N13 N14 1_555 1_555
N14 C35 1_555 1_555
C32 H37 1_555 1_555
H38 C32 1_555 1_555
H39 C32 1_555 1_555
C33 N13 1_555 1_555
C34 C13 1_555 1_555
C35 C34 1_555 1_555
C36 C35 1_555 1_555
H40 C36 1_555 1_555
H41 C36 1_555 1_555
H42 C36 1_555 1_555
N15 N16 1_555 1_555
N16 C40 1_555 1_555
C37 H43 1_555 1_555
H44 C37 1_555 1_555
H45 C37 1_555 1_555
C38 N15 1_555 1_555
C39 C29 1_555 1_555
C40 C39 1_555 1_555
C41 C40 1_555 1_555
H46 C41 1_555 1_555
H47 C41 1_555 1_555
H48 C41 1_555 1_555
N17 N18 1_555 1_555
N18 C45 1_555 1_555
C42 H49 1_555 1_555
H50 C42 1_555 1_555
H51 C42 1_555 1_555
C43 N17 1_555 1_555
C44 C43 1_555 1_555
C45 C44 1_555 1_555
C46 C45 1_555 1_555
H52 C46 1_555 1_555
H53 C46 1_555 1_555
H54 C46 1_555 1_555
N19 N20 1_555 1_555
N20 Ag13 1_555 1_555
C47 H55 1_555 1_555
H56 C47 1_555 1_555
H57 C47 1_555 1_555
C48 N19 1_555 1_555
C49 C18 1_555 1_555
C50 N20 1_555 1_555
C51 C50 1_555 1_555
H58 C51 1_555 1_555
H59 C51 1_555 1_555
H60 C51 1_555 1_555
N21 N22 1_555 1_555
N22 Ag8 1_555 1_555
C52 H61 1_555 1_555
H62 C52 1_555 1_555
H63 C52 1_555 1_555
C53 N21 1_555 1_555
C54 C8 1_555 1_555
C55 N22 1_555 1_555
C56 C55 1_555 1_555
H64 C56 1_555 1_555
H65 C56 1_555 1_555
H66 C56 1_555 1_555
N23 Ag11 1_555 1_555
N24 Ag12 1_555 1_555
C57 H67 1_555 1_555
H68 C57 1_555 1_555
H69 C57 1_555 1_555
C58 N23 1_555 1_555
C59 C58 1_555 1_555
C60 N24 1_555 1_555
C61 C60 1_555 1_555
H70 C61 1_555 1_555
H71 C61 1_555 1_555
H72 C61 1_555 1_555
Ag1G N1G 1_555 1_555
Ag2G N4G 1_555 1_555
Ag2L N5L 1_555 1_555
Ag3G N2G 1_555 1_555
Ag3L N6L 1_555 1_555
Ag5C N8C 1_555 1_555
Ag6_2 N11 1_555 1_555
Ag7C N12 1_555 1_555
Ag7H N10 1_555 1_555
Ag7K N10C 1_555 1_555
Ag8B N17B 1_555 1_555
Ag8G N17G 1_555 1_555
Ag9L N13 1_555 1_555
Ag9B N18B 1_555 1_555
Ag10L N14 1_555 1_555
Ag10G N14I 1_555 1_555
Ag11C N15C 1_555 1_555
Ag11E N23E 1_555 1_555
Ag12C N19C 1_555 1_555
Ag12E N24E 1_555 1_555
Ag13C N16C 1_555 1_555
N1G N2G 1_555 1_555
N2G C4G 1_555 1_555
N3G Ag1G 1_555 1_555
N4G N3G 1_555 1_555
N5L N6L 1_555 1_555
N5G Ag2G 1_555 1_555
N6L C14L 1_555 1_555
N6G Ag3G 1_555 1_555
N7C Ag4 1_555 1_555
N8C N7C 1_555 1_555
N9C N9 1_555 1_555
N10C N10 1_555 1_555
N11C N12C 1_555 1_555
N11_2 Ag6 1_555 1_555
N12C Ag7 1_555 1_555
N12H Ag7K 1_555 1_555
C1G H1G 1_555 1_555
H2G C1G 1_555 1_555
H3G C1G 1_555 1_555
C2G N1G 1_555 1_555
C3G C3 1_555 1_555
C4G C3G 1_555 1_555
C5G C4G 1_555 1_555
H4G C5G 1_555 1_555
H5G C5G 1_555 1_555
H6G C5G 1_555 1_555
C6G H7G 1_555 1_555
H8G C6G 1_555 1_555
H9G C6G 1_555 1_555
C7G N3G 1_555 1_555
C8G C7G 1_555 1_555
C9G N4G 1_555 1_555
C10G C9G 1_555 1_555
H10G C10G 1_555 1_555
H11G C10G 1_555 1_555
H12G C10G 1_555 1_555
C11L H13L 1_555 1_555
H14L C11L 1_555 1_555
H15L C11L 1_555 1_555
C12L N5L 1_555 1_555
C13L C12L 1_555 1_555
C14L C13L 1_555 1_555
C15L C14L 1_555 1_555
H16L C15L 1_555 1_555
H17L C15L 1_555 1_555
H18L C15L 1_555 1_555
C16C H19C 1_555 1_555
H20C C16C 1_555 1_555
H21C C16C 1_555 1_555
C17C N7C 1_555 1_555
C18C C17C 1_555 1_555
C19C N8C 1_555 1_555
C20C C19C 1_555 1_555
H22C C20C 1_555 1_555
H23C C20C 1_555 1_555
H24C C20C 1_555 1_555
C21C H25C 1_555 1_555
H26C C21C 1_555 1_555
H27C C21C 1_555 1_555
C22C C23 1_555 1_555
C25C C24 1_555 1_555
C26C C25C 1_555 1_555
H28C C26C 1_555 1_555
H29C C26C 1_555 1_555
H30C C26C 1_555 1_555
C27C H31C 1_555 1_555
H32C C27C 1_555 1_555
H33C C27C 1_555 1_555
C28C N11C 1_555 1_555
C29C C28C 1_555 1_555
C30C N12C 1_555 1_555
C31C C30C 1_555 1_555
H34C C31C 1_555 1_555
H35C C31C 1_555 1_555
H36C C31C 1_555 1_555
N13L Ag9 1_555 1_555
N14L Ag10 1_555 1_555
C32L H37L 1_555 1_555
H38L C32L 1_555 1_555
H39L C32L 1_555 1_555
C33L N13L 1_555 1_555
C34L C13L 1_555 1_555
C35L N14L 1_555 1_555
C36L C35L 1_555 1_555
H40L C36L 1_555 1_555
H41L C36L 1_555 1_555
H42L C36L 1_555 1_555
N15C N16C 1_555 1_555
N16C C40C 1_555 1_555
C37C H43C 1_555 1_555
H44C C37C 1_555 1_555
H45C C37C 1_555 1_555
C38C N15C 1_555 1_555
C39C C29C 1_555 1_555
C40C C39C 1_555 1_555
C41C C40C 1_555 1_555
H46C C41C 1_555 1_555
H47C C41C 1_555 1_555
H48C C41C 1_555 1_555
N17B N18B 1_555 1_555
N18B C45B 1_555 1_555
C42B H49B 1_555 1_555
H50B C42B 1_555 1_555
H51B C42B 1_555 1_555
C43B N17B 1_555 1_555
C44B C44 1_555 1_555
C45B C44B 1_555 1_555
C46B C45B 1_555 1_555
H52B C46B 1_555 1_555
H53B C46B 1_555 1_555
H54B C46B 1_555 1_555
N19C N20C 1_555 1_555
N20C Ag13C 1_555 1_555
C47C H55C 1_555 1_555
H56C C47C 1_555 1_555
H57C C47C 1_555 1_555
C48C N19C 1_555 1_555
C49C C18C 1_555 1_555
C50C N20C 1_555 1_555
C51C C50C 1_555 1_555
H58C C51C 1_555 1_555
H59C C51C 1_555 1_555
H60C C51C 1_555 1_555
N21G Ag10G 1_555 1_555
N21L Ag10L 1_555 1_555
N22G Ag8G 1_555 1_555
C52G H61G 1_555 1_555
H62G C52G 1_555 1_555
H63G C52G 1_555 1_555
C53G N21G 1_555 1_555
C54G C8G 1_555 1_555
C55G N22G 1_555 1_555
C56G C55G 1_555 1_555
H64G C56G 1_555 1_555
H65G C56G 1_555 1_555
H66G C56G 1_555 1_555
N23E N24E 1_555 1_555
N23C Ag11C 1_555 1_555
N24E C60E 1_555 1_555
N24C Ag12C 1_555 1_555
C57E H67E 1_555 1_555
H68E C57E 1_555 1_555
H69E C57E 1_555 1_555
C58E N23E 1_555 1_555
C59E C59 1_555 1_555
C60E C59E 1_555 1_555
C61E C60E 1_555 1_555
H70E C61E 1_555 1_555
H71E C61E 1_555 1_555
H72E C61E 1_555 1_555
N5 N6 1_555 1_555
C1 C2 1_555 1_555
C6 C7 1_555 1_555
C8 C9 1_555 1_555
C11 C12 1_555 1_555
C13 C14 1_555 1_555
C16 C17 1_555 1_555
C21 C22 1_555 1_555
C27 C28 1_555 1_555
C32 C33 1_555 1_555
C33 C34 1_555 1_555
C37 C38 1_555 1_555
C38 C39 1_555 1_555
C42 C43 1_555 1_555
C47 C48 1_555 1_555
C48 C49 1_555 1_555
C49 C50 1_555 1_555
C52 C53 1_555 1_555
C53 C54 1_555 1_555
C54 C55 1_555 1_555
N23 N24 1_555 1_555
C57 C58 1_555 1_555
C59 C60 1_555 1_555
Ag5C N9C 1_555 1_555
N5G N6G 1_555 1_555
N9C C22C 1_555 1_555
N10C C25C 1_555 1_555
C1G C2G 1_555 1_555
C2G C3G 1_555 1_555
C6G C7G 1_555 1_555
C8G C9G 1_555 1_555
C11L C12L 1_555 1_555
C16C C17C 1_555 1_555
C18C C19C 1_555 1_555
C21C C22C 1_555 1_555
C27C C28C 1_555 1_555
C29C C30C 1_555 1_555
N13L N14L 1_555 1_555
C32L C33L 1_555 1_555
C33L C34L 1_555 1_555
C34L C35L 1_555 1_555
C37C C38C 1_555 1_555
C38C C39C 1_555 1_555
C42B C43B 1_555 1_555
C43B C44B 1_555 1_555
C47C C48C 1_555 1_555
C48C C49C 1_555 1_555
C49C C50C 1_555 1_555
N21G N22G 1_555 1_555
C52G C53G 1_555 1_555
C53G C54G 1_555 1_555
C54G C55G 1_555 1_555
N23C N24C 1_555 1_555
C57E C58E 1_555 1_555
C58E C59E 1_555 1_555

#END
