
#######################################################################
#
#                 Cambridge Crystallographic Data Centre
#                                CCDC 
#
#######################################################################
#
# If this CIF has been generated from an entry in the Cambridge 
# Structural Database, then it will include bibliographic, chemical, 
# crystal, experimental, refinement or atomic coordinate data resulting 
# from the CCDC's data processing and validation procedures.
#
#######################################################################

data_MOGVAG
_symmetry_cell_setting           monoclinic
_symmetry_space_group_name_H-M   'C 2/m'
_symmetry_Int_Tables_number      12
_space_group_name_Hall           '-C 2y'
loop_
_symmetry_equiv_pos_site_id
_symmetry_equiv_pos_as_xyz
1 x,y,z
2 1/2+x,1/2+y,z
3 -x,y,-z
4 1/2-x,1/2+y,-z
5 -x,-y,-z
6 1/2-x,1/2-y,-z
7 x,-y,z
8 1/2+x,1/2-y,z
_cell_length_a                   18.5934(12)
_cell_length_b                   17.9100(11)
_cell_length_c                   7.4267(5)
_cell_angle_alpha                90
_cell_angle_beta                 96.3020(10)
_cell_angle_gamma                90
_cell_volume                     2458.2
loop_
_atom_site_label
_atom_site_type_symbol
_atom_site_fract_x
_atom_site_fract_y
_atom_site_fract_z
Zn1 Zn 0.5000 0.34553(2) 0.5000
Zn2 Zn 0.5000 0.32075(2) 0.0000
Zn3 Zn 0.301427(15) 0.088430(16) 0.27767(4)
S1 S 0.31489(5) 0.0000 0.64812(12)
O1 O 0.32713(12) 0.06740(12) 0.5382(3)
O2 O 0.36848(18) 0.0000 0.8080(4)
O3 O 0.24176(18) 0.0000 0.6980(5)
O4 O 0.45502(10) 0.43759(10) 0.3439(2)
N1 N 0.44105(12) 0.26586(13) 0.3370(3)
N2 N 0.44936(12) 0.25097(13) 0.1571(3)
N3 N 0.36864(13) 0.17152(13) 0.2440(3)
N4 N 0.39580(17) 0.16585(17) -0.0640(4)
H1 H 0.3864 0.1176 -0.0582
H2 H 0.4359 0.1725 -0.1157
N5 N 0.41043(12) 0.35522(13) 0.6623(3)
N6 N 0.41757(11) 0.36600(13) 0.8495(3)
N7 N 0.30418(11) 0.38975(14) 0.7437(3)
N8 N 0.33658(14) 0.39874(16) 1.0634(3)
H3 H 0.3038 0.4344 1.0616
H4 H 0.3761 0.4127 1.1315
C1 C 0.39381(15) 0.21746(16) 0.3819(4)
H5 H 0.3788 0.2147 0.4971
C2 C 0.40532(15) 0.19442(16) 0.1076(4)
C3 C 0.34297(14) 0.37063(16) 0.6077(4)
H6 H 0.3236 0.3686 0.4869
C4 C 0.35275(14) 0.38634(15) 0.8920(3)
C5 C 0.47403(19) 0.5000 0.4098(5)
O5 O 0.31291(18) 0.0000 0.1399(4)
H7 H 0.3547 0.0000 0.1040
Zn1F Zn 0.5000 0.65447(2) 0.5000
Zn1_2 Zn 0.5000 0.34553(2) -0.5000
Zn1G Zn 0.0000 0.15447(2) 0.5000
Zn2_2 Zn 0.5000 0.32075(2) 1.0000
Zn2G Zn 0.0000 0.17925(2) 0.0000
Zn2F Zn 0.5000 0.67925(2) 0.0000
Zn3B Zn 0.698573(15) 0.088430(16) 0.72233(4)
Zn3E Zn 0.198573(15) 0.411570(16) 0.72233(4)
Zn3G Zn 0.801427(15) 0.411570(16) 0.27767(4)
Zn3F Zn 0.301427(15) -0.088430(16) 0.27767(4)
Zn3B_2 Zn 0.698573(15) 0.088430(16) -0.27767(4)
Zn3E_2 Zn 0.198573(15) 0.411570(16) -0.27767(4)
Zn3F_2 Zn 0.301427(15) 0.911570(16) 0.27767(4)
Zn3D Zn 0.698573(15) -0.088430(16) 0.72233(4)
S1D S 0.68511(5) 0.0000 0.35188(12)
O1F O 0.32713(12) -0.06740(12) 0.5382(3)
O1B O 0.67287(12) 0.06740(12) 0.4618(3)
O1D O 0.67287(12) -0.06740(12) 0.4618(3)
O1E O 0.17287(12) 0.43260(12) 0.4618(3)
O1G O 0.82713(12) 0.43260(12) 0.5382(3)
O2D O 0.63152(18) 0.0000 0.1920(4)
O3D O 0.75824(18) 0.0000 0.3020(5)
O4F O 0.45502(10) 0.56241(10) 0.3439(2)
O4D O 0.54498(10) 0.56241(10) 0.6561(2)
O4B O 0.54498(10) 0.43759(10) 0.6561(2)
N1B N 0.55895(12) 0.26586(13) 0.6630(3)
N1B_2 N 0.55895(12) 0.26586(13) -0.3370(3)
N1F N 0.44105(12) 0.73414(13) 0.3370(3)
N1D N 0.55895(12) 0.73414(13) 0.6630(3)
N2B N 0.55064(12) 0.25097(13) 0.8429(3)
N2B_2 N 0.55064(12) 0.25097(13) -0.1571(3)
N2F N 0.44936(12) 0.74903(13) 0.1571(3)
N2_2 N 0.44936(12) 0.25097(13) 1.1571(3)
N3B N 0.63136(13) 0.17152(13) 0.7560(3)
N3B_2 N 0.63136(13) 0.17152(13) -0.2440(3)
N3F N 0.36864(13) 0.82848(13) 0.2440(3)
N3E N 0.13136(13) 0.32848(13) 0.7560(3)
N3G N 0.86864(13) 0.32848(13) 0.2440(3)
N4B N 0.60420(17) 0.16585(17) 1.0640(4)
N4B_2 N 0.60420(17) 0.16585(17) 0.0640(4)
N4F N 0.39580(17) 0.83415(17) -0.0640(4)
H1B H 0.6136 0.1176 1.0582
H1B_2 H 0.6136 0.1176 0.0582
H1F H 0.3864 0.8824 -0.0582
H2B H 0.5641 0.1725 1.1157
H2B_2 H 0.5641 0.1725 0.1157
H2F H 0.4359 0.8275 -0.1157
N5B N 0.58957(12) 0.35522(13) 0.3377(3)
N5_2 N 0.41043(12) 0.35522(13) -0.3377(3)
N5E N 0.08957(12) 0.14478(13) 0.3377(3)
N5F N 0.41043(12) 0.64478(13) 0.6623(3)
N5D N 0.58957(12) 0.64478(13) 0.3377(3)
N6B N 0.58243(11) 0.36600(13) 0.1505(3)
N6_2 N 0.41757(11) 0.36600(13) -0.1505(3)
N6E N 0.08243(11) 0.13400(13) 0.1505(3)
N6B_2 N 0.58243(11) 0.36600(13) 1.1505(3)
N7B N 0.69582(11) 0.38975(14) 0.2563(3)
N7_2 N 0.30418(11) 0.38975(14) -0.2563(3)
N7E N 0.19582(11) 0.11025(14) 0.2563(3)
N7G N 0.80418(11) 0.11025(14) 0.7437(3)
N8B N 0.66342(14) 0.39874(16) -0.0634(3)
N8_2 N 0.33658(14) 0.39874(16) 0.0634(3)
N8E N 0.16342(14) 0.10126(16) -0.0634(3)
H3B H 0.6962 0.4344 -0.0616
H3_2 H 0.3038 0.4344 0.0616
H3E H 0.1962 0.0656 -0.0616
H4B H 0.6239 0.4127 -0.1315
H4_2 H 0.3761 0.4127 0.1315
H4E H 0.1239 0.0873 -0.1315
C1B C 0.60619(15) 0.21746(16) 0.6181(4)
C1B_2 C 0.60619(15) 0.21746(16) -0.3819(4)
C1F C 0.39381(15) 0.78254(16) 0.3819(4)
H5B H 0.6212 0.2147 0.5029
H5B_2 H 0.6212 0.2147 -0.4971
H5F H 0.3788 0.7853 0.4971
C2B C 0.59468(15) 0.19442(16) 0.8924(4)
C2B_2 C 0.59468(15) 0.19442(16) -0.1076(4)
C2F C 0.40532(15) 0.80558(16) 0.1076(4)
C3B C 0.65703(14) 0.37063(16) 0.3923(4)
C3_2 C 0.34297(14) 0.37063(16) -0.3923(4)
C3E C 0.15703(14) 0.12937(16) 0.3923(4)
H6B H 0.6764 0.3686 0.5131
H6_2 H 0.3236 0.3686 -0.5131
H6E H 0.1764 0.1314 0.5131
C4B C 0.64725(14) 0.38634(15) 0.1080(3)
C4_2 C 0.35275(14) 0.38634(15) -0.1080(3)
C4E C 0.14725(14) 0.11366(15) 0.1080(3)
C5D C 0.52597(19) 0.5000 0.5902(5)
O5D O 0.68709(18) 0.0000 0.8601(4)
O5E O 0.18709(18) 0.5000 0.8601(4)
O5A O 0.81291(18) 0.5000 0.1399(4)
H7D H 0.6453 0.0000 0.8960
H7E H 0.1453 0.5000 0.8960
H7A H 0.8547 0.5000 0.1040
O6 O 0.5009(5) 0.0639(8) 0.708(2)
H8 H 0.5242 0.0853 0.6297
H9 H 0.4564 0.0646 0.6657
loop_
_geom_bond_atom_site_label_1
_geom_bond_atom_site_label_2
_geom_bond_site_symmetry_1
_geom_bond_site_symmetry_2
Zn1 O4 1_555 1_555
Zn2 N2 1_555 1_555
Zn3 O1 1_555 1_555
S1 O1 1_555 1_555
O2 S1 1_555 1_555
O3 S1 1_555 1_555
O4 C5 1_555 1_555
N1 Zn1 1_555 1_555
N2 N1 1_555 1_555
N3 Zn3 1_555 1_555
N4 H1 1_555 1_555
H2 N4 1_555 1_555
N5 Zn1 1_555 1_555
N6 N5 1_555 1_555
N7 C3 1_555 1_555
N8 H3 1_555 1_555
H4 N8 1_555 1_555
C1 N1 1_555 1_555
H5 C1 1_555 1_555
C2 N2 1_555 1_555
C3 N5 1_555 1_555
H6 C3 1_555 1_555
C4 N6 1_555 1_555
C5 O4F 1_555 1_555
O5 Zn3 1_555 1_555
H7 O5 1_555 1_555
O6 H8 1_555 1_555
H9 O6 1_555 1_555
Zn1F O4F 1_555 1_555
Zn1_2 N1B_2 1_555 1_555
Zn1G N5E 1_555 1_555
Zn2_2 N6 1_555 1_555
Zn2G N6E 1_555 1_555
Zn2F N2F 1_555 1_555
Zn3B O1B 1_555 1_555
Zn3E N7 1_555 1_555
Zn3G O1G 1_555 1_555
Zn3F O5 1_555 1_555
Zn3B_2 N3B_2 1_555 1_555
Zn3E_2 N7_2 1_555 1_555
Zn3F_2 N3F 1_555 1_555
Zn3D O1D 1_555 1_555
S1D O1B 1_555 1_555
O1F S1 1_555 1_555
O1D S1D 1_555 1_555
O1E Zn3E 1_555 1_555
O2D S1D 1_555 1_555
O3D S1D 1_555 1_555
O4D Zn1F 1_555 1_555
O4B Zn1 1_555 1_555
N1B Zn1 1_555 1_555
N1B_2 N2B_2 1_555 1_555
N1F Zn1F 1_555 1_555
N1D Zn1F 1_555 1_555
N2B Zn2_2 1_555 1_555
N2B_2 Zn2 1_555 1_555
N2F N1F 1_555 1_555
N2_2 Zn2_2 1_555 1_555
N3B Zn3B 1_555 1_555
N3B_2 C1B_2 1_555 1_555
N3F C1F 1_555 1_555
N3E Zn3E 1_555 1_555
N3G Zn3G 1_555 1_555
N4B H1B 1_555 1_555
N4B_2 H1B_2 1_555 1_555
N4F H1F 1_555 1_555
H2B N4B 1_555 1_555
H2B_2 N4B_2 1_555 1_555
H2F N4F 1_555 1_555
N5B Zn1 1_555 1_555
N5_2 Zn1_2 1_555 1_555
N5E N6E 1_555 1_555
N5F Zn1F 1_555 1_555
N5D Zn1F 1_555 1_555
N6B Zn2 1_555 1_555
N6_2 Zn2 1_555 1_555
N6E C4E 1_555 1_555
N6B_2 Zn2_2 1_555 1_555
N7B Zn3G 1_555 1_555
N7_2 C3_2 1_555 1_555
N7E Zn3 1_555 1_555
N7G Zn3B 1_555 1_555
N8B H3B 1_555 1_555
N8_2 H3_2 1_555 1_555
N8E H3E 1_555 1_555
H4B N8B 1_555 1_555
H4_2 N8_2 1_555 1_555
H4E N8E 1_555 1_555
C1B N1B 1_555 1_555
C1B_2 N1B_2 1_555 1_555
C1F N1F 1_555 1_555
H5B C1B 1_555 1_555
H5B_2 C1B_2 1_555 1_555
H5F C1F 1_555 1_555
C2B N2B 1_555 1_555
C2B_2 N2B_2 1_555 1_555
C2F N2F 1_555 1_555
C3B N5B 1_555 1_555
C3_2 N5_2 1_555 1_555
C3E N5E 1_555 1_555
H6B C3B 1_555 1_555
H6_2 C3_2 1_555 1_555
H6E C3E 1_555 1_555
C4B N6B 1_555 1_555
C4_2 N6_2 1_555 1_555
C4E N7E 1_555 1_555
C5D C5 1_555 1_555
O5D Zn3B 1_555 1_555
O5E Zn3E 1_555 1_555
O5A Zn3G 1_555 1_555
H7D O5D 1_555 1_555
H7E O5E 1_555 1_555
H7A O5A 1_555 1_555
N3 C1 1_555 1_555
N3 C2 1_555 1_555
N4 C2 1_555 1_555
N7 C4 1_555 1_555
N8 C4 1_555 1_555
Zn3F O1F 1_555 1_555
Zn3D O5D 1_555 1_555
O4D C5D 1_555 1_555
O4B C5D 1_555 1_555
N1B N2B 1_555 1_555
N3B C1B 1_555 1_555
N3B C2B 1_555 1_555
N3B_2 C2B_2 1_555 1_555
N3F C2F 1_555 1_555
N4B C2B 1_555 1_555
N4B_2 C2B_2 1_555 1_555
N4F C2F 1_555 1_555
N5B N6B 1_555 1_555
N5_2 N6_2 1_555 1_555
N7B C3B 1_555 1_555
N7B C4B 1_555 1_555
N7_2 C4_2 1_555 1_555
N7E C3E 1_555 1_555
N8B C4B 1_555 1_555
N8_2 C4_2 1_555 1_555
N8E C4E 1_555 1_555

#END
