
#######################################################################
#
#                 Cambridge Crystallographic Data Centre
#                                CCDC 
#
#######################################################################
#
# If this CIF has been generated from an entry in the Cambridge 
# Structural Database, then it will include bibliographic, chemical, 
# crystal, experimental, refinement or atomic coordinate data resulting 
# from the CCDC's data processing and validation procedures.
#
#######################################################################

data_MOVKOZ
_symmetry_cell_setting           monoclinic
_symmetry_space_group_name_H-M   'C 2/c'
_symmetry_Int_Tables_number      15
_space_group_name_Hall           '-C 2yn'
loop_
_symmetry_equiv_pos_site_id
_symmetry_equiv_pos_as_xyz
1 x,y,z
2 -x,y,1/2-z
3 1/2+x,1/2+y,z
4 1/2-x,1/2+y,1/2-z
5 -x,-y,-z
6 x,-y,1/2+z
7 1/2-x,1/2-y,-z
8 1/2+x,1/2-y,1/2+z
_cell_length_a                   17.2316(6)
_cell_length_b                   16.7585(7)
_cell_length_c                   21.2567(7)
_cell_angle_alpha                90
_cell_angle_beta                 106.996(4)
_cell_angle_gamma                90
_cell_volume                     5870.33
loop_
_atom_site_label
_atom_site_type_symbol
_atom_site_fract_x
_atom_site_fract_y
_atom_site_fract_z
Zn1 Zn 0.5000 1.05995(9) 0.7500
Tb1 Tb 0.47942(2) 0.56529(3) 0.571093(17)
C1 C 0.3162(5) 1.0924(6) 0.6780(4)
H1 H 0.3228 1.1377 0.7043
C2 C 0.2393(5) 1.0773(6) 0.6320(4)
H2 H 0.1953 1.1106 0.6295
C3 C 0.2317(5) 1.0134(6) 0.5918(4)
C4 C 0.3000(5) 0.9652(6) 0.5966(4)
H3 H 0.2967 0.9230 0.5675
C5 C 0.3716(5) 0.9805(6) 0.6441(4)
C6 C 0.1558(5) 0.9926(7) 0.5382(4)
C7 C 0.4449(5) 0.9315(6) 0.6524(4)
C8 C 0.4386(5) 0.8528(6) 0.6260(4)
H4 H 0.3883 0.8304 0.6053
C9 C 0.5089(5) 0.8110(6) 0.6321(4)
C10 C 0.5840(5) 0.8480(6) 0.6631(4)
H5 H 0.6327 0.8222 0.6660
C11 C 0.5833(5) 0.9233(6) 0.6890(4)
H6 H 0.6327 0.9471 0.7104
C12 C 0.5034(5) 0.7273(6) 0.6086(4)
C13 C 0.5329(5) 1.1543(6) 0.6356(4)
H7 H 0.5418 1.1045 0.6195
C14 C 0.5317(6) 1.2198(7) 0.5967(4)
H8 H 0.5416 1.2151 0.5562
C15 C 0.5156(5) 1.2922(6) 0.6195(4)
C16 C 0.5035(5) 1.2991(6) 0.6795(4)
H9 H 0.4936 1.3487 0.6953
C17 C 0.5061(5) 1.2297(6) 0.7174(4)
C18 C 0.5115(5) 1.3686(6) 0.5767(4)
N1 N 0.3790(4) 1.0436(5) 0.6846(3)
N2 N 0.5152(4) 0.9640(5) 0.6849(3)
N3 N 0.5221(4) 1.1579(5) 0.6950(3)
O1 O 0.1591(3) 0.9438(5) 0.4956(3)
O2 O 0.0899(3) 1.0267(4) 0.5384(3)
O3 O 0.5326(4) 1.3605(4) 0.5257(3)
O4 O 0.4895(4) 1.4296(4) 0.5981(3)
O5 O 0.4354(4) 0.6925(4) 0.5971(3)
O6 O 0.5647(3) 0.6920(4) 0.6016(3)
O7 O 0.5698(5) 0.5559(5) 0.6789(3)
H10 H 0.5936 0.5097 0.6993
H11 H 0.5868 0.5981 0.7076
O8 O 0.3933(5) 0.5466(5) 0.6411(4)
H12 H 0.3570 0.5119 0.6241
H13 H 0.3704 0.5907 0.6452
C13A C 0.4671(5) 1.1543(6) 0.8644(4)
H7A H 0.4582 1.1045 0.8805
C14A C 0.4683(6) 1.2198(7) 0.9033(4)
H8A H 0.4584 1.2151 0.9438
C15A C 0.4844(5) 1.2922(6) 0.8805(4)
C16A C 0.4965(5) 1.2991(6) 0.8205(4)
H9A H 0.5064 1.3487 0.8047
C17A C 0.4939(5) 1.2297(6) 0.7826(4)
C18A C 0.4885(5) 1.3686(6) 0.9233(4)
N3A N 0.4779(4) 1.1579(5) 0.8050(3)
O3A O 0.4674(4) 1.3605(4) 0.9743(3)
O4A O 0.5105(4) 1.4296(4) 0.9019(3)
Tb1A Tb 0.52058(2) 0.56529(3) 0.928907(17)
C1A C 0.6838(5) 1.0924(6) 0.8220(4)
H1A H 0.6772 1.1377 0.7957
C2A C 0.7607(5) 1.0773(6) 0.8680(4)
H2A H 0.8047 1.1106 0.8705
C3A C 0.7683(5) 1.0134(6) 0.9082(4)
C4A C 0.7000(5) 0.9652(6) 0.9034(4)
H3A H 0.7033 0.9230 0.9325
C5A C 0.6284(5) 0.9805(6) 0.8559(4)
C6A C 0.8442(5) 0.9926(7) 0.9618(4)
C7A C 0.5551(5) 0.9315(6) 0.8476(4)
C8A C 0.5614(5) 0.8528(6) 0.8740(4)
H4A H 0.6117 0.8304 0.8947
C9A C 0.4911(5) 0.8110(6) 0.8679(4)
C10A C 0.4160(5) 0.8480(6) 0.8369(4)
H5A H 0.3673 0.8222 0.8340
C11A C 0.4167(5) 0.9233(6) 0.8110(4)
H6A H 0.3673 0.9471 0.7896
C12A C 0.4966(5) 0.7273(6) 0.8914(4)
N1A N 0.6210(4) 1.0436(5) 0.8154(3)
N2A N 0.4848(4) 0.9640(5) 0.8151(3)
O1A O 0.8409(3) 0.9438(5) 1.0044(3)
O2A O 0.9101(3) 1.0267(4) 0.9616(3)
O5A O 0.5646(4) 0.6925(4) 0.9029(3)
O6A O 0.4353(3) 0.6920(4) 0.8984(3)
O7A O 0.4302(5) 0.5559(5) 0.8211(3)
H10A H 0.4064 0.5097 0.8007
H11A H 0.4132 0.5981 0.7924
O8A O 0.6067(5) 0.5466(5) 0.8589(4)
H12A H 0.6430 0.5119 0.8759
H13A H 0.6296 0.5907 0.8548
Tb1_2 Tb 0.47942(2) 1.56529(3) 0.571093(17)
Tb1A_2 Tb 0.52058(2) 1.56529(3) 0.928907(17)
Tb1B Tb -0.02058(2) 1.06529(3) 0.571093(17)
Tb1C Tb 1.02058(2) 1.06529(3) 0.928907(17)
Tb1D Tb 0.52058(2) 1.43471(3) 0.428907(17)
Tb1E Tb 0.47942(2) 1.43471(3) 1.071093(17)
Tb1F Tb 0.02058(2) 0.93471(3) 0.428907(17)
Tb1G Tb 0.97942(2) 0.93471(3) 1.071093(17)
O1F O 0.3409(3) 0.5562(5) 0.5044(3)
O1G O 0.6591(3) 0.5562(5) 0.9956(3)
O2B O 0.5899(3) 0.5267(4) 0.5384(3)
O2C O 0.4101(3) 0.5267(4) 0.9616(3)
O2F O 0.4101(3) 0.4733(4) 0.4616(3)
O2G O 0.5899(3) 0.4733(4) 1.0384(3)
O3D O 0.4674(4) 0.6395(4) 0.4743(3)
O3E O 0.5326(4) 0.6395(4) 1.0257(3)
O4_2 O 0.4895(4) 0.4296(4) 0.5981(3)
O4A_2 O 0.5105(4) 0.4296(4) 0.9019(3)
I1 I 0.18273(7) 0.89964(10) 0.77297(6)
I2 I 0.2436(3) 0.7758(3) 0.6938(2)
I3 I 0.4241(4) 0.0192(3) 0.48404(18)
O9 O 0.4123(6) 0.6799(6) 0.7340(3)
O10 O 0.1989(6) 0.7590(8) 0.5410(5)
O11 O 0.2894(13) 0.9035(16) 0.4249(15)
loop_
_geom_bond_atom_site_label_1
_geom_bond_atom_site_label_2
_geom_bond_site_symmetry_1
_geom_bond_site_symmetry_2
Zn1 N1 1_555 1_555
Tb1 O5 1_555 1_555
C1 H1 1_555 1_555
C2 C1 1_555 1_555
H2 C2 1_555 1_555
C3 C2 1_555 1_555
C4 C3 1_555 1_555
H3 C4 1_555 1_555
C5 C4 1_555 1_555
C6 C3 1_555 1_555
C7 C5 1_555 1_555
C8 C7 1_555 1_555
H4 C8 1_555 1_555
C9 C8 1_555 1_555
C10 C9 1_555 1_555
H5 C10 1_555 1_555
C11 C10 1_555 1_555
H6 C11 1_555 1_555
C12 C9 1_555 1_555
C13 H7 1_555 1_555
C14 C13 1_555 1_555
H8 C14 1_555 1_555
C15 C14 1_555 1_555
C16 C15 1_555 1_555
H9 C16 1_555 1_555
C17 C16 1_555 1_555
C18 C15 1_555 1_555
N1 C1 1_555 1_555
N2 Zn1 1_555 1_555
N3 Zn1 1_555 1_555
O1 C6 1_555 1_555
O2 C6 1_555 1_555
O3 C18 1_555 1_555
O4 C18 1_555 1_555
O5 C12 1_555 1_555
O6 Tb1 1_555 1_555
O7 Tb1 1_555 1_555
H10 O7 1_555 1_555
H11 O7 1_555 1_555
O8 Tb1 1_555 1_555
H12 O8 1_555 1_555
H13 O8 1_555 1_555
C13A H7A 1_555 1_555
C14A C13A 1_555 1_555
H8A C14A 1_555 1_555
C15A C14A 1_555 1_555
C16A C15A 1_555 1_555
H9A C16A 1_555 1_555
C17A C17 1_555 1_555
C18A C15A 1_555 1_555
N3A Zn1 1_555 1_555
O3A C18A 1_555 1_555
O4A C18A 1_555 1_555
Tb1A O5A 1_555 1_555
C1A H1A 1_555 1_555
C2A C1A 1_555 1_555
H2A C2A 1_555 1_555
C3A C2A 1_555 1_555
C4A C3A 1_555 1_555
H3A C4A 1_555 1_555
C5A C4A 1_555 1_555
C6A C3A 1_555 1_555
C7A C5A 1_555 1_555
C8A C7A 1_555 1_555
H4A C8A 1_555 1_555
C9A C8A 1_555 1_555
C10A C9A 1_555 1_555
H5A C10A 1_555 1_555
C11A C10A 1_555 1_555
H6A C11A 1_555 1_555
C12A C9A 1_555 1_555
N1A Zn1 1_555 1_555
N2A Zn1 1_555 1_555
O1A C6A 1_555 1_555
O2A C6A 1_555 1_555
O5A C12A 1_555 1_555
O6A Tb1A 1_555 1_555
O7A Tb1A 1_555 1_555
H10A O7A 1_555 1_555
H11A O7A 1_555 1_555
O8A Tb1A 1_555 1_555
H12A O8A 1_555 1_555
H13A O8A 1_555 1_555
Tb1_2 O4 1_555 1_555
Tb1A_2 O4A 1_555 1_555
Tb1B O2 1_555 1_555
Tb1C O2A 1_555 1_555
Tb1D O3 1_555 1_555
Tb1E O3A 1_555 1_555
Tb1F O1 1_555 1_555
Tb1G O1A 1_555 1_555
O1F Tb1 1_555 1_555
O1G Tb1A 1_555 1_555
O2B Tb1 1_555 1_555
O2C Tb1A 1_555 1_555
O2F Tb1 1_555 1_555
O2G Tb1A 1_555 1_555
O3D Tb1 1_555 1_555
O3E Tb1A 1_555 1_555
O4_2 Tb1 1_555 1_555
O4A_2 Tb1A 1_555 1_555
C5 N1 1_555 1_555
C7 N2 1_555 1_555
C11 N2 1_555 1_555
C12 O6 1_555 1_555
C13 N3 1_555 1_555
C17 N3 1_555 1_555
O2 Tb1F 1_555 1_555
C13A N3A 1_555 1_555
C16A C17A 1_555 1_555
C17A N3A 1_555 1_555
C1A N1A 1_555 1_555
C5A N1A 1_555 1_555
C7A N2A 1_555 1_555
C11A N2A 1_555 1_555
C12A O6A 1_555 1_555
O2A Tb1G 1_555 1_555

#END
