
#######################################################################
#
#                 Cambridge Crystallographic Data Centre
#                                CCDC 
#
#######################################################################
#
# If this CIF has been generated from an entry in the Cambridge 
# Structural Database, then it will include bibliographic, chemical, 
# crystal, experimental, refinement or atomic coordinate data resulting 
# from the CCDC's data processing and validation procedures.
#
#######################################################################

data_MOWQIZ
_symmetry_cell_setting           monoclinic
_symmetry_space_group_name_H-M   'P 21/c'
_symmetry_Int_Tables_number      14
_space_group_name_Hall           '-P 2ybc'
loop_
_symmetry_equiv_pos_site_id
_symmetry_equiv_pos_as_xyz
1 x,y,z
2 -x,1/2+y,1/2-z
3 -x,-y,-z
4 x,1/2-y,1/2+z
_cell_length_a                   8.523(5)
_cell_length_b                   28.628(5)
_cell_length_c                   9.306(5)
_cell_angle_alpha                90
_cell_angle_beta                 96.497(5)
_cell_angle_gamma                90
_cell_volume                     2256.05
loop_
_atom_site_label
_atom_site_type_symbol
_atom_site_fract_x
_atom_site_fract_y
_atom_site_fract_z
C1 C 0.2331(6) 0.24424(16) 0.6021(6)
C2 C 0.3879(6) 0.26479(16) 0.6778(6)
C3 C 1.0334(6) 0.02549(16) 0.5051(6)
C4 C 1.0331(6) 0.02505(15) 1.0001(6)
O1 O 0.1740(5) 0.21034(13) 0.6616(4)
O2 O 0.4350(5) 0.24997(12) 0.8004(4)
O3 O 0.1733(5) 0.26405(12) 0.4879(4)
O4 O 0.4540(5) 0.29508(12) 0.6081(4)
O5 O 1.1212(5) 0.03761(12) 0.4130(4)
O6 O 1.1454(5) 0.03445(12) 1.0936(4)
O7 O 0.9883(4) 0.05059(12) 0.6045(4)
O8 O 0.9678(5) 0.05261(12) 0.9073(4)
O9 O 0.4487(5) 0.03309(12) 0.6460(4)
O10 O 0.5551(4) -0.04040(12) 0.7148(4)
O12 O 0.3163(5) -0.03771(13) 0.5475(4)
O13 O 0.3028(5) -0.01738(14) 0.7931(4)
O14 O 0.5939(5) 0.14764(14) 0.8956(4)
O15 O 0.4987(5) 0.16504(13) 0.6540(4)
O16 O 0.7650(5) 0.18906(13) 0.7481(5)
O17 O 0.7105(5) 0.10822(12) 0.7047(4)
O18 O 0.6164(6) 0.04275(14) 0.9343(4)
O19 O 0.3164(6) 0.11598(15) 1.0731(5)
O20 O 0.2629(5) 0.09940(15) 0.7445(6)
O21 O 0.0396(5) 0.14877(13) 0.8838(5)
S1 S 0.40176(15) -0.01582(4) 0.67652(13)
S2 S 0.64471(15) 0.15272(4) 0.74903(14)
Nd1 Nd 0.74752(3) 0.024796(8) 0.71568(3)
Nd2 Nd 0.31929(3) 0.173873(8) 0.87168(3)
H15 H 0.279(7) 0.0884(10) 1.074(5)
H16 H 0.353(7) 0.1209(16) 1.161(3)
H19 H 0.632(7) 0.0302(15) 1.018(3)
H20 H 0.586(7) 0.0696(9) 0.945(5)
H21 H 0.171(3) 0.0859(11) 0.723(6)
H22 H 0.325(3) 0.0773(10) 0.723(6)
H23 H 0.010(6) 0.1206(8) 0.887(6)
H24 H -0.038(5) 0.1631(14) 0.839(6)
C1C C 0.2331(6) 0.25576(16) 1.1021(6)
C2C C 0.3879(6) 0.23521(16) 1.1778(6)
C3B C 0.9666(6) -0.02549(16) 0.4949(6)
C4B C 0.9669(6) -0.02505(15) 0.9999(6)
O1C O 0.1740(5) 0.28966(13) 1.1616(4)
O2C O 0.4350(5) 0.25003(12) 1.3004(4)
O3C O 0.1733(5) 0.23595(12) 0.9879(4)
O3_2 O 0.1733(5) 0.26405(12) 1.4879(4)
O4C O 0.4540(5) 0.20492(12) 1.1081(4)
O4_2 O 0.4540(5) 0.29508(12) 1.6081(4)
O5B O 0.8788(5) -0.03761(12) 0.5870(4)
O6B O 0.8546(5) -0.03445(12) 0.9064(4)
O6_2 O 1.1454(5) 0.03445(12) 0.0936(4)
O7B O 1.0117(4) -0.05059(12) 0.3955(4)
O8B O 1.0322(5) -0.05261(12) 1.0927(4)
O8B_2 O 1.0322(5) -0.05261(12) 0.0927(4)
O9B O 0.5513(5) -0.03309(12) 0.3540(4)
O9B_2 O 1.5513(5) -0.03309(12) 0.3540(4)
O10B O 0.4449(4) 0.04040(12) 0.2852(4)
O10B_2 O 1.4449(4) 0.04040(12) 0.2852(4)
O12B O 0.6837(5) 0.03771(13) 0.4525(4)
O12_2 O 1.3163(5) -0.03771(13) 0.5475(4)
O13B O 0.6972(5) 0.01738(14) 0.2069(4)
O14B O 1.4061(5) -0.14764(14) 0.1044(4)
O14C O 0.5939(5) 0.35236(14) 1.3956(4)
O15B O 1.5013(5) -0.16504(13) 0.3460(4)
O15C O 0.4987(5) 0.33496(13) 1.1540(4)
O16B O 1.2350(5) -0.18906(13) 0.2519(5)
O17B O 1.2895(5) -0.10822(12) 0.2953(4)
O18B O 1.3836(6) -0.04275(14) 0.0657(4)
O19C O 0.3164(6) 0.38402(15) 1.5731(5)
O20C O 0.2629(5) 0.40060(15) 1.2445(6)
O21C O 0.0396(5) 0.35123(13) 1.3838(5)
S1B S 0.59824(15) 0.01582(4) 0.32348(13)
S2B S 1.35529(15) -0.15272(4) 0.25097(14)
Nd1B Nd 1.25248(3) -0.024796(8) 0.28432(3)
Nd1B_2 Nd 1.25248(3) -0.024796(8) 1.28432(3)
Nd1B_3 Nd 0.25248(3) -0.024796(8) 0.28432(3)
Nd2C Nd 0.31929(3) 0.326127(8) 1.37168(3)
Nd2C_2 Nd 0.31929(3) 0.326127(8) 0.37168(3)
Nd2B Nd 1.68071(3) -0.173873(8) 0.12832(3)
H15C H 0.279(7) 0.4116(10) 1.574(5)
H16C H 0.353(7) 0.3791(16) 1.661(3)
H19B H 1.368(7) -0.0302(15) -0.018(3)
H20B H 1.414(7) -0.0696(9) 0.055(5)
H21C H 0.171(3) 0.4141(11) 1.223(6)
H22C H 0.325(3) 0.4227(10) 1.223(6)
H23C H 0.010(6) 0.3794(8) 1.387(6)
H24C H -0.038(5) 0.3369(14) 1.339(6)
C5 C 1.0945(7) -0.1566(2) 0.5363(7)
H1 H 1.1365 -0.1297 0.4902
H2 H 1.0234 -0.1731 0.4649
C6 C 1.2294(10) -0.1890(3) 0.5979(8)
H3 H 1.2005 -0.2213 0.5787
H4 H 1.3242 -0.1822 0.5530
C7 C 1.1271(8) -0.2011(2) 0.8256(7)
H5 H 1.1372 -0.1925 0.9271
H6 H 1.1300 -0.2349 0.8190
C8 C 0.9717(7) -0.1827(2) 0.7495(7)
H7 H 0.9191 -0.2069 0.6888
H8 H 0.9024 -0.1733 0.8202
C9 C 1.1101(8) -0.10813(19) 0.7515(7)
H9 H 1.1173 -0.0786 0.7014
H10 H 1.0644 -0.1023 0.8407
C10 C 1.2706(8) -0.1291(2) 0.7842(8)
H11 H 1.3105 -0.1234 0.8845
H12 H 1.3429 -0.1150 0.7234
N1 N 1.2580(6) -0.18072(17) 0.7559(6)
H13 H 1.3500 -0.1948 0.7915
N2 N 1.0089(6) -0.14142(16) 0.6588(5)
H14 H 0.9175 -0.1270 0.6237
O11 O 0.3297(6) 0.12630(16) 0.3957(5)
H17 H 0.374(7) 0.1340(16) 0.478(4)
H18 H 0.344(7) 0.0973(8) 0.388(5)
loop_
_geom_bond_atom_site_label_1
_geom_bond_atom_site_label_2
_geom_bond_site_symmetry_1
_geom_bond_site_symmetry_2
C1 C2 1_555 1_555
C2 O2 1_555 1_555
C3 O5 1_555 1_555
C4 O6 1_555 1_555
C5 H1 1_555 1_555
H2 C5 1_555 1_555
C6 C5 1_555 1_555
H3 C6 1_555 1_555
H4 C6 1_555 1_555
C7 H5 1_555 1_555
H6 C7 1_555 1_555
C8 C7 1_555 1_555
H7 C8 1_555 1_555
H8 C8 1_555 1_555
C9 H9 1_555 1_555
H10 C9 1_555 1_555
C10 C9 1_555 1_555
H11 C10 1_555 1_555
H12 C10 1_555 1_555
O1 C1 1_555 1_555
O2 Nd2 1_555 1_555
O3 C1 1_555 1_555
O4 C2 1_555 1_555
O5 Nd1B 1_555 1_555
O6 Nd1B_2 1_555 1_555
O7 C3 1_555 1_555
O8 C4 1_555 1_555
N1 C6 1_555 1_555
H13 N1 1_555 1_555
N2 C5 1_555 1_555
H14 N2 1_555 1_555
O9 S1 1_555 1_555
O10 S1 1_555 1_555
O11 H17 1_555 1_555
O12 S1 1_555 1_555
O13 S1 1_555 1_555
O14 S2 1_555 1_555
O15 S2 1_555 1_555
O16 S2 1_555 1_555
O17 S2 1_555 1_555
O18 Nd1 1_555 1_555
O19 Nd2 1_555 1_555
O20 Nd2 1_555 1_555
O21 Nd2 1_555 1_555
Nd1 O7 1_555 1_555
Nd2 O1 1_555 1_555
H15 O19 1_555 1_555
H16 O19 1_555 1_555
H18 O11 1_555 1_555
H19 O18 1_555 1_555
H20 O18 1_555 1_555
H21 O20 1_555 1_555
H22 O20 1_555 1_555
H23 O21 1_555 1_555
H24 O21 1_555 1_555
C1C C2C 1_555 1_555
C2C O2C 1_555 1_555
C3B C3 1_555 1_555
C4B C4 1_555 1_555
O1C C1C 1_555 1_555
O2C Nd2C 1_555 1_555
O3C Nd2 1_555 1_555
O3_2 Nd2C 1_555 1_555
O4C Nd2 1_555 1_555
O4_2 Nd2C 1_555 1_555
O5B Nd1 1_555 1_555
O6B Nd1 1_555 1_555
O6_2 Nd1B 1_555 1_555
O7B C3B 1_555 1_555
O8B C4B 1_555 1_555
O8B_2 Nd1B 1_555 1_555
O9B S1B 1_555 1_555
O9B_2 Nd1B 1_555 1_555
O10B S1B 1_555 1_555
O10B_2 Nd1B 1_555 1_555
O12B Nd1 1_555 1_555
O12_2 Nd1B 1_555 1_555
O13B S1B 1_555 1_555
O14B S2B 1_555 1_555
O14C Nd2C 1_555 1_555
O15B S2B 1_555 1_555
O15C Nd2C 1_555 1_555
O16B S2B 1_555 1_555
O17B S2B 1_555 1_555
O18B Nd1B 1_555 1_555
O19C Nd2C 1_555 1_555
O20C Nd2C 1_555 1_555
O21C Nd2C 1_555 1_555
S1B O12B 1_555 1_555
Nd1B O7B 1_555 1_555
Nd1B_2 O8B 1_555 1_555
Nd1B_3 O12 1_555 1_555
Nd2C O1C 1_555 1_555
Nd2C_2 O3 1_555 1_555
Nd2B O14B 1_555 1_555
H15C O19C 1_555 1_555
H16C O19C 1_555 1_555
H19B O18B 1_555 1_555
H20B O18B 1_555 1_555
H21C O20C 1_555 1_555
H22C O20C 1_555 1_555
H23C O21C 1_555 1_555
H24C O21C 1_555 1_555
C7 N1 1_555 1_555
C8 N2 1_555 1_555
C9 N2 1_555 1_555
C10 N1 1_555 1_555
O4 Nd2C_2 1_555 1_555
O8 Nd1 1_555 1_555
O9 Nd1 1_555 1_555
O10 Nd1 1_555 1_555
O14 Nd2 1_555 1_555
O15 Nd2 1_555 1_555
O17 Nd1 1_555 1_555
C1C O3C 1_555 1_555
C2C O4C 1_555 1_555
C3B O5B 1_555 1_555
C4B O6B 1_555 1_555
O9B Nd1B_3 1_555 1_555
O10B Nd1B_3 1_555 1_555
O15B Nd2B 1_555 1_555
O17B Nd1B 1_555 1_555

#END
