
#######################################################################
#
#                 Cambridge Crystallographic Data Centre
#                                CCDC 
#
#######################################################################
#
# If this CIF has been generated from an entry in the Cambridge 
# Structural Database, then it will include bibliographic, chemical, 
# crystal, experimental, refinement or atomic coordinate data resulting 
# from the CCDC's data processing and validation procedures.
#
#######################################################################

data_MOXDIN01
_symmetry_cell_setting           monoclinic
_symmetry_space_group_name_H-M   'C 2/c'
_symmetry_Int_Tables_number      15
_space_group_name_Hall           '-C 2yn'
loop_
_symmetry_equiv_pos_site_id
_symmetry_equiv_pos_as_xyz
1 x,y,z
2 -x,y,1/2-z
3 1/2+x,1/2+y,z
4 1/2-x,1/2+y,1/2-z
5 -x,-y,-z
6 x,-y,1/2+z
7 1/2-x,1/2-y,-z
8 1/2+x,1/2-y,1/2+z
_cell_length_a                   32.997(7)
_cell_length_b                   9.7187(19)
_cell_length_c                   18.392(4)
_cell_angle_alpha                90
_cell_angle_beta                 92.25(3)
_cell_angle_gamma                90
_cell_volume                     5893.55
loop_
_atom_site_label
_atom_site_type_symbol
_atom_site_fract_x
_atom_site_fract_y
_atom_site_fract_z
C1 C 0.19313(9) 0.1543(3) 0.37421(17)
C2 C 0.19053(10) 0.0771(4) 0.30302(17)
C3 C 0.15384(10) 0.0266(4) 0.27549(18)
H1 H 0.1300 0.0377 0.3021
C4 C 0.22539(10) 0.0612(4) 0.26368(19)
H2 H 0.2505 0.0966 0.2823
C5 C 0.22340(10) -0.0073(4) 0.19642(19)
H3 H 0.2472 -0.0188 0.1695
C6 C 0.18639(10) -0.0581(3) 0.16954(18)
C7 C 0.18474(10) -0.1308(3) 0.09787(17)
C8 C 0.29653(10) 0.0083(3) 0.04097(18)
C9 C 0.27161(10) 0.1339(3) 0.01948(18)
C10 C 0.25276(10) 0.1418(3) -0.04855(18)
H4 H 0.2550 0.0675 -0.0817
C11 C 0.26939(11) 0.2427(3) 0.0689(2)
H5 H 0.2828 0.2374 0.1154
C12 C 0.42062(12) -0.1230(4) 0.0124(2)
C13 C 0.46229(10) -0.0584(4) 0.0050(2)
C14 C 0.46562(12) 0.0769(5) -0.0073(3)
H6 H 0.4420 0.1328 -0.0115
C15 C 0.49533(14) -0.1362(5) 0.0138(3)
H7 H 0.4928 -0.2314 0.0246
C16 C 0.15209(11) -0.0399(4) 0.20934(19)
H8 H 0.1268 -0.0741 0.1906
Co1 Co 0.152290(12) -0.30032(4) -0.01291(2)
Co2 Co 0.2500 -0.2500 0.0000
O1 O 0.21434(7) -0.1175(2) 0.05675(12)
O2 O 0.15282(7) -0.1980(3) 0.08172(13)
O3 O 0.22735(7) 0.1844(2) 0.40013(12)
O4 O 0.15941(7) 0.1806(2) 0.40293(12)
O5 O 0.39012(9) -0.0501(3) 0.00420(18)
O6 O 0.41729(12) -0.2428(4) 0.0286(3)
O7 O 0.29609(6) -0.0930(2) -0.00492(12)
O8 O 0.31721(8) 0.0074(3) 0.09853(15)
C1F C 0.30687(9) -0.6543(3) -0.37421(17)
C2F C 0.30947(10) -0.5771(4) -0.30302(17)
C3F C 0.34616(10) -0.5266(4) -0.27549(18)
H1F H 0.3700 -0.5377 -0.3021
C4F C 0.27461(10) -0.5612(4) -0.26368(19)
H2F H 0.2495 -0.5966 -0.2823
C5F C 0.27660(10) -0.4927(4) -0.19642(19)
H3F H 0.2528 -0.4812 -0.1695
C6F C 0.31361(10) -0.4419(3) -0.16954(18)
C7F C 0.31526(10) -0.3692(3) -0.09787(17)
C8F C 0.20347(10) 0.4917(3) -0.04097(18)
C9F C 0.22839(10) 0.3661(3) -0.01948(18)
C10F C 0.24724(10) 0.3582(3) 0.04855(18)
H4F H 0.2450 0.4325 0.0817
C11F C 0.23061(11) 0.2573(3) -0.0689(2)
H5F H 0.2172 0.2626 -0.1154
C12D C 0.57938(12) 0.1230(4) -0.0124(2)
C13D C 0.53771(10) 0.0584(4) -0.0050(2)
C14D C 0.53438(12) -0.0769(5) 0.0073(3)
H6D H 0.5580 -0.1328 0.0115
C15D C 0.50467(14) 0.1362(5) -0.0138(3)
H7D H 0.5072 0.2314 -0.0246
C16F C 0.34791(11) -0.4601(4) -0.20934(19)
H8F H 0.3732 -0.4259 -0.1906
Co1F Co 0.347710(12) -0.19968(4) 0.01291(2)
Co1E Co 0.152290(12) 0.30032(4) 0.48709(2)
Co1C Co 0.347710(12) -0.80032(4) -0.48709(2)
Co1_2 Co 0.152290(12) 0.69968(4) -0.01291(2)
Co1B Co 0.652290(12) 0.19968(4) -0.01291(2)
Co2C Co 0.2500 0.2500 0.5000
Co2C_2 Co 0.2500 -0.7500 -0.5000
Co2_2 Co 0.2500 0.7500 0.0000
O1F O 0.28566(7) -0.3825(2) -0.05675(12)
O2F O 0.34718(7) -0.3020(3) -0.08172(13)
O3F O 0.27265(7) -0.6844(2) -0.40013(12)
O3C O 0.27265(7) -0.3156(2) 0.09987(12)
O3E O 0.22735(7) -0.1844(2) -0.09987(12)
O4F O 0.34059(7) -0.6806(2) -0.40293(12)
O4C O 0.34059(7) -0.3194(2) 0.09707(12)
O4E O 0.15941(7) -0.1806(2) -0.09707(12)
O5F O 0.10988(9) -0.4499(3) -0.00420(18)
O5D O 0.60988(9) 0.0501(3) -0.00420(18)
O6D O 0.58271(12) 0.2428(4) -0.0286(3)
O7F O 0.20391(6) 0.5930(2) 0.00492(12)
O7F_2 O 0.20391(6) -0.4070(2) 0.00492(12)
O8F O 0.18279(8) 0.4926(3) -0.09853(15)
loop_
_geom_bond_atom_site_label_1
_geom_bond_atom_site_label_2
_geom_bond_site_symmetry_1
_geom_bond_site_symmetry_2
C1 C2 1_555 1_555
C2 C3 1_555 1_555
C3 H1 1_555 1_555
C4 C2 1_555 1_555
H2 C4 1_555 1_555
C5 C4 1_555 1_555
H3 C5 1_555 1_555
C6 C5 1_555 1_555
C7 C6 1_555 1_555
C8 C9 1_555 1_555
C9 C10 1_555 1_555
C10 H4 1_555 1_555
C11 C9 1_555 1_555
H5 C11 1_555 1_555
C12 C13 1_555 1_555
C13 C14 1_555 1_555
C14 H6 1_555 1_555
C15 C13 1_555 1_555
H7 C15 1_555 1_555
C16 C3 1_555 1_555
H8 C16 1_555 1_555
Co1 O2 1_555 1_555
Co2 O1 1_555 1_555
O1 C7 1_555 1_555
O2 C7 1_555 1_555
O3 C1 1_555 1_555
O4 C1 1_555 1_555
O5 C12 1_555 1_555
O6 C12 1_555 1_555
O7 C8 1_555 1_555
O8 C8 1_555 1_555
C1F C2F 1_555 1_555
C2F C3F 1_555 1_555
C3F H1F 1_555 1_555
C4F C2F 1_555 1_555
H2F C4F 1_555 1_555
C5F C4F 1_555 1_555
H3F C5F 1_555 1_555
C6F C5F 1_555 1_555
C7F C6F 1_555 1_555
C8F C9F 1_555 1_555
C9F C10F 1_555 1_555
C10F C11 1_555 1_555
H4F C10F 1_555 1_555
C11F C10 1_555 1_555
H5F C11F 1_555 1_555
C12D C13D 1_555 1_555
C13D C14D 1_555 1_555
C14D C15 1_555 1_555
H6D C14D 1_555 1_555
C15D C14 1_555 1_555
H7D C15D 1_555 1_555
C16F C3F 1_555 1_555
H8F C16F 1_555 1_555
Co1F O5 1_555 1_555
Co1E O4 1_555 1_555
Co1C O4F 1_555 1_555
Co1_2 O7F 1_555 1_555
Co1B O5D 1_555 1_555
Co2C O3 1_555 1_555
Co2C_2 O3F 1_555 1_555
Co2_2 O7F 1_555 1_555
O1F Co2 1_555 1_555
O2F C7F 1_555 1_555
O3F C1F 1_555 1_555
O3C Co2 1_555 1_555
O3E Co2 1_555 1_555
O4F C1F 1_555 1_555
O4C Co1F 1_555 1_555
O4E Co1 1_555 1_555
O5F Co1 1_555 1_555
O5D C12D 1_555 1_555
O6D C12D 1_555 1_555
O7F C8F 1_555 1_555
O7F_2 Co1 1_555 1_555
O8F C8F 1_555 1_555
C6 C16 1_555 1_555
Co2 O7 1_555 1_555
Co2 O7F_2 1_555 1_555
O7 Co1F 1_555 1_555
C6F C16F 1_555 1_555
C7F O1F 1_555 1_555
C9F C11F 1_555 1_555
C13D C15D 1_555 1_555
Co1F O2F 1_555 1_555

#END
