
#######################################################################
#
#                 Cambridge Crystallographic Data Centre
#                                CCDC 
#
#######################################################################
#
# If this CIF has been generated from an entry in the Cambridge 
# Structural Database, then it will include bibliographic, chemical, 
# crystal, experimental, refinement or atomic coordinate data resulting 
# from the CCDC's data processing and validation procedures.
#
#######################################################################

data_MOXDIN
_symmetry_cell_setting           monoclinic
_symmetry_space_group_name_H-M   'C 2/c'
_symmetry_Int_Tables_number      15
_space_group_name_Hall           '-C 2yn'
loop_
_symmetry_equiv_pos_site_id
_symmetry_equiv_pos_as_xyz
1 x,y,z
2 -x,y,1/2-z
3 1/2+x,1/2+y,z
4 1/2-x,1/2+y,1/2-z
5 -x,-y,-z
6 x,-y,1/2+z
7 1/2-x,1/2-y,-z
8 1/2+x,1/2-y,1/2+z
_cell_length_a                   32.997(7)
_cell_length_b                   9.7187(19)
_cell_length_c                   18.392(4)
_cell_angle_alpha                90
_cell_angle_beta                 92.25(3)
_cell_angle_gamma                90
_cell_volume                     5893.55
loop_
_atom_site_label
_atom_site_type_symbol
_atom_site_fract_x
_atom_site_fract_y
_atom_site_fract_z
C1 C 0.193040(6) 0.15454(2) 0.374350(11)
C2 C 0.190540(6) 0.07787(2) 0.302780(11)
C3 C 0.153690(7) 0.02643(2) 0.275430(11)
H1 H 0.1298 0.0371 0.3021
C4 C 0.225410(7) 0.06220(3) 0.263750(12)
H2 H 0.2505 0.0979 0.2824
C5 C 0.223410(7) -0.00691(2) 0.196330(12)
H3 H 0.2471 -0.0176 0.1692
C6 C 0.186560(7) -0.05932(2) 0.169770(12)
C7 C 0.185080(6) -0.13101(2) 0.097730(11)
C8 C 0.296430(6) 0.00830(2) 0.041070(11)
C9 C 0.271630(6) 0.133780(19) 0.019640(11)
C10 C 0.252620(6) 0.14158(2) -0.048750(12)
H4 H 0.2548 0.0670 -0.0818
C11 C 0.269490(7) 0.24294(2) 0.069350(12)
H5 H 0.2829 0.2376 0.1159
C12 C 0.420480(8) -0.12279(3) 0.012560(14)
C13 C 0.462290(6) -0.05884(3) 0.005290(13)
C14 C 0.465310(8) 0.07754(3) -0.00747(2)
H6 H 0.4418 0.1336 -0.0121
C15 C 0.495060(9) -0.13535(3) 0.01376(2)
H7 H 0.4924 -0.2306 0.0242
C16 C 0.152190(7) -0.04025(3) 0.209200(12)
H8 H 0.1269 -0.0739 0.1902
Co1 Co 0.152300(1) -0.300320(3) -0.012940(1)
Co2 Co 0.2500 -0.2500 0.0000
O1 O 0.214280(4) -0.117260(14) 0.056660(8)
O2 O 0.152830(4) -0.197850(16) 0.081820(8)
O3 O 0.227370(4) 0.184580(15) 0.399900(8)
O4 O 0.159520(4) 0.180210(15) 0.402900(8)
O5 O 0.389970(5) -0.05060(2) 0.004140(12)
O6 O 0.417300(7) -0.24245(3) 0.029150(18)
O7 O 0.296060(4) -0.092970(14) -0.005110(8)
O8 O 0.317140(5) 0.007410(17) 0.098510(9)
C1F C 0.306960(6) -0.65454(2) -0.374350(11)
C2F C 0.309460(6) -0.57787(2) -0.302780(11)
C3F C 0.346310(7) -0.52643(2) -0.275430(11)
H1F H 0.3702 -0.5371 -0.3021
C4F C 0.274590(7) -0.56220(3) -0.263750(12)
H2F H 0.2495 -0.5979 -0.2824
C5F C 0.276590(7) -0.49309(2) -0.196330(12)
H3F H 0.2529 -0.4824 -0.1692
C6F C 0.313440(7) -0.44068(2) -0.169770(12)
C7F C 0.314920(6) -0.36899(2) -0.097730(11)
C8F C 0.203570(6) 0.49170(2) -0.041070(11)
C9F C 0.228370(6) 0.366220(19) -0.019640(11)
C10F C 0.247380(6) 0.35842(2) 0.048750(12)
H4F H 0.2452 0.4330 0.0818
C11F C 0.230510(7) 0.25706(2) -0.069350(12)
H5F H 0.2171 0.2624 -0.1159
C12D C 0.579520(8) 0.12279(3) -0.012560(14)
C13D C 0.537710(6) 0.05884(3) -0.005290(13)
C14D C 0.534690(8) -0.07754(3) 0.00747(2)
H6D H 0.5582 -0.1336 0.0121
C15D C 0.504940(9) 0.13535(3) -0.01376(2)
H7D H 0.5076 0.2306 -0.0242
C16F C 0.347810(7) -0.45975(3) -0.209200(12)
H8F H 0.3731 -0.4261 -0.1902
Co1F Co 0.347700(1) -0.199680(3) 0.012940(1)
Co1_2 Co 0.152300(1) 0.699680(3) -0.012940(1)
Co1E Co 0.152300(1) 0.300320(3) 0.487060(1)
Co1C Co 0.347700(1) -0.800320(3) -0.487060(1)
Co1B Co 0.652300(1) 0.199680(3) -0.012940(1)
Co2_2 Co 0.2500 0.7500 0.0000
Co2C Co 0.2500 0.2500 0.5000
Co2C_2 Co 0.2500 -0.7500 -0.5000
O1F O 0.285720(4) -0.382740(14) -0.056660(8)
O2F O 0.347170(4) -0.302150(16) -0.081820(8)
O3F O 0.272630(4) -0.684580(15) -0.399900(8)
O3C O 0.272630(4) -0.315420(15) 0.100100(8)
O3E O 0.227370(4) -0.184580(15) -0.100100(8)
O4F O 0.340480(4) -0.680210(15) -0.402900(8)
O4C O 0.340480(4) -0.319790(15) 0.097100(8)
O4E O 0.159520(4) -0.180210(15) -0.097100(8)
O5F O 0.110030(5) -0.44940(2) -0.004140(12)
O5D O 0.610030(5) 0.05060(2) -0.004140(12)
O6D O 0.582700(7) 0.24245(3) -0.029150(18)
O7F O 0.203940(4) 0.592970(14) 0.005110(8)
O7F_2 O 0.203940(4) -0.407030(14) 0.005110(8)
O8F O 0.182860(5) 0.492590(17) -0.098510(9)
C17 C 0.069800(10) -0.93324(3) 0.92066(3)
H9 H 0.0506 -0.9357 0.9600
H10 H 0.0780 -1.0273 0.9088
H11 H 0.0568 -0.8902 0.8775
C18 C 0.11568(2) -0.86920(6) 1.023050(17)
H12 H 0.1148 -0.9661 1.0376
H13 H 0.0966 -0.8160 1.0515
H14 H 0.1432 -0.8334 1.0320
C19 C 0.105870(16) -0.74174(4) 0.888780(16)
H15 H 0.1278 -0.6810 0.9001
N1 N 0.104020(9) -0.85691(3) 0.943020(13)
O9 O 0.086200(16) -0.70492(4) 0.832840(16)
C20 C 0.089570(11) -0.54346(5) 0.67849(2)
C21 C 0.109250(13) -0.39564(4) 0.785990(16)
N2 N 0.125430(7) -0.47275(3) 0.720430(14)
C22? C 0.160860(11) -0.57280(5) 0.73198(3)
loop_
_geom_bond_atom_site_label_1
_geom_bond_atom_site_label_2
_geom_bond_site_symmetry_1
_geom_bond_site_symmetry_2
C1 C2 1_555 1_555
C2 C3 1_555 1_555
C3 H1 1_555 1_555
C4 C2 1_555 1_555
H2 C4 1_555 1_555
C5 C4 1_555 1_555
H3 C5 1_555 1_555
C6 C5 1_555 1_555
C7 C6 1_555 1_555
C8 C9 1_555 1_555
C9 C10 1_555 1_555
C10 H4 1_555 1_555
C11 C9 1_555 1_555
H5 C11 1_555 1_555
C12 C13 1_555 1_555
C13 C14 1_555 1_555
C14 H6 1_555 1_555
C15 C13 1_555 1_555
H7 C15 1_555 1_555
C16 C3 1_555 1_555
H8 C16 1_555 1_555
C17 H9 1_555 1_555
H10 C17 1_555 1_555
H11 C17 1_555 1_555
C18 H12 1_555 1_555
H13 C18 1_555 1_555
H14 C18 1_555 1_555
C19 H15 1_555 1_555
C20 N2 1_555 1_555
C21 N2 1_555 1_555
Co1 O2 1_555 1_555
Co2 O1 1_555 1_555
N1 C17 1_555 1_555
O1 C7 1_555 1_555
O2 C7 1_555 1_555
O3 C1 1_555 1_555
O4 C1 1_555 1_555
O5 C12 1_555 1_555
O6 C12 1_555 1_555
O7 C8 1_555 1_555
O8 C8 1_555 1_555
O9 C19 1_555 1_555
C1F C2F 1_555 1_555
C2F C3F 1_555 1_555
C3F H1F 1_555 1_555
C4F C2F 1_555 1_555
H2F C4F 1_555 1_555
C5F C4F 1_555 1_555
H3F C5F 1_555 1_555
C6F C5F 1_555 1_555
C7F C6F 1_555 1_555
C8F C9F 1_555 1_555
C9F C10F 1_555 1_555
C10F C11 1_555 1_555
H4F C10F 1_555 1_555
C11F C10 1_555 1_555
H5F C11F 1_555 1_555
C12D C13D 1_555 1_555
C13D C14D 1_555 1_555
C14D C15 1_555 1_555
H6D C14D 1_555 1_555
C15D C14 1_555 1_555
H7D C15D 1_555 1_555
C16F C3F 1_555 1_555
H8F C16F 1_555 1_555
Co1F O5 1_555 1_555
Co1_2 O7F 1_555 1_555
Co1E O4 1_555 1_555
Co1C O4F 1_555 1_555
Co1B O5D 1_555 1_555
Co2_2 O7F 1_555 1_555
Co2C O3 1_555 1_555
Co2C_2 O3F 1_555 1_555
O1F Co2 1_555 1_555
O2F C7F 1_555 1_555
O3F C1F 1_555 1_555
O3C Co2 1_555 1_555
O3E Co2 1_555 1_555
O4F C1F 1_555 1_555
O4C Co1F 1_555 1_555
O4E Co1 1_555 1_555
O5F Co1 1_555 1_555
O5D C12D 1_555 1_555
O6D C12D 1_555 1_555
O7F C8F 1_555 1_555
O7F_2 Co1 1_555 1_555
O8F C8F 1_555 1_555
C6 C16 1_555 1_555
C18 N1 1_555 1_555
C19 N1 1_555 1_555
Co2 O7 1_555 1_555
Co2 O7F_2 1_555 1_555
O7 Co1F 1_555 1_555
C6F C16F 1_555 1_555
C7F O1F 1_555 1_555
C9F C11F 1_555 1_555
C13D C15D 1_555 1_555
Co1F O2F 1_555 1_555

#END
