
#######################################################################
#
#                 Cambridge Crystallographic Data Centre
#                                CCDC 
#
#######################################################################
#
# If this CIF has been generated from an entry in the Cambridge 
# Structural Database, then it will include bibliographic, chemical, 
# crystal, experimental, refinement or atomic coordinate data resulting 
# from the CCDC's data processing and validation procedures.
#
#######################################################################

data_MUDSOV
_symmetry_cell_setting           orthorhombic
_symmetry_space_group_name_H-M   'P b c a'
_symmetry_Int_Tables_number      61
_space_group_name_Hall           '-P 2ac 2ab'
loop_
_symmetry_equiv_pos_site_id
_symmetry_equiv_pos_as_xyz
1 x,y,z
2 1/2+x,1/2-y,-z
3 -x,1/2+y,1/2-z
4 1/2-x,-y,1/2+z
5 -x,-y,-z
6 1/2-x,1/2+y,z
7 x,1/2-y,1/2+z
8 1/2+x,y,1/2-z
_cell_length_a                   11.9328(10)
_cell_length_b                   12.2111(10)
_cell_length_c                   18.6534(16)
_cell_angle_alpha                90
_cell_angle_beta                 90
_cell_angle_gamma                90
_cell_volume                     2718.04
loop_
_atom_site_label
_atom_site_type_symbol
_atom_site_fract_x
_atom_site_fract_y
_atom_site_fract_z
Se1 Se 0.717570(14) 0.656655(13) 0.666211(11)
Se2 Se 0.863809(15) 0.878556(14) 0.719585(10)
Cu1 Cu 0.493846(17) 0.509158(16) 0.600764(12)
Cl1 Cl 0.64466(3) 0.48915(3) 0.52725(2)
Cl2 Cl 0.35202(4) 0.52325(4) 0.67965(3)
N1 N 0.51088(12) 0.67732(12) 0.59760(9)
N2 N 1.02238(12) 0.84427(11) 0.61416(8)
C1 C 0.60080(14) 0.73550(13) 0.61911(10)
C2 C 0.42641(15) 0.73344(15) 0.56716(12)
H1 H 0.3619 0.6937 0.5525
C3 C 0.42764(17) 0.84482(15) 0.55591(14)
H2 H 0.3650 0.8811 0.5354
C4 C 0.52264(17) 0.90246(15) 0.57536(11)
H3 H 0.5277 0.9790 0.5667
C5 C 0.61010(17) 0.84699(14) 0.60769(11)
H4 H 0.6759 0.8851 0.6219
C6 C 0.75374(14) 0.76402(14) 0.74016(10)
H5 H 0.7805 0.7232 0.7827
H6 H 0.6830 0.8007 0.7541
C7 C 0.97108(13) 0.79346(13) 0.66899(9)
C8 C 1.10024(15) 0.78760(15) 0.57704(10)
H7 H 1.1385 0.8232 0.5390
C9 C 1.12644(16) 0.68032(16) 0.59209(11)
H8 H 1.1787 0.6417 0.5631
C10 C 1.07587(15) 0.62914(14) 0.64992(11)
H9 H 1.0954 0.5563 0.6626
C11 C 0.99626(14) 0.68635(14) 0.68886(10)
H10 H 0.9595 0.6531 0.7284
Cu1D Cu 0.506154(17) 0.490842(16) 0.399236(12)
Cu1E Cu 1.006154(17) 1.009158(16) 0.600764(12)
Cl1D Cl 0.35534(3) 0.51085(3) 0.47275(2)
N2E N 0.47762(12) 0.34427(11) 0.61416(8)
loop_
_geom_bond_atom_site_label_1
_geom_bond_atom_site_label_2
_geom_bond_site_symmetry_1
_geom_bond_site_symmetry_2
Se1 C1 1_555 1_555
Se2 C6 1_555 1_555
Cu1 Cl1 1_555 1_555
Cl1 Cu1D 1_555 1_555
Cl2 Cu1 1_555 1_555
N1 Cu1 1_555 1_555
N2 C7 1_555 1_555
C1 N1 1_555 1_555
C2 N1 1_555 1_555
H1 C2 1_555 1_555
C3 C2 1_555 1_555
H2 C3 1_555 1_555
C4 C3 1_555 1_555
H3 C4 1_555 1_555
C5 C1 1_555 1_555
H4 C5 1_555 1_555
C6 Se1 1_555 1_555
H5 C6 1_555 1_555
H6 C6 1_555 1_555
C7 Se2 1_555 1_555
C8 N2 1_555 1_555
H7 C8 1_555 1_555
C9 C8 1_555 1_555
H8 C9 1_555 1_555
C10 C9 1_555 1_555
H9 C10 1_555 1_555
C11 C7 1_555 1_555
H10 C11 1_555 1_555
Cu1D Cl1D 1_555 1_555
Cu1E N2 1_555 1_555
Cl1D Cu1 1_555 1_555
N2E Cu1 1_555 1_555
C4 C5 1_555 1_555
C10 C11 1_555 1_555

#END
