
#######################################################################
#
#                 Cambridge Crystallographic Data Centre
#                                CCDC 
#
#######################################################################
#
# If this CIF has been generated from an entry in the Cambridge 
# Structural Database, then it will include bibliographic, chemical, 
# crystal, experimental, refinement or atomic coordinate data resulting 
# from the CCDC's data processing and validation procedures.
#
#######################################################################

data_MUFYAP
_symmetry_cell_setting           triclinic
_symmetry_space_group_name_H-M   'P -1'
_symmetry_Int_Tables_number      2
_space_group_name_Hall           '-P 1'
loop_
_symmetry_equiv_pos_site_id
_symmetry_equiv_pos_as_xyz
1 x,y,z
2 -x,-y,-z
_cell_length_a                   8.5607(10)
_cell_length_b                   14.1023(17)
_cell_length_c                   20.294(2)
_cell_angle_alpha                88.5392(17)
_cell_angle_beta                 86.4998(15)
_cell_angle_gamma                81.2519(16)
_cell_volume                     2416.66
loop_
_atom_site_label
_atom_site_type_symbol
_atom_site_fract_x
_atom_site_fract_y
_atom_site_fract_z
H1 H 1.407(2) 0.6487(8) 0.2692(3)
H2 H 1.2370(7) 0.9069(12) 0.6063(10)
H3 H 1.0534(4) 0.9276(4) 0.6101(5)
C1 C 1.2525(5) 0.5883(3) 0.09227(18)
C2 C 1.3873(4) 0.5362(3) 0.04726(18)
C3 C 1.4905(4) 0.4508(3) 0.05874(18)
C4 C 1.5043(5) 0.3876(3) 0.12180(19)
C5 C 1.1271(5) 0.9327(3) 0.09011(19)
C6 C 0.9776(4) 0.9105(3) 0.06190(19)
C7 C 0.8216(5) 0.9566(3) 0.07765(18)
C8 C 0.7238(5) 0.8484(3) 0.01594(19)
C9 C 0.8754(5) 0.8038(3) -0.00209(19)
C10 C 0.9190(5) 0.7211(3) -0.0498(2)
C11 C 0.7823(5) 1.0455(3) 0.1189(2)
C12 C 0.5756(4) 0.8125(3) -0.00280(19)
C13 C 1.2063(5) 0.5822(3) 0.40344(18)
C14 C 1.0915(4) 0.5353(3) 0.45065(18)
C15 C 0.9825(4) 0.5452(3) 0.55902(18)
C16 C 0.9899(5) 0.5999(3) 0.62193(19)
C17 C 1.4927(5) 1.0215(3) 0.3521(2)
C18 C 1.4813(5) 0.9452(3) 0.4064(2)
C19 C 1.3450(5) 0.9054(3) 0.42695(19)
C20 C 1.4957(5) 0.7991(3) 0.49636(19)
C21 C 1.6310(4) 0.8406(3) 0.47433(17)
C22 C 1.7952(5) 0.8044(3) 0.4970(2)
C23 C 1.4965(5) 0.7173(3) 0.54468(19)
C24 C 1.1776(5) 0.9331(3) 0.40563(19)
N1 N 1.0714(4) 0.5777(2) 0.50935(16)
N2 N 1.3565(4) 0.8335(2) 0.47182(15)
N3 N 1.0006(4) 0.8358(2) 0.02209(17)
N4 N 0.6964(4) 0.9236(2) 0.05561(17)
N5 N 1.6216(4) 0.9137(3) 0.43163(18)
O1 O 1.2156(4) 0.6757(2) 0.07924(15)
O2 O 1.0233(4) 0.6153(2) 0.26342(16)
H4 H 0.9298(10) 0.6295(12) 0.2961(4)
H5 H 1.0221(19) 0.6771(5) 0.2395(5)
O3 O 1.1857(4) 0.5426(2) 0.13631(14)
O4 O 1.0935(4) 0.3794(2) 0.19628(16)
H6 H 0.9934(9) 0.3601(14) 0.2140(5)
H7 H 1.1167(15) 0.3437(19) 0.1547(4)
N6 N 1.4006(4) 0.5826(2) -0.01093(16)
O5 O 1.3948(4) 0.6062(2) 0.23224(15)
H8 H 1.4871(11) 0.6135(16) 0.2021(4)
O6 O 1.4383(4) 0.4198(2) 0.17464(15)
O7 O 1.3606(5) 0.3473(3) 0.30224(15)
H9 H 1.4571(12) 0.3094(10) 0.2826(5)
H10 H 1.376(2) 0.343(2) 0.3501(3)
O8 O 1.5868(4) 0.3067(2) 0.11474(15)
O9 O 1.3451(4) 1.1496(2) 0.17418(15)
H11 H 1.4351(10) 1.1269(9) 0.1413(5)
H12 H 1.2858(8) 1.2021(4) 0.1464(3)
O10 O 1.0650(3) 0.6882(2) -0.05729(15)
O11 O 1.0295(4) 1.1624(2) 0.19408(16)
H13 H 0.9563(12) 1.1523(10) 0.1595(4)
H14 H 0.9609(17) 1.2043(7) 0.2255(4)
O12 O 0.8089(4) 0.6951(2) -0.07881(15)
O13 O 1.1954(4) 1.1726(2) 0.30946(14)
H15 H 1.2472(13) 1.2326(5) 0.3072(7)
H16 H 1.182(2) 1.1635(9) 0.3585(3)
O14 O 1.2549(3) 0.8912(2) 0.06385(15)
O15 O 1.4387(4) 0.9450(2) 0.17100(15)
H17 H 1.3875(10) 0.9304(9) 0.1304(4)
H18 H 1.5241(8) 0.9797(7) 0.1535(8)
O16 O 1.1098(4) 0.9893(2) 0.13775(15)
O17 O 1.1438(3) 0.8825(2) 0.59091(15)
O18 O 0.5306(3) 0.7443(2) 0.03041(15)
O19 O 0.4975(4) 0.8557(2) -0.04847(15)
O20 O 0.8301(4) 1.1210(2) 0.09551(14)
O21 O 0.7021(4) 1.0390(2) 0.17163(15)
O22 O 1.2785(4) 0.5362(2) 0.35698(14)
O23 O 1.2246(3) 0.6660(2) 0.41849(15)
O24 O 1.0332(4) 0.6811(2) 0.61352(14)
O25 O 0.9621(4) 0.5603(2) 0.67619(15)
O26 O 1.4455(4) 1.0039(2) 0.29744(15)
O27 O 1.5576(4) 1.0920(2) 0.36598(17)
O28 O 1.1493(3) 1.0005(2) 0.36364(14)
O29 O 1.2232(4) 0.8605(2) 0.25715(17)
H19 H 1.3177 0.8355 0.2638
H20 H 1.1936 0.8367 0.2227
O30 O 1.0767(4) 0.8865(2) 0.43284(15)
O31 O 0.9392(3) 1.0053(2) 0.26840(13)
H21 H 0.8626(6) 1.0057(6) 0.23472(18)
H22 H 0.8899(12) 1.0519(4) 0.3010(2)
O32 O 1.3618(4) 0.6906(2) 0.55860(15)
O33 O 1.6244(4) 0.6812(2) 0.56684(15)
O34 O 1.8457(4) 0.8405(2) 0.54451(15)
O35 O 1.8761(4) 0.7411(2) 0.45989(15)
Gd1 Gd 1.27504(2) 0.76286(2) -0.01904(2)
Gd2 Gd 1.23167(2) 0.48581(2) 0.24766(2)
Gd3 Gd 1.11899(2) 0.75955(2) 0.51428(2)
Gd4 Gd 1.21156(2) 1.03019(2) 0.24149(2)
C1A C 1.7475(5) 0.4117(3) -0.09227(18)
C2A C 1.6127(4) 0.4638(3) -0.04726(18)
C3A C 1.5095(4) 0.5492(3) -0.05874(18)
C4A C 1.4957(5) 0.6124(3) -0.12180(19)
O1A O 1.7844(4) 0.3243(2) -0.07924(15)
O3A O 1.8143(4) 0.4574(2) -0.13631(14)
N6A N 1.5994(4) 0.4174(2) 0.01093(16)
O6A O 1.5617(4) 0.5802(2) -0.17464(15)
O8A O 1.4132(4) 0.6933(2) -0.11474(15)
C13A C 0.7937(5) 0.4178(3) 0.59656(18)
C14A C 0.9085(4) 0.4647(3) 0.54935(18)
C15A C 1.0175(4) 0.4548(3) 0.44098(18)
C16A C 1.0101(5) 0.4001(3) 0.37807(19)
N1A N 0.9286(4) 0.4223(2) 0.49065(16)
O22A O 0.7215(4) 0.4638(2) 0.64302(14)
O23A O 0.7754(3) 0.3340(2) 0.58151(15)
O24A O 0.9668(4) 0.3189(2) 0.38648(14)
O25A O 1.0379(4) 0.4397(2) 0.32381(15)
H1A H 0.593(2) 0.3513(8) 0.7308(3)
H2A H 0.7630(7) 0.0931(12) 0.3937(10)
H3A H 0.9466(4) 0.0724(4) 0.3899(5)
C5A C 0.8729(5) 0.0673(3) 0.90989(19)
C6A C 1.0224(4) 0.0895(3) 0.93810(19)
C7A C 1.1784(5) 0.0434(3) 0.92235(18)
C8A C 1.2762(5) 0.1516(3) 0.98406(19)
C9A C 1.1246(5) 0.1962(3) 1.00209(19)
C10A C 1.0810(5) 0.2789(3) 1.0498(2)
C11A C 1.2177(5) -0.0455(3) 0.8811(2)
C12A C 1.4244(4) 0.1875(3) 1.00280(19)
C17A C 0.5073(5) -0.0215(3) 0.6479(2)
C18A C 0.5187(5) 0.0548(3) 0.5936(2)
C19A C 0.6550(5) 0.0946(3) 0.57305(19)
C20A C 0.5043(5) 0.2009(3) 0.50364(19)
C21A C 0.3690(4) 0.1594(3) 0.52567(17)
C22A C 0.2048(5) 0.1956(3) 0.5030(2)
C23A C 0.5035(5) 0.2827(3) 0.45532(19)
C24A C 0.8224(5) 0.0669(3) 0.59437(19)
N2A N 0.6435(4) 0.1665(2) 0.52818(15)
N3A N 0.9994(4) 0.1642(2) 0.97791(17)
N4A N 1.3036(4) 0.0764(2) 0.94439(17)
N5A N 0.3784(4) 0.0863(3) 0.56837(18)
O2A O 0.9767(4) 0.3847(2) 0.73658(16)
H4A H 1.0702(10) 0.3705(12) 0.7039(4)
H5A H 0.9779(19) 0.3229(5) 0.7605(5)
O4A O 0.9065(4) 0.6206(2) 0.80372(16)
H6A H 1.0066(9) 0.6399(14) 0.7860(5)
H7A H 0.8833(15) 0.6563(19) 0.8453(4)
O5A O 0.6052(4) 0.3938(2) 0.76776(15)
H8A H 0.5129(11) 0.3865(16) 0.7979(4)
O7A O 0.6394(5) 0.6527(3) 0.69776(15)
H9A H 0.5429(12) 0.6906(10) 0.7174(5)
H10A H 0.624(2) 0.657(2) 0.6499(3)
O9A O 0.6549(4) -0.1496(2) 0.82582(15)
H11A H 0.5649(10) -0.1269(9) 0.8587(5)
H12A H 0.7142(8) -0.2021(4) 0.8536(3)
O10A O 0.9350(3) 0.3118(2) 1.05729(15)
O11A O 0.9705(4) -0.1624(2) 0.80592(16)
H13A H 1.0437(12) -0.1523(10) 0.8405(4)
H14A H 1.0391(17) -0.2043(7) 0.7745(4)
O12A O 1.1911(4) 0.3049(2) 1.07881(15)
O13A O 0.8046(4) -0.1726(2) 0.69054(14)
H15A H 0.7528(13) -0.2326(5) 0.6928(7)
H16A H 0.818(2) -0.1635(9) 0.6415(3)
O14A O 0.7451(3) 0.1088(2) 0.93615(15)
O15A O 0.5613(4) 0.0550(2) 0.82900(15)
H17A H 0.6125(10) 0.0696(9) 0.8696(4)
H18A H 0.4759(8) 0.0203(7) 0.8465(8)
O16A O 0.8902(4) 0.0107(2) 0.86225(15)
O17A O 0.8562(3) 0.1175(2) 0.40909(15)
O18A O 1.4694(3) 0.2557(2) 0.96959(15)
O19A O 1.5025(4) 0.1443(2) 1.04847(15)
O20A O 1.1699(4) -0.1210(2) 0.90449(14)
O21A O 1.2979(4) -0.0390(2) 0.82837(15)
O26A O 0.5545(4) -0.0039(2) 0.70256(15)
O27A O 0.4424(4) -0.0920(2) 0.63402(17)
O28A O 0.8507(3) -0.0005(2) 0.63636(14)
O29A O 0.7768(4) 0.1395(2) 0.74285(17)
H19A H 0.6823 0.1645 0.7362
H20A H 0.8064 0.1633 0.7773
O30A O 0.9233(4) 0.1135(2) 0.56716(15)
O31A O 1.0608(3) -0.0053(2) 0.73160(13)
H21A H 1.1374(6) -0.0057(6) 0.76528(18)
H22A H 1.1101(12) -0.0519(4) 0.6990(2)
O32A O 0.6382(4) 0.3094(2) 0.44140(15)
O33A O 0.3756(4) 0.3188(2) 0.43316(15)
O34A O 0.1543(4) 0.1595(2) 0.45549(15)
O35A O 0.1239(4) 0.2589(2) 0.54011(15)
Gd1A Gd 0.72496(2) 0.23714(2) 1.01904(2)
Gd2A Gd 0.76833(2) 0.51419(2) 0.75234(2)
Gd3A Gd 0.88101(2) 0.24045(2) 0.48572(2)
Gd4A Gd 0.78844(2) -0.03019(2) 0.75851(2)
O1A_2 O 0.7844(4) 0.3243(2) 0.92076(15)
O3A_2 O 0.8143(4) 0.4574(2) 0.86369(14)
N6A_2 N 0.5994(4) 0.4174(2) 1.01093(16)
O6A_2 O 0.5617(4) 0.5802(2) 0.82536(15)
O8_2 O 0.5868(4) 0.3067(2) 1.11474(15)
O18_2 O 1.5306(3) 0.7443(2) 0.03041(15)
O18A_2 O 0.4694(3) 0.2557(2) 0.96959(15)
O19_2 O 1.4975(4) 0.8557(2) -0.04847(15)
O19A_2 O 0.5025(4) 0.1443(2) 1.04847(15)
O20_2 O 0.8301(4) 0.1210(2) 1.09551(14)
O20A_2 O 1.1699(4) 0.8790(2) -0.09551(14)
O34_2 O 0.8457(4) 0.8405(2) 0.54451(15)
O34A_2 O 1.1543(4) 0.1595(2) 0.45549(15)
O35_2 O 0.8761(4) 0.7411(2) 0.45989(15)
O35A_2 O 1.1239(4) 0.2589(2) 0.54011(15)
Gd1_2 Gd 0.27504(2) 0.76286(2) -0.01904(2)
Gd1_3 Gd 1.27504(2) -0.23714(2) 0.98096(2)
Gd1A_2 Gd 0.72496(2) 1.23714(2) 0.01904(2)
Gd1A_3 Gd 1.72496(2) 0.23714(2) 0.01904(2)
Gd1A_4 Gd 1.72496(2) 0.23714(2) 1.01904(2)
Gd2A_2 Gd 1.76833(2) 0.51419(2) -0.24766(2)
Gd3_2 Gd 2.11899(2) 0.75955(2) 0.51428(2)
Gd3A_2 Gd -0.11899(2) 0.24045(2) 0.48572(2)
O36 O 0.6252(4) 0.6352(3) 0.13969(17)
H23 H 0.6066 0.6663 0.1040
H24 H 0.6885 0.5838 0.1317
O37 O 1.4451(4) 0.7300(2) 0.32630(15)
H25 H 1.3833(8) 0.7106(12) 0.3656(5)
H26 H 1.5567(6) 0.7048(18) 0.3376(9)
O38 O 1.0307(4) 0.7698(2) 0.18386(17)
H27 H 1.0586 0.8155 0.1605
H28 H 0.9425 0.7575 0.1720
O39 O 0.8918(6) 0.8370(3) 0.3171(2)
H29 H 0.8932 0.8919 0.2972
H30 H 0.8140 0.8004 0.3215
O40 O 1.5935(5) 0.2141(3) 0.26057(18)
H31 H 1.5890 0.1725 0.2914
H32 H 1.5766 0.1901 0.2242
O41 O 0.8736(5) 0.5111(3) 0.0913(2)
H33 H 0.8701 0.4525 0.0842
H34 H 0.9402 0.5154 0.1200
O42 O 0.8518(5) 0.3015(3) 0.26061(19)
H35 H 0.7846 0.3421 0.2418
H36 H 0.8427 0.3103 0.3020
O43 O 0.7073(5) 0.7911(3) 0.2084(2)
H37 H 0.6325 0.8341 0.1971
H38 H 0.6850 0.7361 0.2001
O44 O 0.7640(4) 0.6473(2) 0.35597(16)
H39 H 0.7678(14) 0.6817(5) 0.3973(3)
H40 H 0.7306(18) 0.5861(5) 0.3710(8)
O45 O 1.6144(5) 0.4975(3) 0.3886(3)
H41 H 1.5036(8) 0.5146(9) 0.3744(9)
H42 H 1.6222(18) 0.4282(5) 0.3976(10)
loop_
_geom_bond_atom_site_label_1
_geom_bond_atom_site_label_2
_geom_bond_site_symmetry_1
_geom_bond_site_symmetry_2
H1 O5 1_555 1_555
H2 O17 1_555 1_555
H3 O17 1_555 1_555
C1 C2 1_555 1_555
C2 C3 1_555 1_555
C3 C4 1_555 1_555
C4 O6 1_555 1_555
C5 C6 1_555 1_555
C6 C7 1_555 1_555
C7 C11 1_555 1_555
C8 C9 1_555 1_555
C9 C10 1_555 1_555
C10 O10 1_555 1_555
C11 O20 1_555 1_555
C12 C8 1_555 1_555
C13 C14 1_555 1_555
C14 N1 1_555 1_555
C15 C16 1_555 1_555
C16 O24 1_555 1_555
C17 C18 1_555 1_555
C18 C19 1_555 1_555
C19 C24 1_555 1_555
C20 C21 1_555 1_555
C21 C22 1_555 1_555
C22 O34 1_555 1_555
C23 C20 1_555 1_555
C24 O28 1_555 1_555
N1 C15 1_555 1_555
N2 C19 1_555 1_555
N3 C6 1_555 1_555
N4 C7 1_555 1_555
N5 C18 1_555 1_555
O1 C1 1_555 1_555
O2 H4 1_555 1_555
H5 O2 1_555 1_555
O3 C1 1_555 1_555
O4 H6 1_555 1_555
H7 O4 1_555 1_555
N6 C2 1_555 1_555
O5 H8 1_555 1_555
O6 Gd2 1_555 1_555
O7 H9 1_555 1_555
H10 O7 1_555 1_555
O8 C4 1_555 1_555
O9 H11 1_555 1_555
H12 O9 1_555 1_555
O10 Gd1 1_555 1_555
O11 H13 1_555 1_555
H14 O11 1_555 1_555
O12 C10 1_555 1_555
O13 H15 1_555 1_555
H16 O13 1_555 1_555
O14 C5 1_555 1_555
O15 H17 1_555 1_555
H18 O15 1_555 1_555
O16 C5 1_555 1_555
O17 Gd3 1_555 1_555
O18 C12 1_555 1_555
O19 C12 1_555 1_555
O20 Gd1A_2 1_555 1_555
O21 C11 1_555 1_555
O22 C13 1_555 1_555
O23 C13 1_555 1_555
O24 Gd3 1_555 1_555
O25 C16 1_555 1_555
O26 C17 1_555 1_555
O27 C17 1_555 1_555
O28 Gd4 1_555 1_555
O29 H19 1_555 1_555
H20 O29 1_555 1_555
O30 C24 1_555 1_555
O31 H21 1_555 1_555
H22 O31 1_555 1_555
O32 C23 1_555 1_555
O33 C23 1_555 1_555
O34 Gd3_2 1_555 1_555
O35 C22 1_555 1_555
Gd1 N3 1_555 1_555
Gd2 O2 1_555 1_555
Gd3 N1 1_555 1_555
Gd4 O9 1_555 1_555
O36 H23 1_555 1_555
H24 O36 1_555 1_555
O37 H25 1_555 1_555
H26 O37 1_555 1_555
O38 H27 1_555 1_555
H28 O38 1_555 1_555
O39 H29 1_555 1_555
H30 O39 1_555 1_555
O40 H31 1_555 1_555
H32 O40 1_555 1_555
O41 H33 1_555 1_555
H34 O41 1_555 1_555
O42 H35 1_555 1_555
H36 O42 1_555 1_555
O43 H37 1_555 1_555
H38 O43 1_555 1_555
O44 H39 1_555 1_555
H40 O44 1_555 1_555
O45 H41 1_555 1_555
H42 O45 1_555 1_555
C1A C2A 1_555 1_555
C2A C3A 1_555 1_555
C3A N6 1_555 1_555
C4A C3A 1_555 1_555
O1A C1A 1_555 1_555
O3A C1A 1_555 1_555
N6A C3 1_555 1_555
O6A C4A 1_555 1_555
O8A Gd1 1_555 1_555
C13A C14A 1_555 1_555
C14A C15 1_555 1_555
C15A C14 1_555 1_555
C16A C15A 1_555 1_555
N1A C14A 1_555 1_555
O22A C13A 1_555 1_555
O23A C13A 1_555 1_555
O24A C16A 1_555 1_555
O25A Gd2 1_555 1_555
H1A O5A 1_555 1_555
H2A O17A 1_555 1_555
H3A O17A 1_555 1_555
C5A C6A 1_555 1_555
C6A C7A 1_555 1_555
C7A C11A 1_555 1_555
C8A C9A 1_555 1_555
C9A C10A 1_555 1_555
C10A O10A 1_555 1_555
C11A O20A 1_555 1_555
C12A C8A 1_555 1_555
C17A C18A 1_555 1_555
C18A C19A 1_555 1_555
C19A C24A 1_555 1_555
C20A C21A 1_555 1_555
C21A C22A 1_555 1_555
C22A O34A 1_555 1_555
C23A C20A 1_555 1_555
C24A O28A 1_555 1_555
N2A C19A 1_555 1_555
N3A C6A 1_555 1_555
N4A C7A 1_555 1_555
N5A C18A 1_555 1_555
O2A H4A 1_555 1_555
H5A O2A 1_555 1_555
O4A H6A 1_555 1_555
H7A O4A 1_555 1_555
O5A H8A 1_555 1_555
O7A H9A 1_555 1_555
H10A O7A 1_555 1_555
O9A H11A 1_555 1_555
H12A O9A 1_555 1_555
O10A Gd1A 1_555 1_555
O11A H13A 1_555 1_555
H14A O11A 1_555 1_555
O12A C10A 1_555 1_555
O13A H15A 1_555 1_555
H16A O13A 1_555 1_555
O14A C5A 1_555 1_555
O15A H17A 1_555 1_555
H18A O15A 1_555 1_555
O16A C5A 1_555 1_555
O17A Gd3A 1_555 1_555
O18A C12A 1_555 1_555
O19A C12A 1_555 1_555
O20A Gd1_3 1_555 1_555
O21A C11A 1_555 1_555
O26A C17A 1_555 1_555
O27A C17A 1_555 1_555
O28A Gd4A 1_555 1_555
O29A H19A 1_555 1_555
H20A O29A 1_555 1_555
O30A C24A 1_555 1_555
O31A H21A 1_555 1_555
H22A O31A 1_555 1_555
O32A C23A 1_555 1_555
O33A C23A 1_555 1_555
O34A Gd3A_2 1_555 1_555
O35A C22A 1_555 1_555
Gd1A N3A 1_555 1_555
Gd2A O25 1_555 1_555
Gd3A N1A 1_555 1_555
Gd4A O9A 1_555 1_555
O1A_2 Gd1A 1_555 1_555
O3A_2 Gd2A 1_555 1_555
N6A_2 Gd1A 1_555 1_555
O6A_2 Gd2A 1_555 1_555
O8_2 Gd1A 1_555 1_555
O18_2 Gd1 1_555 1_555
O18A_2 Gd1A 1_555 1_555
O19_2 Gd1 1_555 1_555
O19A_2 Gd1A 1_555 1_555
O20_2 Gd1A 1_555 1_555
O20A_2 Gd1 1_555 1_555
O34_2 Gd3 1_555 1_555
O34A_2 Gd3A 1_555 1_555
O35_2 Gd3 1_555 1_555
O35A_2 Gd3A 1_555 1_555
Gd1_2 O18 1_555 1_555
Gd1A_3 O8 1_555 1_555
Gd1A_4 O18A 1_555 1_555
Gd2A_2 O3A 1_555 1_555
Gd3_2 O35 1_555 1_555
Gd3A_2 O35A 1_555 1_555
C8 N4 1_555 1_555
C9 N3 1_555 1_555
C20 N2 1_555 1_555
C21 N5 1_555 1_555
N2 Gd3 1_555 1_555
O1 Gd1 1_555 1_555
O3 Gd2 1_555 1_555
O4 Gd2 1_555 1_555
N6 Gd1 1_555 1_555
O5 Gd2 1_555 1_555
O7 Gd2 1_555 1_555
O11 Gd4 1_555 1_555
O13 Gd4 1_555 1_555
O14 Gd1 1_555 1_555
O15 Gd4 1_555 1_555
O16 Gd4 1_555 1_555
O19 Gd1_2 1_555 1_555
O22 Gd2 1_555 1_555
O23 Gd3 1_555 1_555
O26 Gd4 1_555 1_555
O29 Gd4 1_555 1_555
O30 Gd3 1_555 1_555
O31 Gd4 1_555 1_555
O32 Gd3 1_555 1_555
C2A N6A 1_555 1_555
C4A O8A 1_555 1_555
O1A Gd1A_3 1_555 1_555
N6A Gd1A_3 1_555 1_555
O6A Gd2A_2 1_555 1_555
C15A N1A 1_555 1_555
C16A O25A 1_555 1_555
O22A Gd2A 1_555 1_555
O23A Gd3A 1_555 1_555
O24A Gd3A 1_555 1_555
C8A N4A 1_555 1_555
C9A N3A 1_555 1_555
C20A N2A 1_555 1_555
C21A N5A 1_555 1_555
N2A Gd3A 1_555 1_555
O2A Gd2A 1_555 1_555
O4A Gd2A 1_555 1_555
O5A Gd2A 1_555 1_555
O7A Gd2A 1_555 1_555
O11A Gd4A 1_555 1_555
O13A Gd4A 1_555 1_555
O14A Gd1A 1_555 1_555
O15A Gd4A 1_555 1_555
O16A Gd4A 1_555 1_555
O19A Gd1A_4 1_555 1_555
O26A Gd4A 1_555 1_555
O29A Gd4A 1_555 1_555
O30A Gd3A 1_555 1_555
O31A Gd4A 1_555 1_555
O32A Gd3A 1_555 1_555

#END
