
#######################################################################
#
#                 Cambridge Crystallographic Data Centre
#                                CCDC 
#
#######################################################################
#
# If this CIF has been generated from an entry in the Cambridge 
# Structural Database, then it will include bibliographic, chemical, 
# crystal, experimental, refinement or atomic coordinate data resulting 
# from the CCDC's data processing and validation procedures.
#
#######################################################################

data_MUHPOV
_symmetry_cell_setting           orthorhombic
_symmetry_space_group_name_H-M   'P n a 21'
_symmetry_Int_Tables_number      33
_space_group_name_Hall           'P 2c -2n'
loop_
_symmetry_equiv_pos_site_id
_symmetry_equiv_pos_as_xyz
1 x,y,z
2 -x,-y,1/2+z
3 1/2+x,1/2-y,z
4 1/2-x,1/2+y,1/2+z
_cell_length_a                   12.4143(13)
_cell_length_b                   7.7166(8)
_cell_length_c                   18.327(2)
_cell_angle_alpha                90
_cell_angle_beta                 90
_cell_angle_gamma                90
_cell_volume                     1755.66
loop_
_atom_site_label
_atom_site_type_symbol
_atom_site_fract_x
_atom_site_fract_y
_atom_site_fract_z
In1 In 0.43362(4) 0.71118(5) 0.30351(2)
In2 In 0.62305(4) 0.28402(5) 0.45164(2)
P1 P 0.36540(16) 0.3706(2) 0.40590(10)
H1 H 0.382(11) 0.220(14) 0.366(8)
P2 P 0.19191(15) 0.8717(2) 0.35007(10)
H2 H 0.171(11) 0.729(9) 0.384(6)
P3 P 0.44711(17) 0.7486(2) 0.12234(10)
H3 H 0.541(5) 0.703(13) 0.098(7)
O1 O 0.3515(4) 0.4962(6) 0.3423(3)
O2 O 0.2903(4) 0.8647(6) 0.2999(3)
O3 O 0.4633(4) 0.8141(6) 0.4128(3)
O4 O 0.5180(4) 0.9602(6) 0.2836(2)
O5 O 0.0910(4) 0.9036(6) 0.3058(3)
O6 O 0.4263(4) 0.6499(7) 0.1928(3)
O7 O 0.4679(4) 0.4028(6) 0.4487(3)
O8 O 0.3692(4) 0.6821(7) 0.0640(3)
O9 O 0.2668(4) 0.3678(6) 0.4544(3)
O10 O 0.2053(4) 0.9979(6) 0.4131(3)
O11 O 0.5366(4) 1.0356(6) 0.4710(2)
O12 O 0.5924(4) 1.1812(6) 0.3416(3)
O13 O 0.4486(4) 0.9441(5) 0.1313(3)
C1 C 0.5109(6) 0.9564(9) 0.4147(4)
C2 C 0.5425(6) 1.0389(8) 0.3400(4)
In1B In -0.06638(4) 0.78882(5) 0.30351(2)
In2A In 0.37695(4) 0.71598(5) -0.04836(2)
In2B In 0.12305(4) 0.21598(5) 0.45164(2)
In2B_2 In 0.12305(4) 1.21598(5) 0.45164(2)
In2_2 In 0.62305(4) 1.28402(5) 0.45164(2)
O5B O 0.5910(4) 0.5964(6) 0.3058(3)
O8A O 0.6308(4) 0.3179(7) 0.5640(3)
O9B O 0.7668(4) 0.1322(6) 0.4544(3)
O10B O 0.7053(4) 0.5021(6) 0.4131(3)
O11_2 O 0.5366(4) 0.0356(6) 0.4710(2)
O12_2 O 0.5924(4) 0.1812(6) 0.3416(3)
N1 N 0.3716(5) -0.1442(8) 0.6328(4)
H4 H 0.4291 -0.0712 0.6346
N2 N 0.2134(6) -0.3457(7) 0.6280(4)
H5 H 0.1557 -0.4184 0.6267
C3 C 0.4061(8) -0.3256(11) 0.6528(6)
H6 H 0.4246 -0.3309 0.7042
H7 H 0.4690 -0.3585 0.6246
C4 C 0.3132(8) -0.4491(9) 0.6366(6)
H8 H 0.3278 -0.5134 0.5922
H9 H 0.3048 -0.5311 0.6763
C5 C 0.3235(8) -0.1437(12) 0.5581(5)
H10 H 0.3723 -0.1985 0.5238
H11 H 0.3109 -0.0256 0.5421
C6 C 0.2164(8) -0.2438(11) 0.5608(5)
H12 H 0.1564 -0.1633 0.5598
H13 H 0.2105 -0.3197 0.5188
C7 C 0.2873(7) -0.0866(11) 0.6856(5)
H14 H 0.2545 0.0200 0.6685
H15 H 0.3198 -0.0644 0.7328
C8 C 0.2027(8) -0.2257(10) 0.6926(5)
H16 H 0.1315 -0.1740 0.6934
H17 H 0.2130 -0.2897 0.7376
loop_
_geom_bond_atom_site_label_1
_geom_bond_atom_site_label_2
_geom_bond_site_symmetry_1
_geom_bond_site_symmetry_2
In1 O1 1_555 1_555
In2 O7 1_555 1_555
P1 H1 1_555 1_555
P2 H2 1_555 1_555
P3 H3 1_555 1_555
O1 P1 1_555 1_555
O2 In1 1_555 1_555
O3 In1 1_555 1_555
O4 In1 1_555 1_555
O5 P2 1_555 1_555
O6 In1 1_555 1_555
O7 P1 1_555 1_555
O8 P3 1_555 1_555
O9 P1 1_555 1_555
O10 P2 1_555 1_555
O11 C1 1_555 1_555
O12 C2 1_555 1_555
O13 P3 1_555 1_555
N1 H4 1_555 1_555
N2 H5 1_555 1_555
C1 O3 1_555 1_555
C2 O4 1_555 1_555
C3 N1 1_555 1_555
H6 C3 1_555 1_555
H7 C3 1_555 1_555
C4 N2 1_555 1_555
H8 C4 1_555 1_555
H9 C4 1_555 1_555
C5 N1 1_555 1_555
H10 C5 1_555 1_555
H11 C5 1_555 1_555
C6 N2 1_555 1_555
H12 C6 1_555 1_555
H13 C6 1_555 1_555
C7 N1 1_555 1_555
H14 C7 1_555 1_555
H15 C7 1_555 1_555
C8 N2 1_555 1_555
H16 C8 1_555 1_555
H17 C8 1_555 1_555
In1B O5 1_555 1_555
In2A O8 1_555 1_555
In2B O9 1_555 1_555
In2B_2 O10 1_555 1_555
In2_2 O11 1_555 1_555
O5B In1 1_555 1_555
O8A In2 1_555 1_555
O9B In2 1_555 1_555
O10B In2 1_555 1_555
O11_2 In2 1_555 1_555
O12_2 In2 1_555 1_555
P2 O2 1_555 1_555
P3 O6 1_555 1_555
O12 In2_2 1_555 1_555
C1 C2 1_555 1_555
C3 C4 1_555 1_555
C5 C6 1_555 1_555
C7 C8 1_555 1_555

#END
