
#######################################################################
#
#                 Cambridge Crystallographic Data Centre
#                                CCDC 
#
#######################################################################
#
# If this CIF has been generated from an entry in the Cambridge 
# Structural Database, then it will include bibliographic, chemical, 
# crystal, experimental, refinement or atomic coordinate data resulting 
# from the CCDC's data processing and validation procedures.
#
#######################################################################

data_MUHPAI
_symmetry_cell_setting           orthorhombic
_symmetry_space_group_name_H-M   'P n a m'
_symmetry_Int_Tables_number      62
_space_group_name_Hall           '-P 2c 2n'
loop_
_symmetry_equiv_pos_site_id
_symmetry_equiv_pos_as_xyz
1 x,y,z
2 -x,-y,1/2+z
3 1/2+x,1/2-y,1/2-z
4 1/2-x,1/2+y,-z
5 -x,-y,-z
6 x,y,1/2-z
7 1/2-x,1/2+y,1/2+z
8 1/2+x,1/2-y,z
_cell_length_a                   11.406(5)
_cell_length_b                   14.981(7)
_cell_length_c                   16.867(8)
_cell_angle_alpha                90
_cell_angle_beta                 90
_cell_angle_gamma                90
_cell_volume                     2882.12
loop_
_atom_site_label
_atom_site_type_symbol
_atom_site_fract_x
_atom_site_fract_y
_atom_site_fract_z
I1 I 0.50293(3) 0.62500(3) 0.7500
Cu1 Cu 0.31122(6) 0.51716(5) 0.7500
Cu2 Cu 0.43060(6) 0.81664(5) 0.7500
N1 N 0.3403(3) 0.4432(2) 0.64912(19)
N2 N 0.4508(3) 0.4323(3) 0.61869(19)
H1 H 0.5134 0.4497 0.6425
N3 N 0.1792(3) 0.3083(2) 0.34588(19)
N4 N 0.2402(3) 0.2339(2) 0.36515(19)
H2 H 0.2373 0.1852 0.3382
N5 N 0.1590(4) 0.5788(3) 0.7500
C1 C 0.1399(3) 0.3997(3) 0.6101(3)
H3 H 0.1262 0.3928 0.6659
H4 H 0.1088 0.3490 0.5823
H5 H 0.1021 0.4530 0.5917
C2 C 0.2698(3) 0.4062(3) 0.5951(2)
C3 C 0.3339(3) 0.3730(3) 0.5299(2)
C4 C 0.4513(4) 0.3910(3) 0.5470(2)
C5 C 0.5611(4) 0.3719(3) 0.5023(3)
H6 H 0.6135 0.4218 0.5068
H7 H 0.5426 0.3619 0.4475
H8 H 0.5979 0.3196 0.5238
C6 C 0.3813(4) 0.1708(3) 0.4626(3)
H9 H 0.3447 0.1142 0.4525
H10 H 0.3911 0.1786 0.5187
H11 H 0.4565 0.1725 0.4371
C7 C 0.3056(3) 0.2440(3) 0.4306(2)
C8 C 0.2859(3) 0.3298(3) 0.4574(2)
C9 C 0.2075(3) 0.3683(3) 0.4013(2)
C10 C 0.1627(4) 0.4616(3) 0.3976(3)
H12 H 0.2252 0.5010 0.3825
H13 H 0.1332 0.4787 0.4487
H14 H 0.1008 0.4651 0.3592
C11 C 0.0718(5) 0.6138(4) 0.7500
N1E N 0.3403(3) 0.4432(2) 0.85088(19)
N2E N 0.4508(3) 0.4323(3) 0.88131(19)
H1E H 0.5134 0.4497 0.8575
N3E N 0.1792(3) 0.3083(2) 1.15412(19)
N4E N 0.2402(3) 0.2339(2) 1.13485(19)
H2E H 0.2373 0.1852 1.1618
C1E C 0.1399(3) 0.3997(3) 0.8899(3)
H3E H 0.1262 0.3928 0.8341
H4E H 0.1088 0.3490 0.9177
H5E H 0.1021 0.4530 0.9083
C2E C 0.2698(3) 0.4062(3) 0.9049(2)
C3E C 0.3339(3) 0.3730(3) 0.9701(2)
C4E C 0.4513(4) 0.3910(3) 0.9530(2)
C5E C 0.5611(4) 0.3719(3) 0.9977(3)
H6E H 0.6135 0.4218 0.9932
H7E H 0.5426 0.3619 1.0525
H8E H 0.5979 0.3196 0.9762
C6E C 0.3813(4) 0.1708(3) 1.0374(3)
H9E H 0.3447 0.1142 1.0475
H10E H 0.3911 0.1786 0.9813
H11E H 0.4565 0.1725 1.0629
C7E C 0.3056(3) 0.2440(3) 1.0694(2)
C8E C 0.2859(3) 0.3298(3) 1.0426(2)
C9E C 0.2075(3) 0.3683(3) 1.0987(2)
C10E C 0.1627(4) 0.4616(3) 1.1024(3)
H12E H 0.2252 0.5010 1.1175
H13E H 0.1332 0.4787 1.0513
H14E H 0.1008 0.4651 1.1408
Cu2B Cu -0.06940(6) 0.68336(5) 0.7500
Cu2C Cu 0.06940(6) 0.31664(5) 0.2500
Cu2C_2 Cu 0.06940(6) 0.31664(5) 1.2500
N3C N 0.3208(3) 0.8083(2) 0.65412(19)
N3F N 0.3208(3) 0.8083(2) 0.84588(19)
C11B C 0.5718(5) 0.8862(4) 0.7500
N6 N 0.6719(10) 0.3332(11) 0.7500
C12 C 0.7579(18) 0.3154(13) 0.7500
C13 C 0.8856(14) 0.2728(9) 0.7500
H15? H 0.9133 0.2677 0.6964
H16? H 0.9378 0.3103 0.7797
H17? H 0.8828 0.2146 0.7738
loop_
_geom_bond_atom_site_label_1
_geom_bond_atom_site_label_2
_geom_bond_site_symmetry_1
_geom_bond_site_symmetry_2
I1 Cu1 1_555 1_555
Cu1 N1 1_555 1_555
Cu2 I1 1_555 1_555
N1 N2 1_555 1_555
N2 H1 1_555 1_555
N3 N4 1_555 1_555
N4 H2 1_555 1_555
N5 Cu1 1_555 1_555
C1 H3 1_555 1_555
H4 C1 1_555 1_555
H5 C1 1_555 1_555
C2 N1 1_555 1_555
C3 C2 1_555 1_555
C4 N2 1_555 1_555
C5 C4 1_555 1_555
H6 C5 1_555 1_555
H7 C5 1_555 1_555
H8 C5 1_555 1_555
C6 H9 1_555 1_555
H10 C6 1_555 1_555
H11 C6 1_555 1_555
C7 N4 1_555 1_555
C8 C3 1_555 1_555
C9 N3 1_555 1_555
C10 C9 1_555 1_555
H12 C10 1_555 1_555
H13 C10 1_555 1_555
H14 C10 1_555 1_555
C11 N5 1_555 1_555
N6 C12 1_555 1_555
C12 C13 1_555 1_555
N1E Cu1 1_555 1_555
N2E N1E 1_555 1_555
H1E N2E 1_555 1_555
N3E N4E 1_555 1_555
N4E H2E 1_555 1_555
C1E H3E 1_555 1_555
H4E C1E 1_555 1_555
H5E C1E 1_555 1_555
C2E N1E 1_555 1_555
C3E C2E 1_555 1_555
C4E N2E 1_555 1_555
C5E C4E 1_555 1_555
H6E C5E 1_555 1_555
H7E C5E 1_555 1_555
H8E C5E 1_555 1_555
C6E H9E 1_555 1_555
H10E C6E 1_555 1_555
H11E C6E 1_555 1_555
C7E N4E 1_555 1_555
C8E C3E 1_555 1_555
C9E N3E 1_555 1_555
C10E C9E 1_555 1_555
H12E C10E 1_555 1_555
H13E C10E 1_555 1_555
H14E C10E 1_555 1_555
Cu2B C11 1_555 1_555
Cu2C N3 1_555 1_555
Cu2C_2 N3E 1_555 1_555
N3C Cu2 1_555 1_555
N3F Cu2 1_555 1_555
C11B Cu2 1_555 1_555
C1 C2 1_555 1_555
C3 C4 1_555 1_555
C6 C7 1_555 1_555
C7 C8 1_555 1_555
C8 C9 1_555 1_555
C1E C2E 1_555 1_555
C3E C4E 1_555 1_555
C6E C7E 1_555 1_555
C7E C8E 1_555 1_555
C8E C9E 1_555 1_555

#END
