
#######################################################################
#
#                 Cambridge Crystallographic Data Centre
#                                CCDC 
#
#######################################################################
#
# If this CIF has been generated from an entry in the Cambridge 
# Structural Database, then it will include bibliographic, chemical, 
# crystal, experimental, refinement or atomic coordinate data resulting 
# from the CCDC's data processing and validation procedures.
#
#######################################################################

data_MUKDON
_symmetry_cell_setting           monoclinic
_symmetry_space_group_name_H-M   'P 21/c'
_symmetry_Int_Tables_number      14
_space_group_name_Hall           '-P 2ybc'
loop_
_symmetry_equiv_pos_site_id
_symmetry_equiv_pos_as_xyz
1 x,y,z
2 -x,1/2+y,1/2-z
3 -x,-y,-z
4 x,1/2-y,1/2+z
_cell_length_a                   6.574(9)
_cell_length_b                   8.561(12)
_cell_length_c                   14.775(19)
_cell_angle_alpha                90
_cell_angle_beta                 112.60(5)
_cell_angle_gamma                90
_cell_volume                     767.684
loop_
_atom_site_label
_atom_site_type_symbol
_atom_site_fract_x
_atom_site_fract_y
_atom_site_fract_z
Tb1 Tb 0.33332(7) 0.76005(4) 0.08746(3)
S1 S -0.2590(4) 0.8360(2) -0.02349(16)
O1 O -0.2943(13) 0.8114(9) -0.1261(5)
O2 O 0.2180(10) 0.5541(7) 0.1724(4)
O3 O 0.6065(11) 0.5553(8) 0.1569(5)
O4 O -0.0481(13) 0.7635(7) 0.0415(6)
O5 O -0.4392(12) 0.7630(7) -0.0020(6)
O6 O 0.3449(10) 0.3923(7) 0.3007(5)
O7 O -0.2492(11) 1.0049(7) -0.0022(5)
O8 O 0.7319(11) 0.3755(8) 0.2750(5)
C1 C 0.3649(15) 0.4692(10) 0.2317(6)
C2 C 0.5857(15) 0.4651(10) 0.2206(7)
O9 O 0.1796(11) 0.5909(8) -0.0520(5)
H1 H 0.1942 0.6329 -0.1013
H2 H 0.2471 0.5040 -0.0396
Tb1_2 Tb -0.66668(7) 0.76005(4) 0.08746(3)
Tb1A Tb 0.66668(7) 0.26005(4) 0.41254(3)
Tb1B Tb -0.33332(7) 1.23995(4) -0.08746(3)
O5_2 O 0.5608(12) 0.7630(7) -0.0020(6)
O6A O 0.6551(10) 0.8923(7) 0.1993(5)
O7B O 0.2492(11) 0.9951(7) 0.0022(5)
O8A O 0.2681(11) 0.8755(8) 0.2250(5)
K1 K 0.0325(4) 0.6560(3) 0.30141(18)
loop_
_geom_bond_atom_site_label_1
_geom_bond_atom_site_label_2
_geom_bond_site_symmetry_1
_geom_bond_site_symmetry_2
Tb1 O2 1_555 1_555
S1 O1 1_555 1_555
O2 C1 1_555 1_555
O3 Tb1 1_555 1_555
O4 Tb1 1_555 1_555
O5 S1 1_555 1_555
O6 C1 1_555 1_555
O7 S1 1_555 1_555
O8 C2 1_555 1_555
C1 C2 1_555 1_555
C2 O3 1_555 1_555
O9 Tb1 1_555 1_555
H1 O9 1_555 1_555
H2 O9 1_555 1_555
Tb1_2 O5 1_555 1_555
Tb1A O6 1_555 1_555
Tb1B O7 1_555 1_555
O5_2 Tb1 1_555 1_555
O6A Tb1 1_555 1_555
O7B Tb1 1_555 1_555
O8A Tb1 1_555 1_555
S1 O4 1_555 1_555
O8 Tb1A 1_555 1_555

#END
