
#######################################################################
#
#                 Cambridge Crystallographic Data Centre
#                                CCDC 
#
#######################################################################
#
# If this CIF has been generated from an entry in the Cambridge 
# Structural Database, then it will include bibliographic, chemical, 
# crystal, experimental, refinement or atomic coordinate data resulting 
# from the CCDC's data processing and validation procedures.
#
#######################################################################

data_MULQOA
_symmetry_cell_setting           monoclinic
_symmetry_space_group_name_H-M   'P 21/n'
_symmetry_Int_Tables_number      14
_space_group_name_Hall           '-P 2yn'
loop_
_symmetry_equiv_pos_site_id
_symmetry_equiv_pos_as_xyz
1 x,y,z
2 1/2-x,1/2+y,1/2-z
3 -x,-y,-z
4 1/2+x,1/2-y,1/2+z
_cell_length_a                   11.7437(2)
_cell_length_b                   18.9251(3)
_cell_length_c                   13.0101(4)
_cell_angle_alpha                90
_cell_angle_beta                 112.316(3)
_cell_angle_gamma                90
_cell_volume                     2674.94
loop_
_atom_site_label
_atom_site_type_symbol
_atom_site_fract_x
_atom_site_fract_y
_atom_site_fract_z
O1 O 0.089(3) 0.2047(7) 0.3633(16)
H1 H 0.0560 0.2491 0.3508
H2 H 0.1575 0.1979 0.4165
O2 O 0.8249(9) 0.1438(6) 0.1923(13)
H3 H 0.7597 0.1686 0.1774
H4 H 0.8465 0.1244 0.1445
Zn1 Zn 0.82390(8) 0.37185(5) 0.34921(9)
Zn2 Zn 0.33880(9) 0.41437(6) 0.37745(11)
O3 O 0.6800(4) 0.4338(3) 0.3474(5)
O4 O 0.5138(4) 0.4587(3) 0.3816(5)
O5 O 0.6146(5) 0.2223(3) 0.1394(5)
O6 O 0.3947(6) 0.4159(3) 0.5401(6)
C1 C 0.9074(6) 0.5285(4) 0.3687(6)
H5 H 0.8393 0.5479 0.3783
C2 C 0.5764(6) 0.4180(4) 0.3467(7)
O7 O 0.7234(5) 0.3182(3) 0.2105(5)
O8 O 0.8442(6) 0.3069(4) 0.4694(7)
H6 H 0.7632 0.2946 0.4661
H7 H 0.8782 0.2636 0.4521
O9 O 0.9911(5) 0.3330(4) 0.3264(8)
N1 N 0.9219(5) 0.4603(3) 0.3583(5)
N2 N 0.4099(5) 0.3358(3) 0.3170(6)
C3 C 0.3726(6) 0.2727(4) 0.2714(7)
H8 H 0.3025 0.2498 0.2712
C4 C 0.5409(6) 0.2944(4) 0.2469(7)
N3 N 0.4477(5) 0.2463(3) 0.2261(6)
C5 C 0.6332(6) 0.2776(4) 0.1968(7)
C6 C 0.5168(6) 0.3500(4) 0.3031(6)
C7 C 1.0821(6) 0.5191(4) 0.3517(6)
N4 N 1.0013(5) 0.5670(3) 0.3642(6)
C8 C 1.0708(7) 0.3797(5) 0.3353(9)
C9 C 1.0343(6) 0.4521(4) 0.3490(7)
Zn3 Zn 0.44398(9) 0.16821(6) 0.12111(11)
O10 O 1.1733(5) 0.3648(3) 0.3323(7)
O11 O 1.2746(5) 0.5094(3) 0.3261(5)
C10 C 1.1949(7) 0.5492(5) 0.3397(8)
O12 O 1.2026(6) 0.6157(4) 0.3423(8)
H9 H 0.368(10) 0.446(5) 0.573(5)
H10 H 0.447(2) 0.3867(13) 0.578(2)
Zn2_2 Zn 1.33880(9) 0.41437(6) 0.37745(11)
O8C O 0.3442(6) 0.1931(4) -0.0306(7)
H6C H 0.2632 0.2054 -0.0339
H7C H 0.3782 0.2364 -0.0479
N4A N 0.4987(5) 0.0670(3) 0.1358(6)
Zn3C Zn 0.94398(9) 0.33179(6) 0.62111(11)
Zn3A Zn 1.05602(9) 0.66821(6) 0.37889(11)
O10_2 O 0.1733(5) 0.3648(3) 0.3323(7)
O11_2 O 0.2746(5) 0.5094(3) 0.3261(5)
O12A O 0.2974(6) 0.1157(4) 0.1577(8)
O13 O 0.5869(10) 0.3250(6) 0.6214(13)
H11 H 0.5911 0.3457 0.6793
H12 H 0.6362 0.3395 0.5905
O14 O 0.813(3) 0.3250(15) 0.042(2)
O15 O 0.575(4) 0.1849(12) 0.573(3)
loop_
_geom_bond_atom_site_label_1
_geom_bond_atom_site_label_2
_geom_bond_site_symmetry_1
_geom_bond_site_symmetry_2
O1 H1 1_555 1_555
H2 O1 1_555 1_555
O2 H3 1_555 1_555
H4 O2 1_555 1_555
Zn1 O3 1_555 1_555
Zn2 O4 1_555 1_555
O3 C2 1_555 1_555
O4 C2 1_555 1_555
O5 C5 1_555 1_555
O6 Zn2 1_555 1_555
C1 H5 1_555 1_555
C2 C6 1_555 1_555
O7 Zn1 1_555 1_555
O8 Zn1 1_555 1_555
H6 O8 1_555 1_555
H7 O8 1_555 1_555
O9 Zn1 1_555 1_555
N1 Zn1 1_555 1_555
N2 Zn2 1_555 1_555
C3 N2 1_555 1_555
H8 C3 1_555 1_555
C4 N3 1_555 1_555
N3 C3 1_555 1_555
C5 O7 1_555 1_555
C6 N2 1_555 1_555
C7 N4 1_555 1_555
N4 C1 1_555 1_555
C8 O9 1_555 1_555
C9 N1 1_555 1_555
Zn3 O5 1_555 1_555
O10 C8 1_555 1_555
O11 C10 1_555 1_555
C10 C7 1_555 1_555
O12 C10 1_555 1_555
H9 O6 1_555 1_555
H10 O6 1_555 1_555
O13 H11 1_555 1_555
H12 O13 1_555 1_555
Zn2_2 O10 1_555 1_555
O8C Zn3 1_555 1_555
H6C O8C 1_555 1_555
H7C O8C 1_555 1_555
N4A Zn3 1_555 1_555
Zn3C O8 1_555 1_555
Zn3A N4 1_555 1_555
O10_2 Zn2 1_555 1_555
O11_2 Zn2 1_555 1_555
O12A Zn3 1_555 1_555
C1 N1 1_555 1_555
C4 C5 1_555 1_555
C4 C6 1_555 1_555
N3 Zn3 1_555 1_555
C7 C9 1_555 1_555
C8 C9 1_555 1_555
O11 Zn2_2 1_555 1_555
O12 Zn3A 1_555 1_555

#END
