
#######################################################################
#
#                 Cambridge Crystallographic Data Centre
#                                CCDC 
#
#######################################################################
#
# If this CIF has been generated from an entry in the Cambridge 
# Structural Database, then it will include bibliographic, chemical, 
# crystal, experimental, refinement or atomic coordinate data resulting 
# from the CCDC's data processing and validation procedures.
#
#######################################################################

data_MUMYAW
_symmetry_cell_setting           rhombohedral
_symmetry_space_group_name_H-M   'R -3'
_symmetry_Int_Tables_number      148
_space_group_name_Hall           '-R 3'
loop_
_symmetry_equiv_pos_site_id
_symmetry_equiv_pos_as_xyz
1 x,y,z
2 -y,x-y,z
3 -x+y,-x,z
4 2/3+x,1/3+y,1/3+z
5 2/3-y,1/3+x-y,1/3+z
6 2/3-x+y,1/3-x,1/3+z
7 1/3+x,2/3+y,2/3+z
8 1/3-y,2/3+x-y,2/3+z
9 1/3-x+y,2/3-x,2/3+z
10 -x,-y,-z
11 y,-x+y,-z
12 x-y,x,-z
13 1/3-x,2/3-y,2/3-z
14 1/3+y,2/3-x+y,2/3-z
15 1/3+x-y,2/3+x,2/3-z
16 2/3-x,1/3-y,1/3-z
17 2/3+y,1/3-x+y,1/3-z
18 2/3+x-y,1/3+x,1/3-z
_cell_length_a                   32.8171(5)
_cell_length_b                   32.8171(5)
_cell_length_c                   9.2305(2)
_cell_angle_alpha                90
_cell_angle_beta                 90
_cell_angle_gamma                120
_cell_volume                     8609.07
loop_
_atom_site_label
_atom_site_type_symbol
_atom_site_fract_x
_atom_site_fract_y
_atom_site_fract_z
Co1 Co 0.5000 0.0000 0.0000
N1 N 0.53592(7) 0.00274(7) 0.1778(2)
N2 N 0.49861(7) 0.05665(7) 0.0706(2)
N3 N 0.62304(8) -0.13580(11) 0.2357(2)
N4 N 0.6203(2) 0.2081(2) 0.9098(6)
C1 C 0.55666(9) -0.02415(10) 0.2045(3)
C2 C 0.58491(11) -0.00793(12) 0.3338(3)
H1 H 0.6021 -0.0205 0.3746
C3 C 0.58174(11) 0.02854(11) 0.3843(3)
H2 H 0.5963 0.0461 0.4668
C4 C 0.55154(9) 0.03551(9) 0.2873(3)
C5 C 0.54199(9) 0.07258(9) 0.3000(3)
C6 C 0.51674(9) 0.08146(9) 0.1969(3)
C7 C 0.50431(11) 0.11746(11) 0.2108(3)
H3 H 0.5128 0.1391 0.2860
C8 C 0.47805(11) 0.11407(11) 0.0949(3)
H4 H 0.4648 0.1327 0.0750
C9 C 0.47433(9) 0.07624(9) 0.0079(3)
C10 C 0.55189(9) -0.06093(10) 0.1187(3)
C11 C 0.57742(10) -0.08625(10) 0.1633(3)
C12 C 0.55943(11) -0.12090(11) 0.2675(3)
H5 H 0.5316 -0.1283 0.3154
C13 C 0.58323(11) -0.14455(15) 0.2998(3)
H6 H 0.5707 -0.1679 0.3704
C14 C 0.61877(11) -0.07681(11) 0.0968(3)
H7 H 0.6322 -0.0536 0.0262
C15 C 0.64017(11) -0.10221(15) 0.1361(3)
H8 H 0.6681 -0.0955 0.0902
C16 C 0.55952(10) 0.10328(10) 0.4305(3)
C17 C 0.54166(11) 0.08532(11) 0.5657(3)
H9 H 0.5189 0.0538 0.5748
C18 C 0.55703(13) 0.11334(14) 0.6878(4)
H10 H 0.5444 0.1008 0.7780
C19 C 0.59131(14) 0.16010(14) 0.6752(4)
C20 C 0.60938(14) 0.17867(13) 0.5418(5)
H11 H 0.6323 0.2102 0.5335
C21 C 0.59361(12) 0.15059(11) 0.4192(4)
H12 H 0.6059 0.1634 0.3289
C22 C 0.6079(2) 0.18783(18) 0.8055(6)
N1I N 0.46408(7) -0.00274(7) -0.1778(2)
N2I N 0.50139(7) -0.05665(7) -0.0706(2)
N4I N 0.3797(2) -0.2081(2) -0.9098(6)
C1I C 0.44334(9) 0.02415(10) -0.2045(3)
C2I C 0.41509(11) 0.00793(12) -0.3338(3)
H1I H 0.3979 0.0205 -0.3746
C3I C 0.41826(11) -0.02854(11) -0.3843(3)
H2I H 0.4037 -0.0461 -0.4668
C4I C 0.44846(9) -0.03551(9) -0.2873(3)
C5I C 0.45801(9) -0.07258(9) -0.3000(3)
C6I C 0.48326(9) -0.08146(9) -0.1969(3)
C7I C 0.49569(11) -0.11746(11) -0.2108(3)
H3I H 0.4872 -0.1391 -0.2860
C8I C 0.52195(11) -0.11407(11) -0.0949(3)
H4I H 0.5352 -0.1327 -0.0750
C9I C 0.52567(9) -0.07624(9) -0.0079(3)
C10I C 0.44811(9) 0.06093(10) -0.1187(3)
C11I C 0.42258(10) 0.08625(10) -0.1633(3)
C12I C 0.44057(11) 0.12090(11) -0.2675(3)
H5I H 0.4684 0.1283 -0.3154
C14I C 0.38123(11) 0.07681(11) -0.0968(3)
H7I H 0.3678 0.0536 -0.0262
C16I C 0.44048(10) -0.10328(10) -0.4305(3)
C17I C 0.45834(11) -0.08532(11) -0.5657(3)
H9I H 0.4811 -0.0538 -0.5748
C18I C 0.44297(13) -0.11334(14) -0.6878(4)
H10I H 0.4556 -0.1008 -0.7780
C19I C 0.40869(14) -0.16010(14) -0.6752(4)
C20I C 0.39062(14) -0.17867(13) -0.5418(5)
H11I H 0.3677 -0.2102 -0.5335
C21I C 0.40639(12) -0.15059(11) -0.4192(4)
H12I H 0.3941 -0.1634 -0.3289
C22I C 0.3921(2) -0.18783(18) -0.8055(6)
N3I N 0.37696(8) 0.13580(11) -0.2357(2)
C13I C 0.41677(11) 0.14455(15) -0.2998(3)
H6I H 0.4293 0.1679 -0.3704
C15I C 0.35983(11) 0.10221(15) -0.1361(3)
H8I H 0.3319 0.0955 -0.0902
Co1D Co 0.6667 -0.1667 0.3333
Co1G Co 0.3333 0.1667 -0.3333
N3H N 0.57449(14) 0.04363(8) -0.0976(2)
N3Q N 0.42551(14) -0.04363(8) 0.0976(2)
O1 O 0.6433(6) 0.2674(7) 0.1953(17)
O2 O 0.6667 0.3333 0.033(5)
loop_
_geom_bond_atom_site_label_1
_geom_bond_atom_site_label_2
_geom_bond_site_symmetry_1
_geom_bond_site_symmetry_2
Co1 N1 1_555 1_555
N1 C1 1_555 1_555
N2 Co1 1_555 1_555
N3 C13 1_555 1_555
N4 C22 1_555 1_555
C1 C2 1_555 1_555
C2 H1 1_555 1_555
C3 C2 1_555 1_555
H2 C3 1_555 1_555
C4 N1 1_555 1_555
C5 C4 1_555 1_555
C6 N2 1_555 1_555
C7 C6 1_555 1_555
H3 C7 1_555 1_555
C8 C7 1_555 1_555
H4 C8 1_555 1_555
C9 N2 1_555 1_555
C10 C1 1_555 1_555
C11 C10 1_555 1_555
C12 C11 1_555 1_555
H5 C12 1_555 1_555
C13 C12 1_555 1_555
H6 C13 1_555 1_555
C14 C11 1_555 1_555
H7 C14 1_555 1_555
C15 N3 1_555 1_555
H8 C15 1_555 1_555
C16 C5 1_555 1_555
C17 C16 1_555 1_555
H9 C17 1_555 1_555
C18 C17 1_555 1_555
H10 C18 1_555 1_555
C19 C18 1_555 1_555
C20 C19 1_555 1_555
H11 C20 1_555 1_555
C21 C16 1_555 1_555
H12 C21 1_555 1_555
C22 C19 1_555 1_555
N1I Co1 1_555 1_555
N2I Co1 1_555 1_555
N4I C22I 1_555 1_555
C1I N1I 1_555 1_555
C2I C1I 1_555 1_555
H1I C2I 1_555 1_555
C3I C2I 1_555 1_555
H2I C3I 1_555 1_555
C4I N1I 1_555 1_555
C5I C4I 1_555 1_555
C6I N2I 1_555 1_555
C7I C6I 1_555 1_555
H3I C7I 1_555 1_555
C8I C7I 1_555 1_555
H4I C8I 1_555 1_555
C9I C10 1_555 1_555
C10I C9 1_555 1_555
C11I C10I 1_555 1_555
C12I C11I 1_555 1_555
H5I C12I 1_555 1_555
C14I C11I 1_555 1_555
H7I C14I 1_555 1_555
C16I C5I 1_555 1_555
C17I C16I 1_555 1_555
H9I C17I 1_555 1_555
C18I C17I 1_555 1_555
H10I C18I 1_555 1_555
C19I C18I 1_555 1_555
C20I C19I 1_555 1_555
H11I C20I 1_555 1_555
C21I C16I 1_555 1_555
H12I C21I 1_555 1_555
C22I C19I 1_555 1_555
N3I C13I 1_555 1_555
C13I C12I 1_555 1_555
H6I C13I 1_555 1_555
C15I C14I 1_555 1_555
H8I C15I 1_555 1_555
Co1D N3 1_555 1_555
Co1G N3I 1_555 1_555
N3H Co1 1_555 1_555
N3Q Co1 1_555 1_555
C3 C4 1_555 1_555
C5 C6 1_555 1_555
C8 C9 1_555 1_555
C14 C15 1_555 1_555
C20 C21 1_555 1_555
N2I C9I 1_555 1_555
C1I C10I 1_555 1_555
C3I C4I 1_555 1_555
C5I C6I 1_555 1_555
C8I C9I 1_555 1_555
C20I C21I 1_555 1_555
N3I C15I 1_555 1_555

#END
