
#######################################################################
#
#                 Cambridge Crystallographic Data Centre
#                                CCDC 
#
#######################################################################
#
# If this CIF has been generated from an entry in the Cambridge 
# Structural Database, then it will include bibliographic, chemical, 
# crystal, experimental, refinement or atomic coordinate data resulting 
# from the CCDC's data processing and validation procedures.
#
#######################################################################

data_MUNLUE
_symmetry_cell_setting           triclinic
_symmetry_space_group_name_H-M   'P -1'
_symmetry_Int_Tables_number      2
_space_group_name_Hall           '-P 1'
loop_
_symmetry_equiv_pos_site_id
_symmetry_equiv_pos_as_xyz
1 x,y,z
2 -x,-y,-z
_cell_length_a                   15.1173(4)
_cell_length_b                   16.7483(8)
_cell_length_c                   16.9101(6)
_cell_angle_alpha                110.566(4)
_cell_angle_beta                 90.030(3)
_cell_angle_gamma                100.933(3)
_cell_volume                     3925.32
loop_
_atom_site_label
_atom_site_type_symbol
_atom_site_fract_x
_atom_site_fract_y
_atom_site_fract_z
N10 N 0.151(2) 0.480(2) 0.819(2)
C53 C 0.1231(16) 0.4428(16) 0.7407(16)
C54 C 0.0888(16) 0.5069(16) 0.8818(16)
Tb1 Tb 0.56199(3) 0.12357(3) 0.52812(3)
Tb2 Tb 0.52200(3) 0.36574(3) 0.64743(3)
Tb3 Tb 0.45351(3) 0.47118(3) 0.88233(3)
O1 O -0.4566(4) -0.2171(4) 0.4644(4)
O2 O -0.3740(5) -0.3202(4) 0.4259(4)
O3 O 0.3109(4) -0.0670(4) 0.5400(4)
O4 O 0.4213(4) 0.0361(4) 0.5322(4)
O5 O 0.4336(4) 0.3360(4) 0.7528(4)
O6 O 0.3098(5) 0.3677(4) 0.8130(4)
O7 O 0.6330(4) 0.2278(4) 0.4737(4)
O8 O 0.5897(4) 0.3549(4) 0.5259(3)
O9 O 0.5226(5) 0.5086(4) 0.3441(4)
O10 O 0.5895(4) 0.4820(4) 0.2224(4)
O11 O 0.4905(4) -0.0616(4) -0.3836(3)
O12 O 0.5611(5) 0.0767(4) -0.3579(4)
O13 O 0.6757(5) 0.4467(4) 0.6913(4)
O14 O 0.5802(4) 0.4738(4) 0.7911(4)
O15 O 1.3278(4) 0.5380(4) 0.9413(4)
O16 O 1.4226(4) 0.5347(4) 1.0389(3)
O17 O 1.4123(4) 0.7437(3) 1.3364(4)
O18 O 1.2932(4) 0.8038(4) 1.3733(4)
O19 O 0.4238(5) 0.3468(5) 0.9272(5)
O20 O 0.4820(4) 0.3799(4) 1.0604(4)
N1 N 0.0131(5) 0.0155(5) 0.6205(5)
H1 H 0.0340 -0.0301 0.5886
N2 N -0.0821(7) 0.0996(8) 0.6860(8)
N3 N 0.0034(6) 0.1461(7) 0.7029(9)
N4 N 0.5989(8) 0.1669(6) 0.0743(5)
H2 H 0.5798 0.2086 0.0631
N5 N 0.6409(9) 0.0447(7) 0.0591(7)
N6 N 0.6490(9) 0.0937(7) 0.1441(6)
N7 N 1.0310(6) 0.6227(6) 1.0225(5)
H3 H 1.0518 0.5865 0.9785
N8 N 1.0185(7) 0.7116(9) 1.1497(7)
N9 N 0.9384(8) 0.6969(9) 1.1038(7)
C1 C -0.3796(6) -0.2436(6) 0.4691(5)
C2 C -0.3017(7) -0.1803(6) 0.5196(6)
C3 C -0.2135(6) -0.1948(7) 0.5047(7)
H4 H -0.2051 -0.2496 0.4667
C4 C -0.1395(7) -0.1311(7) 0.5441(7)
H5 H -0.0804 -0.1420 0.5333
C5 C -0.1508(7) -0.0512(7) 0.5995(7)
C6 C -0.2364(7) -0.0358(7) 0.6196(7)
H6 H -0.2440 0.0182 0.6600
C7 C -0.3114(7) -0.1012(6) 0.5793(6)
H7 H -0.3703 -0.0913 0.5930
C8 C -0.0739(7) 0.0214(7) 0.6354(7)
C9 C 0.0596(8) 0.0945(7) 0.6651(8)
C10 C 0.1600(6) 0.1214(6) 0.6668(6)
C11 C 0.2064(6) 0.0588(6) 0.6173(6)
H8 H 0.1740 0.0024 0.5839
C12 C 0.2986(7) 0.0786(6) 0.6168(5)
C13 C 0.3463(6) 0.0116(5) 0.5601(5)
C14 C 0.3476(6) 0.1617(5) 0.6646(6)
H9 H 0.4116 0.1753 0.6650
C15 C 0.2988(6) 0.2256(6) 0.7129(6)
C16 C 0.3509(6) 0.3151(5) 0.7621(5)
C17 C 0.2068(6) 0.2052(6) 0.7138(6)
H10 H 0.1750 0.2481 0.7462
C18 C 0.6109(6) 0.2931(5) 0.4655(4)
C19 C 0.6109(6) 0.3020(5) 0.3808(5)
C20 C 0.6225(7) 0.2318(6) 0.3084(5)
H11 H 0.6341 0.1799 0.3133
C21 C 0.6165(7) 0.2396(6) 0.2293(5)
C22 C 0.6241(9) 0.1661(7) 0.1511(6)
C23 C 0.6008(7) 0.3162(6) 0.2226(5)
H12 H 0.5999 0.3219 0.1687
C24 C 0.5863(7) 0.3844(6) 0.2936(5)
C25 C 0.5635(6) 0.4643(5) 0.2864(5)
C26 C 0.5907(6) 0.3754(5) 0.3731(5)
H13 H 0.5794 0.4209 0.4221
C27 C 0.6099(9) 0.0891(7) 0.0188(6)
C28 C 0.5891(8) 0.0668(8) -0.0717(6)
C29 C 0.5786(10) -0.0174(7) -0.1289(7)
H14 H 0.5871 -0.0626 -0.1097
C30 C 0.5561(9) -0.0368(6) -0.2134(6)
H15 H 0.5435 -0.0957 -0.2511
C31 C 0.5517(7) 0.0297(7) -0.2441(6)
C32 C 0.5323(7) 0.0138(5) -0.3352(5)
C33 C 0.5644(11) 0.1136(8) -0.1870(8)
H16 H 0.5623 0.1599 -0.2067
C34 C 0.5800(13) 0.1319(8) -0.1016(8)
H17 H 0.5845 0.1898 -0.0629
C35 C 0.6619(6) 0.4837(6) 0.7662(5)
C36 C 0.7408(6) 0.5348(6) 0.8312(5)
C37 C 0.8274(7) 0.5216(7) 0.8125(6)
H18 H 0.8391 0.4879 0.7568
C38 C 0.8964(8) 0.5581(7) 0.8762(7)
H19 H 0.9558 0.5488 0.8640
C39 C 0.8798(7) 0.6087(7) 0.9582(6)
C40 C 0.7930(7) 0.6258(6) 0.9751(6)
H20 H 0.7819 0.6627 1.0297
C41 C 0.7231(7) 0.5883(6) 0.9113(6)
H21 H 0.6641 0.5991 0.9223
C42 C 0.9522(9) 0.6429(8) 1.0268(7)
C43 C 1.0755(7) 0.6694(8) 1.1005(7)
C44 C 1.1668(7) 0.6673(6) 1.1251(6)
C45 C 1.2169(6) 0.6193(6) 1.0639(5)
H22 H 1.1908 0.5876 1.0079
C46 C 1.3058(6) 0.6181(6) 1.0854(5)
C47 C 1.3526(6) 0.5605(6) 1.0182(5)
C48 C 1.3444(5) 0.6637(5) 1.1662(5)
H23 H 1.4056 0.6641 1.1795
C49 C 1.2930(6) 0.7101(5) 1.2294(5)
C50 C 1.3336(6) 0.7563(5) 1.3173(5)
C51 C 1.2048(7) 0.7130(6) 1.2075(6)
H24 H 1.1707 0.7462 1.2490
C52 C 0.4482(7) 0.3272(6) 0.9870(6)
H25 H 0.4411 0.2668 0.9772
Tb1_2 Tb 0.56199(3) 0.12357(3) -0.47188(3)
Tb1A Tb -0.56199(3) -0.12357(3) 0.47188(3)
Tb1A_2 Tb 0.43801(3) -0.12357(3) -0.52812(3)
Tb1A_3 Tb 0.43801(3) -0.12357(3) 0.47188(3)
Tb1A_4 Tb 1.43801(3) 0.87643(3) 1.47188(3)
Tb2A Tb -0.52200(3) -0.36574(3) 0.35257(3)
Tb2A_2 Tb 0.47800(3) 0.63426(3) 0.35257(3)
Tb2A_3 Tb 1.47800(3) 0.63426(3) 1.35257(3)
Tb3_2 Tb 1.45351(3) 0.47118(3) 0.88233(3)
Tb3A Tb 0.54649(3) 0.52882(3) 0.11767(3)
Tb3A_2 Tb 0.54649(3) 0.52882(3) 1.11767(3)
Tb3A_3 Tb 1.54649(3) 0.52882(3) 1.11767(3)
O1A O 0.4566(4) 0.2171(4) 0.5356(4)
O2A O 0.3740(5) 0.3202(4) 0.5741(4)
O3A O 0.6891(4) 0.0670(4) 0.4600(4)
O4A O 0.5787(4) -0.0361(4) 0.4678(4)
O9A O 0.4774(5) 0.4914(4) 0.6559(4)
O10A O 0.4105(4) 0.5180(4) 0.7776(4)
O11A O 0.5095(4) 0.0616(4) 0.3836(3)
O12_2 O 0.5611(5) 0.0767(4) 0.6421(4)
O15_2 O 0.3278(4) 0.5380(4) 0.9413(4)
O16_2 O 0.4226(4) 0.5347(4) 1.0389(3)
O16A O 0.5774(4) 0.4653(4) 0.9611(3)
O17A O 0.5877(4) 0.2563(3) 0.6636(4)
O18A O 0.7068(4) 0.1962(4) 0.6267(4)
O20A O 0.5180(4) 0.6201(4) 0.9396(4)
loop_
_geom_bond_atom_site_label_1
_geom_bond_atom_site_label_2
_geom_bond_site_symmetry_1
_geom_bond_site_symmetry_2
Tb1 O4 1_555 1_555
Tb2 O5 1_555 1_555
Tb3 O5 1_555 1_555
O1 C1 1_555 1_555
O2 C1 1_555 1_555
O3 C13 1_555 1_555
O4 C13 1_555 1_555
O5 C16 1_555 1_555
O6 Tb3 1_555 1_555
O7 Tb1 1_555 1_555
O8 Tb2 1_555 1_555
O9 C25 1_555 1_555
O10 C25 1_555 1_555
O11 C32 1_555 1_555
O12 C32 1_555 1_555
O13 Tb2 1_555 1_555
O14 Tb2 1_555 1_555
O15 C47 1_555 1_555
O16 C47 1_555 1_555
O17 C50 1_555 1_555
O18 C50 1_555 1_555
O19 Tb3 1_555 1_555
O20 C52 1_555 1_555
N1 H1 1_555 1_555
N2 N3 1_555 1_555
N3 C9 1_555 1_555
N4 H2 1_555 1_555
N5 N6 1_555 1_555
N6 C22 1_555 1_555
N7 H3 1_555 1_555
N8 N9 1_555 1_555
N9 C42 1_555 1_555
C1 C2 1_555 1_555
C2 C3 1_555 1_555
C3 H4 1_555 1_555
C4 C3 1_555 1_555
H5 C4 1_555 1_555
C5 C4 1_555 1_555
C6 C5 1_555 1_555
H6 C6 1_555 1_555
C7 C2 1_555 1_555
H7 C7 1_555 1_555
C8 N1 1_555 1_555
C9 N1 1_555 1_555
C10 C9 1_555 1_555
C11 C10 1_555 1_555
H8 C11 1_555 1_555
C12 C11 1_555 1_555
C13 C12 1_555 1_555
C14 C12 1_555 1_555
H9 C14 1_555 1_555
C15 C14 1_555 1_555
C16 O6 1_555 1_555
C17 C10 1_555 1_555
H10 C17 1_555 1_555
C18 O7 1_555 1_555
C19 C18 1_555 1_555
C20 C19 1_555 1_555
H11 C20 1_555 1_555
C21 C20 1_555 1_555
C22 N4 1_555 1_555
C23 C21 1_555 1_555
H12 C23 1_555 1_555
C24 C23 1_555 1_555
C25 C24 1_555 1_555
C26 C19 1_555 1_555
H13 C26 1_555 1_555
C27 N4 1_555 1_555
C28 C27 1_555 1_555
C29 C28 1_555 1_555
H14 C29 1_555 1_555
C30 C29 1_555 1_555
H15 C30 1_555 1_555
C31 C30 1_555 1_555
C32 C31 1_555 1_555
C33 C31 1_555 1_555
H16 C33 1_555 1_555
C34 C28 1_555 1_555
H17 C34 1_555 1_555
C35 O13 1_555 1_555
C36 C35 1_555 1_555
C37 C36 1_555 1_555
H18 C37 1_555 1_555
C38 C37 1_555 1_555
H19 C38 1_555 1_555
C39 C38 1_555 1_555
C40 C39 1_555 1_555
H20 C40 1_555 1_555
C41 C36 1_555 1_555
H21 C41 1_555 1_555
C42 N7 1_555 1_555
C43 N7 1_555 1_555
C44 C43 1_555 1_555
C45 C44 1_555 1_555
H22 C45 1_555 1_555
C46 C45 1_555 1_555
C47 C46 1_555 1_555
C48 C46 1_555 1_555
H23 C48 1_555 1_555
C49 C48 1_555 1_555
C50 C49 1_555 1_555
C51 C44 1_555 1_555
H24 C51 1_555 1_555
C52 O19 1_555 1_555
H25 C52 1_555 1_555
N10 C53 1_555 1_555
C54 N10 1_555 1_555
Tb1_2 O12 1_555 1_555
Tb1A O1 1_555 1_555
Tb1A_2 O11 1_555 1_555
Tb1A_3 O3 1_555 1_555
Tb1A_4 O17 1_555 1_555
Tb2A O1 1_555 1_555
Tb2A_2 O9 1_555 1_555
Tb2A_3 O17 1_555 1_555
Tb3_2 O15 1_555 1_555
Tb3A O10 1_555 1_555
Tb3A_2 O20 1_555 1_555
Tb3A_3 O16 1_555 1_555
O1A Tb1 1_555 1_555
O2A Tb2 1_555 1_555
O3A Tb1 1_555 1_555
O4A Tb1 1_555 1_555
O9A Tb2 1_555 1_555
O10A Tb3 1_555 1_555
O11A Tb1 1_555 1_555
O12_2 Tb1 1_555 1_555
O15_2 Tb3 1_555 1_555
O16_2 Tb3 1_555 1_555
O16A Tb3 1_555 1_555
O17A Tb1 1_555 1_555
O18A Tb1 1_555 1_555
O20A Tb3 1_555 1_555
Tb2 O1A 1_555 1_555
Tb2 O17A 1_555 1_555
Tb3 O14 1_555 1_555
O2 Tb2A 1_555 1_555
O4 Tb1A_3 1_555 1_555
O8 C18 1_555 1_555
O14 C35 1_555 1_555
O16 Tb3_2 1_555 1_555
O18 Tb1A_4 1_555 1_555
N2 C8 1_555 1_555
N5 C27 1_555 1_555
N8 C43 1_555 1_555
C5 C8 1_555 1_555
C6 C7 1_555 1_555
C15 C16 1_555 1_555
C15 C17 1_555 1_555
C21 C22 1_555 1_555
C24 C26 1_555 1_555
C33 C34 1_555 1_555
C39 C42 1_555 1_555
C40 C41 1_555 1_555
C49 C51 1_555 1_555
Tb1A_3 O4A 1_555 1_555
Tb3A_2 O16_2 1_555 1_555
Tb3A_2 O16A 1_555 1_555

#END
