
#######################################################################
#
#                 Cambridge Crystallographic Data Centre
#                                CCDC 
#
#######################################################################
#
# If this CIF has been generated from an entry in the Cambridge 
# Structural Database, then it will include bibliographic, chemical, 
# crystal, experimental, refinement or atomic coordinate data resulting 
# from the CCDC's data processing and validation procedures.
#
#######################################################################

data_MUWQEB
_symmetry_cell_setting           cubic
_symmetry_space_group_name_H-M   'P m -3 m'
_symmetry_Int_Tables_number      221
_space_group_name_Hall           '-P 4 2 3'
loop_
_symmetry_equiv_pos_site_id
_symmetry_equiv_pos_as_xyz
1 x,y,z
2 -x,-y,z
3 -x,y,-z
4 x,-y,-z
5 z,x,y
6 z,-x,-y
7 -z,-x,y
8 -z,x,-y
9 y,z,x
10 -y,z,-x
11 y,-z,-x
12 -y,-z,x
13 y,x,-z
14 -y,-x,-z
15 y,-x,z
16 -y,x,z
17 x,z,-y
18 -x,z,y
19 -x,-z,-y
20 x,-z,y
21 z,y,-x
22 z,-y,x
23 -z,y,x
24 -z,-y,-x
25 -x,-y,-z
26 x,y,-z
27 x,-y,z
28 -x,y,z
29 -z,-x,-y
30 -z,x,y
31 z,x,-y
32 z,-x,y
33 -y,-z,-x
34 y,-z,x
35 -y,z,x
36 y,z,-x
37 -y,-x,z
38 y,x,z
39 -y,x,-z
40 y,-x,-z
41 -x,-z,y
42 x,-z,-y
43 x,z,y
44 -x,z,-y
45 -z,-y,x
46 -z,y,-x
47 z,-y,-x
48 z,y,x
_cell_length_a                   18.8235(11)
_cell_length_b                   18.8235(11)
_cell_length_c                   18.8235(11)
_cell_angle_alpha                90
_cell_angle_beta                 90
_cell_angle_gamma                90
_cell_volume                     6669.62
loop_
_atom_site_label
_atom_site_type_symbol
_atom_site_fract_x
_atom_site_fract_y
_atom_site_fract_z
Fe1 Fe 0.85929(3) 0.0000 0.5000
Cl1 Cl 1.0000 0.0000 0.5000
N1 N 0.86917(8) -0.08129(8) 0.42169(8)
O1 O 0.75020(17) 0.0000 0.5000
N2 N 0.82542(8) -0.09125(8) 0.36667(8)
C1 C 0.85044(15) -0.24031(12) 0.24031(12)
H1 H 0.8919 -0.2607 0.2607
C2 C 0.85119(11) -0.14881(11) 0.33428(16)
C3 C 0.81997(12) -0.18003(12) 0.27058(16)
Fe1A Fe 1.14071(3) 0.0000 0.5000
Fe1L Fe 1.0000 -0.14071(3) 0.5000
Fe1D Fe 0.5000 -0.14071(3) 0.0000
Fe1T Fe 0.5000 0.0000 0.14071(3)
Fe1I Fe 1.0000 -0.5000 0.14071(3)
Fe1P Fe 0.85929(3) -0.5000 0.0000
Fe1M Fe 1.0000 0.14071(3) 0.5000
Fe1T_2 Fe 1.5000 0.0000 0.14071(3)
Fe1D_2 Fe 1.5000 -0.14071(3) 0.0000
Fe1Q Fe 1.14071(3) -0.5000 0.0000
N1KA N 0.91871(8) -0.13083(8) 0.42169(8)
N1G N 0.57831(8) -0.13083(8) 0.08129(8)
N1SA N 0.57831(8) -0.08129(8) 0.13083(8)
N1J N 0.91871(8) -0.42169(8) 0.13083(8)
N1OA N 0.86917(8) -0.42169(8) 0.08129(8)
N1C N 0.86917(8) 0.08129(8) 0.57831(8)
N1MA N 0.91871(8) 0.13083(8) 0.57831(8)
N1Y N 0.86917(8) -0.08129(8) 0.57831(8)
N1L N 0.91871(8) -0.13083(8) 0.57831(8)
N1Z N 0.86917(8) 0.08129(8) 0.42169(8)
N1N N 0.91871(8) 0.13083(8) 0.42169(8)
N1A N 1.13083(8) 0.08129(8) 0.42169(8)
N1JA N 1.08129(8) 0.13083(8) 0.42169(8)
N1B N 1.13083(8) -0.08129(8) 0.57831(8)
N1LA N 1.08129(8) -0.13083(8) 0.57831(8)
N1X N 1.13083(8) 0.08129(8) 0.57831(8)
N1M N 1.08129(8) 0.13083(8) 0.57831(8)
N1AA N 1.13083(8) -0.08129(8) 0.42169(8)
N1O N 1.08129(8) -0.13083(8) 0.42169(8)
N1DA N 1.42169(8) -0.13083(8) 0.08129(8)
N1T N 1.42169(8) -0.08129(8) 0.13083(8)
N1FA N 1.08129(8) -0.42169(8) 0.13083(8)
N1R N 1.13083(8) -0.42169(8) 0.08129(8)
O1A O 1.24980(17) 0.0000 0.5000
O1L O 1.0000 -0.24980(17) 0.5000
O1M O 1.0000 0.24980(17) 0.5000
N2KA N 0.90875(8) -0.17458(8) 0.36667(8)
N2G N 0.63333(8) -0.17458(8) 0.09125(8)
N2SA N 0.63333(8) -0.09125(8) 0.17458(8)
N2J N 0.90875(8) -0.36667(8) 0.17458(8)
N2OA N 0.82542(8) -0.36667(8) 0.09125(8)
N2AA N 1.17458(8) -0.09125(8) 0.36667(8)
N2O N 1.09125(8) -0.17458(8) 0.36667(8)
N2DA N 1.36667(8) -0.17458(8) 0.09125(8)
N2T N 1.36667(8) -0.09125(8) 0.17458(8)
N2FA N 1.09125(8) -0.36667(8) 0.17458(8)
N2R N 1.17458(8) -0.36667(8) 0.09125(8)
C1J C 0.75969(12) -0.24031(12) 0.14956(15)
C1G C 0.75969(12) -0.14956(15) 0.24031(12)
C1R C 1.14956(15) -0.24031(12) 0.24031(12)
C1T C 1.24031(12) -0.24031(12) 0.14956(15)
C1O C 1.24031(12) -0.14956(15) 0.24031(12)
H1J H 0.7393 -0.2607 0.1081
H1G H 0.7393 -0.1081 0.2607
H1R H 1.1081 -0.2607 0.2607
H1T H 1.2607 -0.2607 0.1081
H1O H 1.2607 -0.1081 0.2607
C2G C 0.66572(16) -0.14881(11) 0.14881(11)
C2J C 0.85119(11) -0.33428(16) 0.14881(11)
C2O C 1.14881(11) -0.14881(11) 0.33428(16)
C2T C 1.33428(16) -0.14881(11) 0.14881(11)
C2R C 1.14881(11) -0.33428(16) 0.14881(11)
C3J C 0.81997(12) -0.27058(16) 0.18003(12)
C3G C 0.72942(16) -0.18003(12) 0.18003(12)
C3O C 1.18003(12) -0.18003(12) 0.27058(16)
C3R C 1.18003(12) -0.27058(16) 0.18003(12)
C3T C 1.27058(16) -0.18003(12) 0.18003(12)
loop_
_geom_bond_atom_site_label_1
_geom_bond_atom_site_label_2
_geom_bond_site_symmetry_1
_geom_bond_site_symmetry_2
Fe1 Cl1 1_555 1_555
Cl1 Fe1A 1_555 1_555
N1 Fe1 1_555 1_555
O1 Fe1 1_555 1_555
N2 N1 1_555 1_555
C1 H1 1_555 1_555
C2 N2 1_555 1_555
C3 C1 1_555 1_555
Fe1A N1A 1_555 1_555
Fe1L Cl1 1_555 1_555
Fe1D N1G 1_555 1_555
Fe1T N1SA 1_555 1_555
Fe1I N1J 1_555 1_555
Fe1P N1OA 1_555 1_555
Fe1M Cl1 1_555 1_555
Fe1T_2 N1T 1_555 1_555
Fe1D_2 N1DA 1_555 1_555
Fe1Q N1R 1_555 1_555
N1KA N1 1_555 1_555
N1G N1SA 1_555 1_555
N1SA N2SA 1_555 1_555
N1J N1OA 1_555 1_555
N1OA N2OA 1_555 1_555
N1C Fe1 1_555 1_555
N1MA Fe1M 1_555 1_555
N1Y Fe1 1_555 1_555
N1L Fe1L 1_555 1_555
N1Z Fe1 1_555 1_555
N1N Fe1M 1_555 1_555
N1A N1JA 1_555 1_555
N1JA Fe1M 1_555 1_555
N1B Fe1A 1_555 1_555
N1LA Fe1L 1_555 1_555
N1X Fe1A 1_555 1_555
N1M Fe1M 1_555 1_555
N1AA Fe1A 1_555 1_555
N1O Fe1L 1_555 1_555
N1DA N1T 1_555 1_555
N1T N2T 1_555 1_555
N1FA Fe1I 1_555 1_555
N1R N1FA 1_555 1_555
O1A Fe1A 1_555 1_555
O1L Fe1L 1_555 1_555
O1M Fe1M 1_555 1_555
N2KA C2 1_555 1_555
N2G N1G 1_555 1_555
N2SA C2G 1_555 1_555
N2J N1J 1_555 1_555
N2OA C2J 1_555 1_555
N2AA N1AA 1_555 1_555
N2O N1O 1_555 1_555
N2DA N1DA 1_555 1_555
N2T C2T 1_555 1_555
N2FA N1FA 1_555 1_555
N2R N1R 1_555 1_555
C1J H1J 1_555 1_555
C1G C3 1_555 1_555
C1R H1R 1_555 1_555
C1T H1T 1_555 1_555
C1O H1O 1_555 1_555
H1G C1G 1_555 1_555
C2G N2G 1_555 1_555
C2J N2J 1_555 1_555
C2O N2AA 1_555 1_555
C2T N2DA 1_555 1_555
C2R N2FA 1_555 1_555
C3J C1 1_555 1_555
C3G C1J 1_555 1_555
C3O C1R 1_555 1_555
C3R C1R 1_555 1_555
C3T C1T 1_555 1_555
C2 C3 1_555 1_555
Fe1L N1KA 1_555 1_555
N1KA N2KA 1_555 1_555
N1C N1MA 1_555 1_555
N1Y N1L 1_555 1_555
N1Z N1N 1_555 1_555
N1B N1LA 1_555 1_555
N1X N1M 1_555 1_555
N1AA N1O 1_555 1_555
N2O C2O 1_555 1_555
N2R C2R 1_555 1_555
C1J C3J 1_555 1_555
C1G C3G 1_555 1_555
C1T C3R 1_555 1_555
C1O C3O 1_555 1_555
C1O C3T 1_555 1_555
C2G C3G 1_555 1_555
C2J C3J 1_555 1_555
C2O C3O 1_555 1_555
C2T C3T 1_555 1_555
C2R C3R 1_555 1_555

#END
