
#######################################################################
#
#                 Cambridge Crystallographic Data Centre
#                                CCDC 
#
#######################################################################
#
# If this CIF has been generated from an entry in the Cambridge 
# Structural Database, then it will include bibliographic, chemical, 
# crystal, experimental, refinement or atomic coordinate data resulting 
# from the CCDC's data processing and validation procedures.
#
#######################################################################

data_NABMUA
_symmetry_cell_setting           hexagonal
_symmetry_space_group_name_H-M   'P 61 2 2'
_symmetry_Int_Tables_number      178
_space_group_name_Hall           "P 61 2' (0,0,5)"
loop_
_symmetry_equiv_pos_site_id
_symmetry_equiv_pos_as_xyz
1 x,y,z
2 x-y,x,1/6+z
3 -y,x-y,1/3+z
4 -x,-y,1/2+z
5 -x+y,-x,2/3+z
6 y,-x+y,5/6+z
7 -y,-x,5/6-z
8 x-y,-y,-z
9 x,x-y,1/6-z
10 y,x,1/3-z
11 -x+y,y,1/2-z
12 -x,-x+y,2/3-z
_cell_length_a                   11.4858(17)
_cell_length_b                   11.4858(17)
_cell_length_c                   14.756(3)
_cell_angle_alpha                90
_cell_angle_beta                 90
_cell_angle_gamma                120
_cell_volume                     1685.86
loop_
_atom_site_label
_atom_site_type_symbol
_atom_site_fract_x
_atom_site_fract_y
_atom_site_fract_z
Mg1 Mg 0.19347(10) -0.19347(10) 0.4167
O1 O 0.3664(3) -0.0223(3) 0.3871(2)
O2 O 0.3986(4) 0.1722(4) 0.4433(2)
O3 O 0.0890(3) -0.0890(3) 0.4167
N1 N 0.6932(3) 0.3865(6) 0.2500
C1 C 0.4208(5) 0.1028(5) 0.3876(3)
C2 C 0.5234(5) 0.1775(5) 0.3140(3)
C3 C 0.5532(3) 0.1064(7) 0.2500
H1 H 0.5069 0.0137 0.2500
C4 C 0.5922(5) 0.3158(5) 0.3087(3)
H2 H 0.5675 0.3630 0.3480
Mg1A Mg 0.38694(14) 0.19347(10) 0.5834
Mg1E Mg 0.80653(10) 0.61306(14) 0.2500
Mg1J Mg 0.61306(14) -0.19347(10) 0.0833
Mg1I Mg 0.80653(10) 0.19347(10) -0.0834
O1J O 0.6113(4) -0.0223(3) 0.1129(2)
O1F O 0.0223(3) -0.3664(3) 0.4462(2)
O2J O 0.7736(6) 0.1722(4) 0.0567(2)
O2E O 0.1722(4) -0.2264(6) 0.2766(2)
O2G O 0.2264(6) -0.1722(4) 0.5567(2)
N1A N 0.3067(7) -0.3068(3) 0.4167
C1J C 0.6820(7) 0.1028(5) 0.1124(3)
C2J C 0.6541(7) 0.1775(5) 0.1860(3)
C4J C 0.7236(7) 0.3158(5) 0.1913(3)
H2J H 0.7955 0.3630 0.1520
loop_
_geom_bond_atom_site_label_1
_geom_bond_atom_site_label_2
_geom_bond_site_symmetry_1
_geom_bond_site_symmetry_2
Mg1 O1 1_555 1_555
O1 C1 1_555 1_555
O2 C1 1_555 1_555
O3 Mg1 1_555 1_555
N1 C4 1_555 1_555
C1 C2 1_555 1_555
C2 C3 1_555 1_555
C3 H1 1_555 1_555
C4 C2 1_555 1_555
H2 C4 1_555 1_555
Mg1A O2 1_555 1_555
Mg1E N1 1_555 1_555
Mg1J O1J 1_555 1_555
Mg1I O2J 1_555 1_555
O1J C1J 1_555 1_555
O1F Mg1 1_555 1_555
O2J C1J 1_555 1_555
O2E Mg1 1_555 1_555
O2G Mg1 1_555 1_555
N1A Mg1 1_555 1_555
C1J C2J 1_555 1_555
C2J C3 1_555 1_555
C4J N1 1_555 1_555
H2J C4J 1_555 1_555
C2J C4J 1_555 1_555

#END
