
#######################################################################
#
#                 Cambridge Crystallographic Data Centre
#                                CCDC 
#
#######################################################################
#
# If this CIF has been generated from an entry in the Cambridge 
# Structural Database, then it will include bibliographic, chemical, 
# crystal, experimental, refinement or atomic coordinate data resulting 
# from the CCDC's data processing and validation procedures.
#
#######################################################################

data_NAGQET
_symmetry_cell_setting           triclinic
_symmetry_space_group_name_H-M   'P -1'
_symmetry_Int_Tables_number      2
_space_group_name_Hall           '-P 1'
loop_
_symmetry_equiv_pos_site_id
_symmetry_equiv_pos_as_xyz
1 x,y,z
2 -x,-y,-z
_cell_length_a                   9.1985(9)
_cell_length_b                   15.9576(15)
_cell_length_c                   16.0966(16)
_cell_angle_alpha                73.1710(10)
_cell_angle_beta                 74.4400(10)
_cell_angle_gamma                76.392(2)
_cell_volume                     2146.62
loop_
_atom_site_label
_atom_site_type_symbol
_atom_site_fract_x
_atom_site_fract_y
_atom_site_fract_z
Co1 Co 0.5000 0.5000 0.0000
Co2 Co 0.0000 0.0000 0.5000
Co3 Co 1.0000 0.5000 0.5000
N1 N 0.6642(5) 0.4884(3) 0.0685(3)
N2 N 0.6750(5) 0.5168(3) 0.1378(3)
N3 N 0.8893(5) 0.4195(3) 0.1009(3)
N4 N 0.6875(5) 0.4151(3) -0.0634(3)
N5 N 0.9559(5) 0.4970(3) 0.3754(3)
N6 N 0.1270(5) 0.0682(3) 0.3836(3)
N7 N 0.2041(5) 0.1387(3) 0.3568(3)
N8 N 0.1657(5) 0.1095(3) 0.2354(3)
N9 N -0.0467(4) -0.0518(3) 0.4018(3)
N10 N 0.4173(5) 0.3836(3) 0.0960(3)
N11 N -0.7831(5) 0.4146(3) 0.4743(3)
N12 N -0.7145(5) 0.3276(3) 0.4908(3)
N13 N -0.5317(5) 0.4126(3) 0.4200(3)
N14 N -0.8520(5) 0.5943(3) 0.4324(3)
N15 N -0.1959(4) 0.1103(3) 0.4830(3)
C1 C 0.8122(6) 0.4740(4) 0.1541(3)
C2 C 0.7923(6) 0.4325(4) 0.0477(4)
C3 C 0.8113(7) 0.3930(4) -0.0261(4)
C4 C 0.9431(7) 0.3386(5) -0.0570(5)
H4 H 1.0261 0.3241 -0.0298
C5 C 0.9499(9) 0.3059(5) -0.1292(5)
H5 H 1.0372 0.2689 -0.1513
C6 C 0.8253(9) 0.3293(5) -0.1669(5)
H6 H 0.8276 0.3085 -0.2156
C7 C 0.6970(8) 0.3832(4) -0.1335(4)
H7 H 0.6135 0.3982 -0.1603
C8 C 0.8568(6) 0.5609(4) 0.3354(4)
H8 H 0.8173 0.6112 0.3578
C9 C 0.8102(6) 0.5561(4) 0.2631(4)
H9 H 0.7404 0.6022 0.2377
C10 C 0.8670(6) 0.4831(4) 0.2283(4)
C11 C 0.9731(7) 0.4183(4) 0.2671(4)
H10 H 1.0175 0.3688 0.2441
C12 C 1.0134(7) 0.4272(4) 0.3402(4)
H11 H 1.0842 0.3823 0.3661
C13 C 0.2239(6) 0.1608(3) 0.2683(4)
C14 C 0.1068(6) 0.0535(3) 0.3099(4)
C15 C 0.0198(6) -0.0137(3) 0.3169(4)
C16 C 0.0015(7) -0.0374(4) 0.2451(4)
H12 H 0.0486 -0.0108 0.1878
C17 C -0.0870(7) -0.1009(4) 0.2588(4)
H13 H -0.1015 -0.1171 0.2109
C18 C -0.1544(6) -0.1405(4) 0.3453(4)
H14 H -0.2143 -0.1837 0.3565
C19 C -0.1306(6) -0.1145(4) 0.4132(4)
H15 H -0.1750 -0.1416 0.4710
C20 C 0.3635(8) 0.3298(4) 0.0666(4)
H16 H 0.3671 0.3423 0.0060
C21 C 0.3035(8) 0.2576(4) 0.1202(4)
H17 H 0.2679 0.2223 0.0958
C22 C 0.2949(6) 0.2363(3) 0.2099(3)
C23 C 0.3506(6) 0.2913(4) 0.2410(3)
H18 H 0.3480 0.2797 0.3014
C24 C 0.4104(6) 0.3635(4) 0.1835(3)
H19 H 0.4473 0.3997 0.2062
C25 C -0.5648(6) 0.3295(4) 0.4571(3)
C26 C -0.6714(6) 0.4618(4) 0.4321(3)
C27 C -0.7043(6) 0.5587(4) 0.4082(4)
C28 C -0.5932(7) 0.6104(4) 0.3664(5)
H20 H -0.4913 0.5841 0.3514
C29 C -0.6341(8) 0.7014(4) 0.3467(5)
H21 H -0.5607 0.7376 0.3179
C30 C -0.7862(7) 0.7379(4) 0.3706(4)
H22 H -0.8174 0.7992 0.3578
C31 C -0.8898(7) 0.6827(4) 0.4133(4)
H23 H -0.9920 0.7077 0.4299
C32 C -0.3422(6) 0.0986(4) 0.5131(4)
H24 H -0.3620 0.0415 0.5412
C33 C -0.4635(6) 0.1664(4) 0.5045(4)
H25 H -0.5626 0.1542 0.5263
C34 C -0.4419(6) 0.2517(3) 0.4644(4)
C35 C -0.2912(6) 0.2641(4) 0.4314(4)
H26 H -0.2687 0.3205 0.4021
C36 C -0.1752(6) 0.1926(4) 0.4424(4)
H27 H -0.0751 0.2029 0.4196
Co2_2 Co 1.0000 1.0000 -0.5000
Co3_2 Co -1.0000 0.5000 0.5000
Co3_3 Co 0.0000 0.5000 -0.5000
Co3_4 Co 1.0000 -0.5000 0.5000
N1A N 0.3358(5) 0.5116(3) -0.0685(3)
N2A N 0.3250(5) 0.4832(3) -0.1378(3)
N3A N 0.1107(5) 0.5805(3) -0.1009(3)
N4A N 0.3125(5) 0.5849(3) 0.0634(3)
N5A N 0.0441(5) 0.5030(3) -0.3754(3)
N5A_2 N 1.0441(5) 0.5030(3) 0.6246(3)
N6A N 0.8730(5) 0.9318(3) -0.3836(3)
N6A_2 N -0.1270(5) -0.0682(3) 0.6164(3)
N7A N 0.7959(5) 0.8613(3) -0.3568(3)
N8A N 0.8343(5) 0.8905(3) -0.2354(3)
N9A N 1.0467(4) 1.0518(3) -0.4018(3)
N9A_2 N 0.0467(4) 0.0518(3) 0.5982(3)
N10A N 0.5827(5) 0.6164(3) -0.0960(3)
N11A N 0.7831(5) -0.4146(3) 0.5257(3)
N11_2 N 1.2169(5) 0.4146(3) 0.4743(3)
N11A_2 N 0.7831(5) 0.5854(3) 0.5257(3)
N12A N 0.7145(5) -0.3276(3) 0.5092(3)
N13A N 0.5317(5) -0.4126(3) 0.5800(3)
N14A N 0.8520(5) -0.5943(3) 0.5676(3)
N14_2 N 1.1480(5) 0.5943(3) 0.4324(3)
N14A_2 N 0.8520(5) 0.4057(3) 0.5676(3)
N15A N 0.1959(4) -0.1103(3) 0.5170(3)
C1A C 0.1878(6) 0.5260(4) -0.1541(3)
C2A C 0.2077(6) 0.5675(4) -0.0477(4)
C3A C 0.1887(7) 0.6070(4) 0.0261(4)
C4A C 0.0569(7) 0.6614(5) 0.0570(5)
H4A H -0.0261 0.6759 0.0298
C5A C 0.0501(9) 0.6941(5) 0.1292(5)
H5A H -0.0372 0.7311 0.1513
C6A C 0.1747(9) 0.6707(5) 0.1669(5)
H6A H 0.1724 0.6915 0.2156
C7A C 0.3030(8) 0.6168(4) 0.1335(4)
H7A H 0.3865 0.6018 0.1603
C8A C 0.1432(6) 0.4391(4) -0.3354(4)
H8A H 0.1827 0.3888 -0.3578
C9A C 0.1898(6) 0.4439(4) -0.2631(4)
H9A H 0.2596 0.3978 -0.2377
C10A C 0.1330(6) 0.5169(4) -0.2283(4)
C11A C 0.0269(7) 0.5817(4) -0.2671(4)
H10A H -0.0175 0.6312 -0.2441
C12A C -0.0134(7) 0.5728(4) -0.3402(4)
H11A H -0.0842 0.6177 -0.3661
C13A C 0.7761(6) 0.8392(3) -0.2683(4)
C14A C 0.8932(6) 0.9465(3) -0.3099(4)
C15A C 0.9802(6) 1.0137(3) -0.3169(4)
C16A C 0.9985(7) 1.0374(4) -0.2451(4)
H12A H 0.9514 1.0108 -0.1878
C17A C 1.0870(7) 1.1009(4) -0.2588(4)
H13A H 1.1015 1.1171 -0.2109
C18A C 1.1544(6) 1.1405(4) -0.3453(4)
H14A H 1.2143 1.1837 -0.3565
C19A C 1.1306(6) 1.1145(4) -0.4132(4)
H15A H 1.1750 1.1416 -0.4710
C20A C 0.6365(8) 0.6702(4) -0.0666(4)
H16A H 0.6329 0.6577 -0.0060
C21A C 0.6965(8) 0.7424(4) -0.1202(4)
H17A H 0.7321 0.7777 -0.0958
C22A C 0.7051(6) 0.7637(3) -0.2099(3)
C23A C 0.6494(6) 0.7087(4) -0.2410(3)
H18A H 0.6520 0.7203 -0.3014
C24A C 0.5896(6) 0.6365(4) -0.1835(3)
H19A H 0.5527 0.6003 -0.2062
C25A C 0.5648(6) -0.3295(4) 0.5429(3)
C26A C 0.6714(6) -0.4618(4) 0.5679(3)
C27A C 0.7043(6) -0.5587(4) 0.5918(4)
C28A C 0.5932(7) -0.6104(4) 0.6336(5)
H20A H 0.4913 -0.5841 0.6486
C29A C 0.6341(8) -0.7014(4) 0.6533(5)
H21A H 0.5607 -0.7376 0.6821
C30A C 0.7862(7) -0.7379(4) 0.6294(4)
H22A H 0.8174 -0.7992 0.6422
C31A C 0.8898(7) -0.6827(4) 0.5867(4)
H23A H 0.9920 -0.7077 0.5701
C32A C 0.3422(6) -0.0986(4) 0.4869(4)
H24A H 0.3620 -0.0415 0.4588
C33A C 0.4635(6) -0.1664(4) 0.4955(4)
H25A H 0.5626 -0.1542 0.4737
C34A C 0.4419(6) -0.2517(3) 0.5356(4)
C35A C 0.2912(6) -0.2641(4) 0.5686(4)
H26A H 0.2687 -0.3205 0.5979
C36A C 0.1752(6) -0.1926(4) 0.5576(4)
H27A H 0.0751 -0.2029 0.5804
N16 N 0.507(3) 0.8675(16) 0.1391(16)
O1 O 0.6882(18) 0.7911(14) 0.2076(15)
C37 C 0.633(5) 0.805(4) 0.140(4)
H28 H 0.6750 0.7739 0.0957
C38 C 0.466(5) 0.921(2) 0.207(3)
H29 H 0.4895 0.8832 0.2620
H30 H 0.3587 0.9447 0.2161
H31 H 0.5240 0.9683 0.1868
C39 C 0.401(4) 0.862(3) 0.086(2)
H32 H 0.4405 0.8853 0.0241
H33 H 0.3018 0.8961 0.1041
H34 H 0.3909 0.8011 0.0959
N17 N 0.718(2) 0.1495(13) 0.1985(14)
O2 O 0.680(3) 0.0801(15) 0.115(2)
C40 C 0.740(4) 0.142(2) 0.117(3)
H35 H 0.7928 0.1773 0.0670
C41 C 0.633(2) 0.0918(13) 0.2767(16)
H36 H 0.5713 0.0632 0.2578
H37 H 0.5688 0.1271 0.3162
H38 H 0.7046 0.0476 0.3070
C42 C 0.781(2) 0.2181(13) 0.2139(15)
H39 H 0.8705 0.2301 0.1685
H40 H 0.8075 0.1980 0.2710
H41 H 0.7056 0.2714 0.2125
O3 O 0.152(2) 0.1167(12) 0.0402(13)
H1 H 0.1462 0.1106 0.0952
H2 H 0.1017 0.0809 0.0349
O4 O 0.0000 1.0000 1.0000
H3 H 0.0908 0.9934 0.9691
H3A H -0.0908 1.0066 1.0309
C43? C 0.601(10) 0.867(7) 0.192(8)
C44? C 0.538(11) 0.783(6) 0.109(6)
C45? C 0.397(7) 0.952(6) 0.120(6)
H42? H 0.6016 0.9156 0.2128
H43? H 0.6464 0.7649 0.0921
H44? H 0.4917 0.7932 0.0598
H45? H 0.4953 0.7380 0.1574
H46? H 0.4133 0.9937 0.1473
H47? H 0.2941 0.9402 0.1428
H48? H 0.4125 0.9758 0.0566
H49? H -0.0634 0.9941 0.9730
loop_
_geom_bond_atom_site_label_1
_geom_bond_atom_site_label_2
_geom_bond_site_symmetry_1
_geom_bond_site_symmetry_2
Co1 N1 1_555 1_555
Co2 N6 1_555 1_555
Co3 N5 1_555 1_555
N1 N2 1_555 1_555
N2 C1 1_555 1_555
N3 C1 1_555 1_555
N4 Co1 1_555 1_555
N5 C8 1_555 1_555
N6 N7 1_555 1_555
N7 C13 1_555 1_555
N8 C13 1_555 1_555
N9 Co2 1_555 1_555
N10 Co1 1_555 1_555
N11 N12 1_555 1_555
N12 C25 1_555 1_555
N13 C25 1_555 1_555
N14 C27 1_555 1_555
N15 Co2 1_555 1_555
N16 C37 1_555 1_555
N17 C40 1_555 1_555
O1 C37 1_555 1_555
O2 C40 1_555 1_555
O3 H1 1_555 1_555
H2 O3 1_555 1_555
O4 H3 1_555 1_555
C1 C10 1_555 1_555
C2 N1 1_555 1_555
C3 N4 1_555 1_555
C4 C3 1_555 1_555
H4 C4 1_555 1_555
C5 C4 1_555 1_555
H5 C5 1_555 1_555
C6 C5 1_555 1_555
H6 C6 1_555 1_555
C7 N4 1_555 1_555
H7 C7 1_555 1_555
C8 H8 1_555 1_555
C9 C8 1_555 1_555
H9 C9 1_555 1_555
C10 C9 1_555 1_555
C11 C10 1_555 1_555
H10 C11 1_555 1_555
C12 N5 1_555 1_555
H11 C12 1_555 1_555
C13 C22 1_555 1_555
C14 N6 1_555 1_555
C15 N9 1_555 1_555
C16 C15 1_555 1_555
H12 C16 1_555 1_555
C17 C16 1_555 1_555
H13 C17 1_555 1_555
C18 C17 1_555 1_555
H14 C18 1_555 1_555
C19 N9 1_555 1_555
H15 C19 1_555 1_555
C20 N10 1_555 1_555
H16 C20 1_555 1_555
C21 C20 1_555 1_555
H17 C21 1_555 1_555
C22 C21 1_555 1_555
C23 C22 1_555 1_555
H18 C23 1_555 1_555
C24 N10 1_555 1_555
H19 C24 1_555 1_555
C25 C34 1_555 1_555
C26 N11 1_555 1_555
C27 C26 1_555 1_555
C28 C27 1_555 1_555
H20 C28 1_555 1_555
C29 C28 1_555 1_555
H21 C29 1_555 1_555
C30 C29 1_555 1_555
H22 C30 1_555 1_555
C31 N14 1_555 1_555
H23 C31 1_555 1_555
C32 N15 1_555 1_555
H24 C32 1_555 1_555
C33 C32 1_555 1_555
H25 C33 1_555 1_555
C34 C33 1_555 1_555
C35 C34 1_555 1_555
H26 C35 1_555 1_555
C36 N15 1_555 1_555
H27 C36 1_555 1_555
C37 H28 1_555 1_555
C38 N16 1_555 1_555
H29 C38 1_555 1_555
H30 C38 1_555 1_555
H31 C38 1_555 1_555
C39 N16 1_555 1_555
H32 C39 1_555 1_555
H33 C39 1_555 1_555
H34 C39 1_555 1_555
C40 H35 1_555 1_555
C41 N17 1_555 1_555
H36 C41 1_555 1_555
H37 C41 1_555 1_555
H38 C41 1_555 1_555
C42 N17 1_555 1_555
H39 C42 1_555 1_555
H40 C42 1_555 1_555
H41 C42 1_555 1_555
Co2_2 N6A 1_555 1_555
Co3_2 N11 1_555 1_555
Co3_3 N5A 1_555 1_555
Co3_4 N11A 1_555 1_555
N1A Co1 1_555 1_555
N2A N1A 1_555 1_555
N3A C1A 1_555 1_555
N4A Co1 1_555 1_555
N5A C8A 1_555 1_555
N5A_2 Co3 1_555 1_555
N6A N7A 1_555 1_555
N6A_2 Co2 1_555 1_555
N7A C13A 1_555 1_555
N8A C13A 1_555 1_555
N9A Co2_2 1_555 1_555
N9A_2 Co2 1_555 1_555
N10A Co1 1_555 1_555
N11A N12A 1_555 1_555
N11_2 Co3 1_555 1_555
N11A_2 Co3 1_555 1_555
N12A C25A 1_555 1_555
N13A C25A 1_555 1_555
N14A Co3_4 1_555 1_555
N14_2 Co3 1_555 1_555
N14A_2 Co3 1_555 1_555
N15A Co2 1_555 1_555
H3A O4 1_555 1_555
C1A N2A 1_555 1_555
C2A N1A 1_555 1_555
C3A N4A 1_555 1_555
C4A C3A 1_555 1_555
H4A C4A 1_555 1_555
C5A C4A 1_555 1_555
H5A C5A 1_555 1_555
C6A C5A 1_555 1_555
H6A C6A 1_555 1_555
C7A N4A 1_555 1_555
H7A C7A 1_555 1_555
C8A H8A 1_555 1_555
C9A C8A 1_555 1_555
H9A C9A 1_555 1_555
C10A C1A 1_555 1_555
C11A C10A 1_555 1_555
H10A C11A 1_555 1_555
C12A N5A 1_555 1_555
H11A C12A 1_555 1_555
C13A C22A 1_555 1_555
C14A N6A 1_555 1_555
C15A N9A 1_555 1_555
C16A C15A 1_555 1_555
H12A C16A 1_555 1_555
C17A C16A 1_555 1_555
H13A C17A 1_555 1_555
C18A C17A 1_555 1_555
H14A C18A 1_555 1_555
C19A N9A 1_555 1_555
H15A C19A 1_555 1_555
C20A N10A 1_555 1_555
H16A C20A 1_555 1_555
C21A C20A 1_555 1_555
H17A C21A 1_555 1_555
C22A C21A 1_555 1_555
C23A C22A 1_555 1_555
H18A C23A 1_555 1_555
C24A N10A 1_555 1_555
H19A C24A 1_555 1_555
C25A C34A 1_555 1_555
C26A N11A 1_555 1_555
C27A N14A 1_555 1_555
C28A C27A 1_555 1_555
H20A C28A 1_555 1_555
C29A C28A 1_555 1_555
H21A C29A 1_555 1_555
C30A C29A 1_555 1_555
H22A C30A 1_555 1_555
C31A N14A 1_555 1_555
H23A C31A 1_555 1_555
C32A N15A 1_555 1_555
H24A C32A 1_555 1_555
C33A C32A 1_555 1_555
H25A C33A 1_555 1_555
C34A C33A 1_555 1_555
C35A C34A 1_555 1_555
H26A C35A 1_555 1_555
C36A N15A 1_555 1_555
H27A C36A 1_555 1_555
N3 C2 1_555 1_555
N8 C14 1_555 1_555
N13 C26 1_555 1_555
N14 Co3_2 1_555 1_555
C2 C3 1_555 1_555
C6 C7 1_555 1_555
C11 C12 1_555 1_555
C14 C15 1_555 1_555
C18 C19 1_555 1_555
C23 C24 1_555 1_555
C30 C31 1_555 1_555
C35 C36 1_555 1_555
N3A C2A 1_555 1_555
N8A C14A 1_555 1_555
N13A C26A 1_555 1_555
C2A C3A 1_555 1_555
C6A C7A 1_555 1_555
C9A C10A 1_555 1_555
C11A C12A 1_555 1_555
C14A C15A 1_555 1_555
C18A C19A 1_555 1_555
C23A C24A 1_555 1_555
C26A C27A 1_555 1_555
C30A C31A 1_555 1_555
C35A C36A 1_555 1_555

#END
