
#######################################################################
#
#                 Cambridge Crystallographic Data Centre
#                                CCDC 
#
#######################################################################
#
# If this CIF has been generated from an entry in the Cambridge 
# Structural Database, then it will include bibliographic, chemical, 
# crystal, experimental, refinement or atomic coordinate data resulting 
# from the CCDC's data processing and validation procedures.
#
#######################################################################

data_NANYUX02
_symmetry_cell_setting           monoclinic
_symmetry_space_group_name_H-M   'P 21/n'
_symmetry_Int_Tables_number      14
_space_group_name_Hall           '-P 2yn'
loop_
_symmetry_equiv_pos_site_id
_symmetry_equiv_pos_as_xyz
1 x,y,z
2 1/2-x,1/2+y,1/2-z
3 -x,-y,-z
4 1/2+x,1/2-y,1/2+z
_cell_length_a                   9.4801(9)
_cell_length_b                   16.3027(16)
_cell_length_c                   11.5510(11)
_cell_angle_alpha                90
_cell_angle_beta                 97.138(2)
_cell_angle_gamma                90
_cell_volume                     1771.39
loop_
_atom_site_label
_atom_site_type_symbol
_atom_site_fract_x
_atom_site_fract_y
_atom_site_fract_z
Zn1 Zn -0.36373(2) 0.079722(14) 0.45291(2)
O1 O -0.20355(17) 0.08134(9) 0.36372(15)
O2 O -0.26279(19) 0.20285(12) 0.28722(19)
O3 O 0.0808(2) 0.33260(12) 0.05056(18)
O4 O 0.3093(2) 0.30703(17) 0.0936(2)
O5 O 0.45800(17) 0.06736(10) 0.34683(15)
O6 O 0.30166(19) 0.01976(11) 0.45998(17)
C1 C -0.1759(2) 0.14730(14) 0.3130(2)
C2 C 0.1844(3) 0.29223(17) 0.1023(2)
C3 C 0.3361(2) 0.06276(14) 0.3784(2)
C4 C -0.0265(2) 0.15501(14) 0.2829(2)
C5 C 0.0077(3) 0.21466(15) 0.2052(2)
H1 H -0.0635 0.2482 0.1683
C6 C 0.1464(3) 0.22488(15) 0.1821(2)
C7 C 0.2527(2) 0.17438(14) 0.2368(2)
H2 H 0.3460 0.1806 0.2210
C8 C 0.2200(2) 0.11456(14) 0.3151(2)
C9 C 0.0807(2) 0.10507(14) 0.3376(2)
H3 H 0.0587 0.0650 0.3897
Zn1B Zn 0.36373(2) -0.079722(14) 0.54709(2)
Zn1_2 Zn 0.63627(2) 0.079722(14) 0.45291(2)
Zn1C Zn 0.13627(2) 0.420278(14) -0.04709(2)
O3C O -0.4192(2) 0.16740(12) 0.55056(18)
O5_2 O -0.54200(17) 0.06736(10) 0.34683(15)
O6B O -0.30166(19) -0.01976(11) 0.54002(17)
N1 N 0.6557(7) 0.3609(3) 0.2968(5)
H4 H 0.7179 0.3946 0.3383
H5 H 0.6927 0.3100 0.3022
C10 C 0.5229(7) 0.3608(4) 0.3497(7)
H6 H 0.4855 0.4155 0.3495
H7 H 0.5410 0.3413 0.4286
H8 H 0.4550 0.3255 0.3057
C11 C 0.6409(7) 0.3861(3) 0.1762(5)
H9 H 0.5777 0.3492 0.1304
H10 H 0.7323 0.3852 0.1486
H11 H 0.6027 0.4407 0.1695
N2 N 0.6257(4) 0.0955(2) 0.9799(3)
O7 O 0.7097(5) -0.0250(2) 1.0543(4)
C12 C 0.6604(6) 0.0444(3) 1.0657(5)
H12 H 0.6473 0.0613 1.1405
C13 C 0.5628(8) 0.1733(3) 1.0018(5)
H13 H 0.5592 0.1795 1.0841
H14 H 0.4681 0.1757 0.9612
H15 H 0.6189 0.2166 0.9748
C14 C 0.6353(10) 0.0746(4) 0.8626(5)
H16 H 0.6716 0.0198 0.8589
H17 H 0.6983 0.1121 0.8306
H18 H 0.5428 0.0777 0.8185
C15? C 0.5229(7) 0.3608(4) 0.3497(7)
C16? C 0.6409(7) 0.3861(3) 0.1762(5)
H19? H 0.4871 0.3171 0.2054
H20? H 0.6205 0.2909 0.2681
H21? H 0.6013 0.3858 0.3975
H22? H 0.4888 0.3149 0.3903
H23? H 0.4478 0.4002 0.3331
H24? H 0.5913 0.4371 0.1618
H25? H 0.6464 0.3585 0.1035
H26? H 0.7351 0.3965 0.2142
N3? N 0.5654(17) 0.3352(8) 0.2502(12)
loop_
_geom_bond_atom_site_label_1
_geom_bond_atom_site_label_2
_geom_bond_site_symmetry_1
_geom_bond_site_symmetry_2
Zn1 O1 1_555 1_555
O1 C1 1_555 1_555
O2 C1 1_555 1_555
O3 C2 1_555 1_555
O4 C2 1_555 1_555
O5 C3 1_555 1_555
O6 C3 1_555 1_555
C1 C4 1_555 1_555
C2 C6 1_555 1_555
C3 C8 1_555 1_555
C4 C5 1_555 1_555
C5 H1 1_555 1_555
C6 C5 1_555 1_555
C7 C6 1_555 1_555
H2 C7 1_555 1_555
C8 C7 1_555 1_555
C9 C4 1_555 1_555
H3 C9 1_555 1_555
N1 H4 1_555 1_555
H5 N1 1_555 1_555
C10 N1 1_555 1_555
H6 C10 1_555 1_555
H7 C10 1_555 1_555
H8 C10 1_555 1_555
C11 N1 1_555 1_555
H9 C11 1_555 1_555
H10 C11 1_555 1_555
H11 C11 1_555 1_555
N2 C12 1_555 1_555
O7 C12 1_555 1_555
C12 H12 1_555 1_555
C13 N2 1_555 1_555
H13 C13 1_555 1_555
H14 C13 1_555 1_555
H15 C13 1_555 1_555
C14 N2 1_555 1_555
H16 C14 1_555 1_555
H17 C14 1_555 1_555
H18 C14 1_555 1_555
Zn1B O6 1_555 1_555
Zn1_2 O5 1_555 1_555
Zn1C O3 1_555 1_555
O3C Zn1 1_555 1_555
O5_2 Zn1 1_555 1_555
O6B Zn1 1_555 1_555
C8 C9 1_555 1_555

#END
