
#######################################################################
#
#                 Cambridge Crystallographic Data Centre
#                                CCDC 
#
#######################################################################
#
# If this CIF has been generated from an entry in the Cambridge 
# Structural Database, then it will include bibliographic, chemical, 
# crystal, experimental, refinement or atomic coordinate data resulting 
# from the CCDC's data processing and validation procedures.
#
#######################################################################

data_NAQQON
_symmetry_cell_setting           tetragonal
_symmetry_space_group_name_H-M   'I 41/a'
_symmetry_Int_Tables_number      88
_space_group_name_Hall           '-I 4ad'
loop_
_symmetry_equiv_pos_site_id
_symmetry_equiv_pos_as_xyz
1 x,y,z
2 1/2-x,-y,1/2+z
3 3/4-y,1/4+x,1/4+z
4 3/4+y,3/4-x,3/4+z
5 1/2+x,1/2+y,1/2+z
6 -x,1/2-y,z
7 1/4-y,3/4+x,3/4+z
8 1/4+y,1/4-x,1/4+z
9 -x,-y,-z
10 1/2+x,y,1/2-z
11 1/4+y,3/4-x,3/4-z
12 1/4-y,1/4+x,1/4-z
13 1/2-x,1/2-y,1/2-z
14 x,1/2+y,-z
15 3/4+y,1/4-x,1/4-z
16 3/4-y,3/4+x,3/4-z
_cell_length_a                   21.9314(10)
_cell_length_b                   21.9314(10)
_cell_length_c                   16.7059(15)
_cell_angle_alpha                90
_cell_angle_beta                 90
_cell_angle_gamma                90
_cell_volume                     8035.31
loop_
_atom_site_label
_atom_site_type_symbol
_atom_site_fract_x
_atom_site_fract_y
_atom_site_fract_z
W1 W 0.464872(17) 0.357395(17) 0.02461(2)
W2 W 0.605323(17) 0.295957(17) 0.02422(2)
W3 W 0.565847(17) 0.396250(16) -0.11722(2)
Si1 Si 0.5000 0.2500 -0.1250
O1 O 0.4303(3) 0.4015(3) 0.0951(4)
O2 O 0.6613(3) 0.3005(3) 0.0944(4)
O3 O 0.5973(3) 0.4654(3) -0.1396(4)
O4 O 0.5398(3) 0.3378(3) 0.0775(4)
O5 O 0.5094(3) 0.4175(3) -0.0347(4)
O6 O 0.4347(3) 0.2789(3) 0.0515(3)
O7 O 0.6204(3) 0.3685(3) -0.0349(4)
O8 O 0.6435(3) 0.2500(3) -0.0585(4)
O9 O 0.4054(3) 0.3574(3) -0.0583(4)
O10 O 0.5251(2) 0.3050(2) -0.0688(3)
W1E W 0.535128(17) 0.142605(17) 0.02461(2)
W1J W 0.607395(17) 0.285128(17) -0.27461(2)
W1O W 0.392605(17) 0.214872(17) -0.27461(2)
W2E W 0.394677(17) 0.204043(17) 0.02422(2)
W2J W 0.545957(17) 0.144677(17) -0.27422(2)
W2O W 0.454043(17) 0.355323(17) -0.27422(2)
W3O W 0.353750(16) 0.315847(17) -0.13278(2)
W3E W 0.434153(17) 0.103750(16) -0.11722(2)
W3J W 0.646250(16) 0.184153(17) -0.13278(2)
O1E O 0.5697(3) 0.0985(3) 0.0951(4)
O1J O 0.6515(3) 0.3197(3) -0.3451(4)
O1O O 0.3485(3) 0.1803(3) -0.3451(4)
O2E O 0.3387(3) 0.1995(3) 0.0944(4)
O2J O 0.5505(3) 0.0887(3) -0.3444(4)
O2O O 0.4495(3) 0.4113(3) -0.3444(4)
O3O O 0.2846(3) 0.3473(3) -0.1104(4)
O3E O 0.4027(3) 0.0346(3) -0.1396(4)
O3J O 0.7154(3) 0.1527(3) -0.1104(4)
O4E O 0.4602(3) 0.1622(3) 0.0775(4)
O4J O 0.5878(3) 0.2102(3) -0.3275(4)
O4O O 0.4122(3) 0.2898(3) -0.3275(4)
O5E O 0.4906(3) 0.0825(3) -0.0347(4)
O5J O 0.6675(3) 0.2406(3) -0.2153(4)
O5O O 0.3325(3) 0.2594(3) -0.2153(4)
O6E O 0.5653(3) 0.2211(3) 0.0515(3)
O6J O 0.5289(3) 0.3153(3) -0.3015(3)
O6O O 0.4711(3) 0.1847(3) -0.3015(3)
O7E O 0.3796(3) 0.1315(3) -0.0349(4)
O7J O 0.6185(3) 0.1296(3) -0.2151(4)
O7O O 0.3815(3) 0.3704(3) -0.2151(4)
O8O O 0.5000(3) 0.3935(3) -0.1915(4)
O8E O 0.3565(3) 0.2500(3) -0.0585(4)
O8J O 0.5000(3) 0.1065(3) -0.1915(4)
O9J O 0.6074(3) 0.3446(3) -0.1917(4)
O9E O 0.5946(3) 0.1426(3) -0.0583(4)
O9O O 0.3926(3) 0.1554(3) -0.1917(4)
O10E O 0.4749(2) 0.1950(2) -0.0688(3)
O10J O 0.5550(2) 0.2249(2) -0.1812(3)
O10O O 0.4450(2) 0.2751(2) -0.1812(3)
Pr1 Pr 0.60950(3) 0.57456(3) -0.38436(3)
O11 O 0.6407(3) 0.4991(3) -0.4892(4)
O12 O 0.6364(3) 0.6843(4) -0.3909(4)
O13 O 0.6734(3) 0.7667(4) -0.4503(4)
O14 O 0.6809(3) 0.4717(3) -0.6060(4)
O15 O 0.6274(3) 0.6125(5) -0.2446(4)
O16 O 0.5264(4) 0.6203(6) -0.4688(6)
O17 O 0.5270(5) 0.4907(6) -0.4244(6)
O18 O 0.6251(5) 0.4777(5) -0.3037(6)
C1 C 0.6831(4) 0.6717(4) -0.5162(5)
C2 C 0.7170(4) 0.6952(4) -0.5791(6)
H1 H 0.7278 0.7361 -0.5810
C3 C 0.7343(5) 0.6546(5) -0.6397(6)
H2 H 0.7568 0.6684 -0.6833
C4 C 0.7179(4) 0.5943(4) -0.6343(6)
H3 H 0.7282 0.5668 -0.6745
C5 C 0.6861(4) 0.5755(4) -0.5683(5)
C6 C 0.6675(4) 0.5103(4) -0.5544(6)
C7 C 0.6633(5) 0.7110(5) -0.4477(6)
N1 N 0.6679(3) 0.6138(3) -0.5107(4)
Pr1N Pr 0.32456(3) 0.64050(3) -0.36564(3)
Pr1G Pr 0.82456(3) 0.64050(3) -0.13436(3)
Pr1K Pr 0.67544(3) 0.85950(3) -0.36564(3)
Pr1F Pr 0.67544(3) 0.35950(3) -0.63436(3)
Pr1I Pr 0.10950(3) 0.57456(3) -0.11564(3)
Pr1I_2 Pr 1.10950(3) 0.57456(3) -0.11564(3)
Pr1E Pr 0.39050(3) 0.92544(3) -0.38436(3)
Pr1C Pr 0.32456(3) 1.14050(3) -0.63436(3)
O11N O 0.2491(3) 0.6093(3) -0.2608(4)
O11G O 0.7491(3) 0.6093(3) -0.2392(4)
O11E O 0.3593(3) 1.0009(3) -0.4892(4)
O11K O 0.7509(3) 0.8907(3) -0.2608(4)
O12N O 0.4343(4) 0.6136(3) -0.3591(4)
O12G O 0.9343(4) 0.6136(3) -0.1409(4)
O12E O 0.3636(3) 0.8157(4) -0.3909(4)
O12K O 0.5657(4) 0.8864(3) -0.3591(4)
O13N O 0.5167(4) 0.5766(3) -0.2997(4)
O13G O 1.0167(4) 0.5766(3) -0.2003(4)
O13E O 0.3266(3) 0.7333(4) -0.4503(4)
O13L O 0.8266(3) 0.7333(4) -0.0497(4)
O14N O 0.2217(3) 0.5691(3) -0.1440(4)
O14G O 0.7217(3) 0.5691(3) -0.3560(4)
O14E O 0.3191(3) 1.0283(3) -0.6060(4)
O14H O 0.3191(3) 0.5283(3) -0.3940(4)
O14A O 0.8191(3) 0.5283(3) -0.1060(4)
O14M O 0.6809(3) 0.9717(3) -0.3940(4)
O15N O 0.3625(5) 0.6226(3) -0.5054(4)
O15G O 0.8625(5) 0.6226(3) 0.0054(4)
O15K O 0.6375(5) 0.8774(3) -0.5054(4)
O16N O 0.3703(6) 0.7236(4) -0.2812(6)
O16G O 0.8703(6) 0.7236(4) -0.2188(6)
O16K O 0.6297(6) 0.7764(4) -0.2812(6)
O17N O 0.2407(6) 0.7230(5) -0.3256(6)
O17G O 0.7407(6) 0.7230(5) -0.1744(6)
O17K O 0.7593(6) 0.7770(5) -0.3256(6)
O18N O 0.2277(5) 0.6249(5) -0.4463(6)
O18G O 0.7277(5) 0.6249(5) -0.0537(6)
O18K O 0.7723(5) 0.8751(5) -0.4463(6)
C1N C 0.4217(4) 0.5669(4) -0.2338(5)
C1G C 0.9217(4) 0.5669(4) -0.2662(5)
C1E C 0.3169(4) 0.8283(4) -0.5162(5)
C2N C 0.4452(4) 0.5330(4) -0.1709(6)
C2G C 0.9452(4) 0.5330(4) -0.3291(6)
C2E C 0.2830(4) 0.8048(4) -0.5791(6)
H1N H 0.4861 0.5222 -0.1690
H1G H 0.9861 0.5222 -0.3310
H1E H 0.2722 0.7639 -0.5810
C3N C 0.4046(5) 0.5157(5) -0.1103(6)
C3G C 0.9046(5) 0.5157(5) -0.3897(6)
C3E C 0.2657(5) 0.8454(5) -0.6397(6)
H2N H 0.4184 0.4932 -0.0667
H2G H 0.9184 0.4932 -0.4333
H2E H 0.2432 0.8316 -0.6833
C4N C 0.3443(4) 0.5321(4) -0.1157(6)
C4G C 0.8443(4) 0.5321(4) -0.3843(6)
C4E C 0.2821(4) 0.9057(4) -0.6343(6)
H3N H 0.3168 0.5218 -0.0755
H3G H 0.8168 0.5218 -0.4245
H3E H 0.2718 0.9332 -0.6745
C5N C 0.3255(4) 0.5639(4) -0.1817(5)
C5G C 0.8255(4) 0.5639(4) -0.3183(5)
C5E C 0.3139(4) 0.9245(4) -0.5683(5)
C6N C 0.2603(4) 0.5825(4) -0.1956(6)
C6G C 0.7603(4) 0.5825(4) -0.3044(6)
C6E C 0.3325(4) 0.9897(4) -0.5544(6)
C7N C 0.4610(5) 0.5867(5) -0.3023(6)
C7G C 0.9610(5) 0.5867(5) -0.1977(6)
C7E C 0.3367(5) 0.7890(5) -0.4477(6)
N1N N 0.3638(3) 0.5821(3) -0.2393(4)
N1G N 0.8638(3) 0.5821(3) -0.2607(4)
N1E N 0.3321(3) 0.8862(3) -0.5107(4)
N1K N 0.6362(3) 0.9179(3) -0.2393(4)
O19 O 0.5000 0.7500 -0.5194(10)
O20 O 0.7202(8) 0.4361(7) -0.3117(10)
loop_
_geom_bond_atom_site_label_1
_geom_bond_atom_site_label_2
_geom_bond_site_symmetry_1
_geom_bond_site_symmetry_2
W1 O1 1_555 1_555
W2 O2 1_555 1_555
W3 O3 1_555 1_555
Si1 O10 1_555 1_555
O4 W1 1_555 1_555
O5 W1 1_555 1_555
O6 W1 1_555 1_555
O7 W2 1_555 1_555
O8 W2 1_555 1_555
O9 W1 1_555 1_555
O10 W1 1_555 1_555
Pr1 O11 1_555 1_555
O11 C6 1_555 1_555
O12 Pr1 1_555 1_555
O13 C7 1_555 1_555
O14 C6 1_555 1_555
O15 Pr1 1_555 1_555
O16 Pr1 1_555 1_555
O17 Pr1 1_555 1_555
O18 Pr1 1_555 1_555
C1 C2 1_555 1_555
C2 H1 1_555 1_555
C3 C2 1_555 1_555
H2 C3 1_555 1_555
C4 C3 1_555 1_555
H3 C4 1_555 1_555
C5 C4 1_555 1_555
C6 C5 1_555 1_555
C7 O12 1_555 1_555
N1 Pr1 1_555 1_555
W1E O1E 1_555 1_555
W1J O1J 1_555 1_555
W1O O1O 1_555 1_555
W2E O6 1_555 1_555
W2J O2J 1_555 1_555
W2O O2O 1_555 1_555
W3O O9 1_555 1_555
W3E O3E 1_555 1_555
W3J O8 1_555 1_555
O2E W2E 1_555 1_555
O3O W3O 1_555 1_555
O3J W3J 1_555 1_555
O4E W1E 1_555 1_555
O4J W1J 1_555 1_555
O4O W1O 1_555 1_555
O5E W1E 1_555 1_555
O5J W1J 1_555 1_555
O5O W1O 1_555 1_555
O6E W2 1_555 1_555
O6J W1J 1_555 1_555
O6O W1O 1_555 1_555
O7E W2E 1_555 1_555
O7J W2J 1_555 1_555
O7O W2O 1_555 1_555
O8O W3 1_555 1_555
O8E W2E 1_555 1_555
O8J W2J 1_555 1_555
O9J W3 1_555 1_555
O9E W1E 1_555 1_555
O9O W1O 1_555 1_555
O10E Si1 1_555 1_555
O10J Si1 1_555 1_555
O10O Si1 1_555 1_555
Pr1N O11N 1_555 1_555
Pr1G O11G 1_555 1_555
Pr1K O13 1_555 1_555
Pr1F O14 1_555 1_555
Pr1I O14N 1_555 1_555
Pr1I_2 O13G 1_555 1_555
Pr1E O11E 1_555 1_555
Pr1C O14E 1_555 1_555
O11N C6N 1_555 1_555
O11G C6G 1_555 1_555
O11E C6E 1_555 1_555
O11K Pr1K 1_555 1_555
O12N Pr1N 1_555 1_555
O12G Pr1G 1_555 1_555
O12E Pr1E 1_555 1_555
O12K Pr1K 1_555 1_555
O13N Pr1 1_555 1_555
O13G C7G 1_555 1_555
O13E Pr1N 1_555 1_555
O13L Pr1G 1_555 1_555
O14N C6N 1_555 1_555
O14G Pr1 1_555 1_555
O14E C6E 1_555 1_555
O14H Pr1N 1_555 1_555
O14A Pr1G 1_555 1_555
O14M Pr1K 1_555 1_555
O15N Pr1N 1_555 1_555
O15G Pr1G 1_555 1_555
O15K Pr1K 1_555 1_555
O16N Pr1N 1_555 1_555
O16G Pr1G 1_555 1_555
O16K Pr1K 1_555 1_555
O17N Pr1N 1_555 1_555
O17G Pr1G 1_555 1_555
O17K Pr1K 1_555 1_555
O18N Pr1N 1_555 1_555
O18G Pr1G 1_555 1_555
O18K Pr1K 1_555 1_555
C1N C2N 1_555 1_555
C1G C2G 1_555 1_555
C1E C2E 1_555 1_555
C2N H1N 1_555 1_555
C2G H1G 1_555 1_555
C2E H1E 1_555 1_555
C3N C2N 1_555 1_555
C3G C2G 1_555 1_555
C3E C2E 1_555 1_555
H2N C3N 1_555 1_555
H2G C3G 1_555 1_555
H2E C3E 1_555 1_555
C4N C3N 1_555 1_555
C4G C3G 1_555 1_555
C4E C3E 1_555 1_555
H3N C4N 1_555 1_555
H3G C4G 1_555 1_555
H3E C4E 1_555 1_555
C5N C4N 1_555 1_555
C5G C4G 1_555 1_555
C5E C4E 1_555 1_555
C6N C5N 1_555 1_555
C6G O14G 1_555 1_555
C6E C5E 1_555 1_555
C7N O12N 1_555 1_555
C7G O12G 1_555 1_555
C7E O12E 1_555 1_555
N1N Pr1N 1_555 1_555
N1G Pr1G 1_555 1_555
N1E Pr1E 1_555 1_555
N1K Pr1K 1_555 1_555
W2 O4 1_555 1_555
W2 O10 1_555 1_555
W3 O5 1_555 1_555
W3 O7 1_555 1_555
W3 O10 1_555 1_555
C1 C7 1_555 1_555
C1 N1 1_555 1_555
C5 N1 1_555 1_555
W1E O6E 1_555 1_555
W1E O10E 1_555 1_555
W1J O9J 1_555 1_555
W1J O10J 1_555 1_555
W1O O10O 1_555 1_555
W2E O4E 1_555 1_555
W2E O10E 1_555 1_555
W2J O4J 1_555 1_555
W2J O6O 1_555 1_555
W2J O10J 1_555 1_555
W2O O4O 1_555 1_555
W2O O6J 1_555 1_555
W2O O8O 1_555 1_555
W2O O10O 1_555 1_555
W3O O5O 1_555 1_555
W3O O7O 1_555 1_555
W3O O8E 1_555 1_555
W3O O10O 1_555 1_555
W3E O5E 1_555 1_555
W3E O7E 1_555 1_555
W3E O8J 1_555 1_555
W3E O9O 1_555 1_555
W3E O10E 1_555 1_555
W3J O5J 1_555 1_555
W3J O7J 1_555 1_555
W3J O9E 1_555 1_555
W3J O10J 1_555 1_555
O13N C7N 1_555 1_555
O13E C7E 1_555 1_555
C1N C7N 1_555 1_555
C1N N1N 1_555 1_555
C1G C7G 1_555 1_555
C1G N1G 1_555 1_555
C1E C7E 1_555 1_555
C1E N1E 1_555 1_555
C5N N1N 1_555 1_555
C5G C6G 1_555 1_555
C5G N1G 1_555 1_555
C5E N1E 1_555 1_555

#END
