
#######################################################################
#
#                 Cambridge Crystallographic Data Centre
#                                CCDC 
#
#######################################################################
#
# If this CIF has been generated from an entry in the Cambridge 
# Structural Database, then it will include bibliographic, chemical, 
# crystal, experimental, refinement or atomic coordinate data resulting 
# from the CCDC's data processing and validation procedures.
#
#######################################################################

data_NAQRAA
_symmetry_cell_setting           tetragonal
_symmetry_space_group_name_H-M   'I 41/a'
_symmetry_Int_Tables_number      88
_space_group_name_Hall           '-I 4ad'
loop_
_symmetry_equiv_pos_site_id
_symmetry_equiv_pos_as_xyz
1 x,y,z
2 1/2-x,-y,1/2+z
3 3/4-y,1/4+x,1/4+z
4 3/4+y,3/4-x,3/4+z
5 1/2+x,1/2+y,1/2+z
6 -x,1/2-y,z
7 1/4-y,3/4+x,3/4+z
8 1/4+y,1/4-x,1/4+z
9 -x,-y,-z
10 1/2+x,y,1/2-z
11 1/4+y,3/4-x,3/4-z
12 1/4-y,1/4+x,1/4-z
13 1/2-x,1/2-y,1/2-z
14 x,1/2+y,-z
15 3/4+y,1/4-x,1/4-z
16 3/4-y,3/4+x,3/4-z
_cell_length_a                   21.685(5)
_cell_length_b                   21.685(5)
_cell_length_c                   16.470(7)
_cell_angle_alpha                90
_cell_angle_beta                 90
_cell_angle_gamma                90
_cell_volume                     7744.84
loop_
_atom_site_label
_atom_site_type_symbol
_atom_site_fract_x
_atom_site_fract_y
_atom_site_fract_z
Si1 Si 0.0000 0.7500 -0.1250
W1 W 0.03091(2) 0.64063(2) 0.02654(3)
W2 W 0.144760(19) 0.67743(2) -0.13277(3)
W3 W 0.10808(2) 0.79178(2) 0.02659(3)
O1 O 0.0633(4) 0.5939(4) 0.0988(5)
O2 O 0.2135(3) 0.6438(4) -0.1095(5)
O3 O 0.1641(4) 0.7942(4) 0.0989(5)
O4 O 0.0905(3) 0.6385(3) -0.0574(4)
O5 O 0.1453(3) 0.7438(3) -0.0560(4)
O6 O 0.0649(3) 0.7179(3) 0.0545(4)
O7 O -0.0434(3) 0.6633(3) 0.0807(4)
O8 O -0.0163(3) 0.5811(3) -0.0341(4)
O9 O 0.1143(3) 0.6243(3) -0.2171(4)
O10 O -0.0274(3) 0.6957(3) -0.0683(4)
W1E W -0.03091(2) 0.85937(2) 0.02654(3)
W1J W -0.10937(2) 0.71909(2) -0.27654(3)
W1O W 0.10937(2) 0.78091(2) -0.27654(3)
W2J W -0.07257(2) 0.605240(19) -0.11723(3)
W2O W 0.07257(2) 0.894760(19) -0.11723(3)
W2E W -0.144760(19) 0.82257(2) -0.13277(3)
W3E W -0.10808(2) 0.70822(2) 0.02659(3)
W3O W -0.04178(2) 0.85808(2) -0.27659(3)
W3J W 0.04178(2) 0.64192(2) -0.27659(3)
O1E O -0.0633(4) 0.9061(4) 0.0988(5)
O1J O -0.1561(4) 0.6867(4) -0.3488(5)
O1O O 0.1561(4) 0.8133(4) -0.3488(5)
O2J O -0.1062(4) 0.5365(3) -0.1405(5)
O2O O 0.1062(4) 0.9635(3) -0.1405(5)
O2E O -0.2135(3) 0.8562(4) -0.1095(5)
O3E O -0.1641(4) 0.7058(4) 0.0989(5)
O3O O -0.0442(4) 0.9141(4) -0.3489(5)
O3J O 0.0442(4) 0.5859(4) -0.3489(5)
O4E O -0.0905(3) 0.8615(3) -0.0574(4)
O4J O -0.1115(3) 0.6595(3) -0.1926(4)
O4O O 0.1115(3) 0.8405(3) -0.1926(4)
O5J O -0.0062(3) 0.6047(3) -0.1940(4)
O5O O 0.0062(3) 0.8953(3) -0.1940(4)
O5E O -0.1453(3) 0.7562(3) -0.0560(4)
O6E O -0.0649(3) 0.7821(3) 0.0545(4)
O6J O -0.0321(3) 0.6851(3) -0.3045(4)
O6O O 0.0321(3) 0.8149(3) -0.3045(4)
O7E O 0.0434(3) 0.8367(3) 0.0807(4)
O7J O -0.0867(3) 0.7934(3) -0.3307(4)
O7O O 0.0867(3) 0.7066(3) -0.3307(4)
O8O O 0.1689(3) 0.7337(3) -0.2159(4)
O8E O 0.0163(3) 0.9189(3) -0.0341(4)
O8J O -0.1689(3) 0.7663(3) -0.2159(4)
O9O O 0.1257(3) 0.8643(3) -0.0329(4)
O9J O -0.1257(3) 0.6357(3) -0.0329(4)
O9E O -0.1143(3) 0.8757(3) -0.2171(4)
O10E O 0.0274(3) 0.8043(3) -0.0683(4)
O10J O -0.0543(3) 0.7774(3) -0.1817(4)
O10O O 0.0543(3) 0.7226(3) -0.1817(4)
Sm1 Sm -0.17274(3) 0.63680(3) 0.36747(3)
O11 O -0.2498(3) 0.6109(4) 0.2646(4)
O12 O -0.2784(3) 0.5686(4) 0.1456(4)
O13 O -0.0652(4) 0.6110(4) 0.3655(5)
O14 O 0.0186(4) 0.5708(5) 0.3051(5)
O15 O -0.2728(5) 0.6300(6) 0.4374(6)
O16 O -0.1417(6) 0.7195(5) 0.2776(7)
O17 O -0.1395(5) 0.6225(3) 0.5083(5)
O18 O -0.2573(7) 0.7194(7) 0.3231(9)
N1 N -0.1354(4) 0.5798(4) 0.2421(5)
C1 C -0.2387(5) 0.5829(5) 0.1982(7)
C2 C -0.1742(5) 0.5628(4) 0.1825(6)
C3 C -0.1538(5) 0.5311(5) 0.1162(6)
H1 H -0.1807 0.5215 0.0742
C4 C -0.0930(5) 0.5134(5) 0.1121(7)
H2 H -0.0792 0.4904 0.0680
C5 C -0.0528(5) 0.5295(5) 0.1721(7)
H3 H -0.0116 0.5177 0.1701
C6 C -0.0755(4) 0.5637(5) 0.2354(6)
C7 C -0.0370(5) 0.5826(6) 0.3067(8)
Sm1G Sm -0.11320(3) 0.42274(3) 0.61747(3)
Sm1J Sm -0.11320(3) 0.92274(3) 0.38253(3)
Sm1F Sm -0.38680(3) 0.57726(3) 0.11747(3)
Sm1O Sm 0.11320(3) 0.57726(3) 0.38253(3)
Sm1M Sm -0.17274(3) 0.13680(3) 0.63253(3)
Sm1M_2 Sm -0.17274(3) 1.13680(3) 0.63253(3)
Sm1A Sm -0.32726(3) 0.36320(3) 0.86747(3)
Sm1N Sm -0.61320(3) 0.42274(3) 0.88253(3)
O11G O -0.1391(4) 0.4998(3) 0.5146(4)
O11J O -0.1391(4) 0.9998(3) 0.4854(4)
O11A O -0.2502(3) 0.3891(4) 0.7646(4)
O11F O -0.3609(4) 0.5002(3) 0.0146(4)
O12G O -0.1814(4) 0.5284(3) 0.3956(4)
O12J O -0.1814(4) 1.0284(3) 0.6044(4)
O12A O -0.2216(3) 0.4314(4) 0.6456(4)
O12L O -0.2216(3) 0.9314(4) 0.3544(4)
O13G O -0.1390(4) 0.3152(4) 0.6155(5)
O13J O -0.1390(4) 0.8152(4) 0.3845(5)
O13A O -0.4348(4) 0.3890(4) 0.8655(5)
O13F O -0.3610(4) 0.6848(4) 0.1155(5)
O14G O -0.1792(5) 0.2314(4) 0.5551(5)
O14J O -0.1792(5) 0.7314(4) 0.4449(5)
O14A O -0.5186(4) 0.4292(5) 0.8051(5)
O14H O -0.0186(4) 0.4292(5) 0.6949(5)
O14E O -0.0186(4) 0.9292(5) 0.3051(5)
O14I O -0.4814(4) 0.5708(5) 0.1949(5)
O15G O -0.1200(6) 0.5228(5) 0.6874(6)
O15J O -0.1200(6) 1.0228(5) 0.3126(6)
O15F O -0.3800(6) 0.4772(5) 0.1874(6)
O16G O -0.0305(5) 0.3917(6) 0.5276(7)
O16J O -0.0305(5) 0.8917(6) 0.4724(7)
O16F O -0.4695(5) 0.6083(6) 0.0276(7)
O17G O -0.1275(3) 0.3895(5) 0.7583(5)
O17J O -0.1275(3) 0.8895(5) 0.2417(5)
O17F O -0.3725(3) 0.6105(5) 0.2583(5)
O18G O -0.0306(7) 0.5073(7) 0.5731(9)
O18J O -0.0306(7) 1.0073(7) 0.4269(9)
O18F O -0.4694(7) 0.4927(7) 0.0731(9)
N1G N -0.1702(4) 0.3854(4) 0.4921(5)
N1J N -0.1702(4) 0.8854(4) 0.5079(5)
N1A N -0.3646(4) 0.4202(4) 0.7421(5)
N1F N -0.3298(4) 0.6146(4) -0.0079(5)
C1G C -0.1671(5) 0.4887(5) 0.4482(7)
C1J C -0.1671(5) 0.9887(5) 0.5518(7)
C1A C -0.2613(5) 0.4171(5) 0.6982(7)
C2G C -0.1872(4) 0.4242(5) 0.4325(6)
C2J C -0.1872(4) 0.9242(5) 0.5675(6)
C2A C -0.3258(5) 0.4372(4) 0.6825(6)
C3G C -0.2189(5) 0.4038(5) 0.3662(6)
C3J C -0.2189(5) 0.9038(5) 0.6338(6)
C3A C -0.3462(5) 0.4689(5) 0.6162(6)
H1G H -0.2285 0.4307 0.3242
H1J H -0.2285 0.9307 0.6758
H1A H -0.3193 0.4785 0.5742
C4G C -0.2366(5) 0.3430(5) 0.3621(7)
C4J C -0.2366(5) 0.8430(5) 0.6379(7)
C4A C -0.4070(5) 0.4866(5) 0.6121(7)
H2G H -0.2596 0.3292 0.3180
H2J H -0.2596 0.8292 0.6820
H2A H -0.4208 0.5096 0.5680
C5G C -0.2205(5) 0.3028(5) 0.4221(7)
C5J C -0.2205(5) 0.8028(5) 0.5779(7)
C5A C -0.4472(5) 0.4705(5) 0.6721(7)
H3G H -0.2323 0.2616 0.4201
H3J H -0.2323 0.7616 0.5799
H3A H -0.4884 0.4823 0.6701
C6G C -0.1863(5) 0.3255(4) 0.4854(6)
C6J C -0.1863(5) 0.8255(4) 0.5146(6)
C6A C -0.4245(4) 0.4363(5) 0.7354(6)
C7G C -0.1674(6) 0.2870(5) 0.5567(8)
C7J C -0.1674(6) 0.7870(5) 0.4433(8)
C7A C -0.4630(5) 0.4174(6) 0.8067(8)
O19 O 0.0000 0.7500 0.2357(11)
O20 O -0.3151(13) 0.5345(13) 0.4431(17)
loop_
_geom_bond_atom_site_label_1
_geom_bond_atom_site_label_2
_geom_bond_site_symmetry_1
_geom_bond_site_symmetry_2
Si1 O10 1_555 1_555
W1 O1 1_555 1_555
W2 O2 1_555 1_555
W3 O3 1_555 1_555
O4 W1 1_555 1_555
O5 W2 1_555 1_555
O6 W1 1_555 1_555
O7 W1 1_555 1_555
O8 W1 1_555 1_555
O9 W2 1_555 1_555
O10 W1 1_555 1_555
Sm1 O11 1_555 1_555
O11 C1 1_555 1_555
O12 C1 1_555 1_555
O13 Sm1 1_555 1_555
O14 C7 1_555 1_555
O15 Sm1 1_555 1_555
O16 Sm1 1_555 1_555
O17 Sm1 1_555 1_555
O18 Sm1 1_555 1_555
N1 Sm1 1_555 1_555
C1 C2 1_555 1_555
C2 N1 1_555 1_555
C3 C2 1_555 1_555
H1 C3 1_555 1_555
C4 C3 1_555 1_555
H2 C4 1_555 1_555
C5 C4 1_555 1_555
H3 C5 1_555 1_555
C6 N1 1_555 1_555
C7 O13 1_555 1_555
W1E O1E 1_555 1_555
W1J O1J 1_555 1_555
W1O O1O 1_555 1_555
W2J O8 1_555 1_555
W2O O2O 1_555 1_555
W2E O2E 1_555 1_555
W3E O7 1_555 1_555
W3O O3O 1_555 1_555
W3J O9 1_555 1_555
O2J W2J 1_555 1_555
O3E W3E 1_555 1_555
O3J W3J 1_555 1_555
O4E W1E 1_555 1_555
O4J W1J 1_555 1_555
O4O W1O 1_555 1_555
O5J W2J 1_555 1_555
O5O W2O 1_555 1_555
O5E W2E 1_555 1_555
O6E W1E 1_555 1_555
O6J W1J 1_555 1_555
O6O W1O 1_555 1_555
O7E W3 1_555 1_555
O7J W1J 1_555 1_555
O7O W1O 1_555 1_555
O8O W2 1_555 1_555
O8E W1E 1_555 1_555
O8J W1J 1_555 1_555
O9O W3 1_555 1_555
O9J W2J 1_555 1_555
O9E W2E 1_555 1_555
O10E Si1 1_555 1_555
O10J Si1 1_555 1_555
O10O Si1 1_555 1_555
Sm1G O11G 1_555 1_555
Sm1J O11J 1_555 1_555
Sm1F O12 1_555 1_555
Sm1O O14 1_555 1_555
Sm1M O14G 1_555 1_555
Sm1M_2 O12J 1_555 1_555
Sm1A O11A 1_555 1_555
Sm1N O14A 1_555 1_555
O11G C1G 1_555 1_555
O11J C1J 1_555 1_555
O11A C1A 1_555 1_555
O11F Sm1F 1_555 1_555
O12G Sm1 1_555 1_555
O12J C1J 1_555 1_555
O12A Sm1G 1_555 1_555
O12L Sm1J 1_555 1_555
O13G Sm1G 1_555 1_555
O13J Sm1J 1_555 1_555
O13A Sm1A 1_555 1_555
O13F Sm1F 1_555 1_555
O14G C7G 1_555 1_555
O14J Sm1 1_555 1_555
O14A C7A 1_555 1_555
O14H Sm1G 1_555 1_555
O14E Sm1J 1_555 1_555
O14I Sm1F 1_555 1_555
O15G Sm1G 1_555 1_555
O15J Sm1J 1_555 1_555
O15F Sm1F 1_555 1_555
O16G Sm1G 1_555 1_555
O16J Sm1J 1_555 1_555
O16F Sm1F 1_555 1_555
O17G Sm1G 1_555 1_555
O17J Sm1J 1_555 1_555
O17F Sm1F 1_555 1_555
O18G Sm1G 1_555 1_555
O18J Sm1J 1_555 1_555
O18F Sm1F 1_555 1_555
N1G Sm1G 1_555 1_555
N1J Sm1J 1_555 1_555
N1A Sm1A 1_555 1_555
N1F Sm1F 1_555 1_555
C1G O12G 1_555 1_555
C1J C2J 1_555 1_555
C1A O12A 1_555 1_555
C2G N1G 1_555 1_555
C2J N1J 1_555 1_555
C2A N1A 1_555 1_555
C3G C2G 1_555 1_555
C3J C2J 1_555 1_555
C3A C2A 1_555 1_555
H1G C3G 1_555 1_555
H1J C3J 1_555 1_555
H1A C3A 1_555 1_555
C4G C3G 1_555 1_555
C4J C3J 1_555 1_555
C4A C3A 1_555 1_555
H2G C4G 1_555 1_555
H2J C4J 1_555 1_555
H2A C4A 1_555 1_555
C5G C4G 1_555 1_555
C5J C4J 1_555 1_555
C5A C4A 1_555 1_555
H3G C5G 1_555 1_555
H3J C5J 1_555 1_555
H3A C5A 1_555 1_555
C6G N1G 1_555 1_555
C6J N1J 1_555 1_555
C6A N1A 1_555 1_555
C7G O13G 1_555 1_555
C7J O13J 1_555 1_555
C7A O13A 1_555 1_555
W2 O4 1_555 1_555
W2 O10O 1_555 1_555
W3 O5 1_555 1_555
W3 O6 1_555 1_555
W3 O10E 1_555 1_555
O10 W2J 1_555 1_555
O10 W3E 1_555 1_555
C5 C6 1_555 1_555
C6 C7 1_555 1_555
W1E O7E 1_555 1_555
W1E O10E 1_555 1_555
W1J O10J 1_555 1_555
W1O O8O 1_555 1_555
W1O O10O 1_555 1_555
W2J O4J 1_555 1_555
W2O O4O 1_555 1_555
W2O O8E 1_555 1_555
W2O O9O 1_555 1_555
W2O O10E 1_555 1_555
W2E O4E 1_555 1_555
W2E O8J 1_555 1_555
W2E O10J 1_555 1_555
W3E O5E 1_555 1_555
W3E O6E 1_555 1_555
W3E O9J 1_555 1_555
W3O O5O 1_555 1_555
W3O O6O 1_555 1_555
W3O O7J 1_555 1_555
W3O O9E 1_555 1_555
W3O O10J 1_555 1_555
W3J O5J 1_555 1_555
W3J O6J 1_555 1_555
W3J O7O 1_555 1_555
W3J O10O 1_555 1_555
O14J C7J 1_555 1_555
C1G C2G 1_555 1_555
C1A C2A 1_555 1_555
C5G C6G 1_555 1_555
C5J C6J 1_555 1_555
C5A C6A 1_555 1_555
C6G C7G 1_555 1_555
C6J C7J 1_555 1_555
C6A C7A 1_555 1_555

#END
