
#######################################################################
#
#                 Cambridge Crystallographic Data Centre
#                                CCDC 
#
#######################################################################
#
# If this CIF has been generated from an entry in the Cambridge 
# Structural Database, then it will include bibliographic, chemical, 
# crystal, experimental, refinement or atomic coordinate data resulting 
# from the CCDC's data processing and validation procedures.
#
#######################################################################

data_NARTIL
_symmetry_cell_setting           monoclinic
_symmetry_space_group_name_H-M   'C 2/c'
_symmetry_Int_Tables_number      15
_space_group_name_Hall           '-C 2yn'
loop_
_symmetry_equiv_pos_site_id
_symmetry_equiv_pos_as_xyz
1 x,y,z
2 -x,y,1/2-z
3 1/2+x,1/2+y,z
4 1/2-x,1/2+y,1/2-z
5 -x,-y,-z
6 x,-y,1/2+z
7 1/2-x,1/2-y,-z
8 1/2+x,1/2-y,1/2+z
_cell_length_a                   24.038(3)
_cell_length_b                   12.7537(16)
_cell_length_c                   11.8640(15)
_cell_angle_alpha                90
_cell_angle_beta                 110.073(2)
_cell_angle_gamma                90
_cell_volume                     3416.25
loop_
_atom_site_label
_atom_site_type_symbol
_atom_site_fract_x
_atom_site_fract_y
_atom_site_fract_z
Co1 Co 0.2500 0.2500 1.0000
O1 O 0.24513(7) -0.10057(12) 0.57896(15)
O2 O 0.18276(8) -0.11461(13) 0.68072(18)
N1 N 0.24825(10) 0.16317(16) 0.84734(19)
N2 N 0.28440(10) 0.18387(15) 0.78467(19)
H1 H 0.3073 0.2376 0.7976
N3 N 0.34668(9) 0.23442(15) 1.0766(2)
C1 C 0.29532(15) 0.1212(3) 0.5013(3)
H2 H 0.2551 0.1090 0.4629
C2 C 0.33124(19) 0.1367(3) 0.4347(3)
H3 H 0.3150 0.1367 0.3513
C3 C 0.3901(2) 0.1520(4) 0.4893(4)
H4 H 0.4142 0.1616 0.4433
C4 C 0.41451(18) 0.1535(4) 0.6124(4)
H5 H 0.4550 0.1639 0.6498
C5 C 0.37836(14) 0.1394(3) 0.6804(3)
H6 H 0.3947 0.1405 0.7637
C6 C 0.31854(12) 0.12373(19) 0.6254(2)
C7 C 0.28080(11) 0.11187(18) 0.7000(2)
C8 C 0.22166(11) 0.07457(18) 0.8015(2)
H7 H 0.1943 0.0407 0.8283
C9 C 0.23924(11) 0.03761(17) 0.7083(2)
C10 C 0.22109(11) -0.06623(17) 0.6499(2)
C11 C 0.37294(12) 0.1456(2) 1.1274(3)
H8 H 0.3499 0.0853 1.1168
C12 C 0.43221(13) 0.1382(2) 1.1945(3)
H9 H 0.4481 0.0743 1.2281
C13 C 0.46811(11) 0.2259(2) 1.2122(2)
C14 C 0.44132(12) 0.3167(2) 1.1569(3)
H10 H 0.4636 0.3775 1.1639
C15 C 0.38176(12) 0.3180(2) 1.0913(2)
H11 H 0.3650 0.3806 1.0552
Co1C Co 0.2500 -0.2500 0.5000
Co1A Co 0.7500 0.2500 1.5000
Co1C_2 Co 0.2500 0.7500 0.5000
O1C O 0.25487(7) 0.39943(12) 0.92104(15)
O1E O 0.24513(7) 0.10057(12) 1.07896(15)
O2C O 0.31724(8) 0.38539(13) 0.81928(18)
N1C N 0.25175(10) 0.66317(16) 0.65266(19)
N1F N 0.25175(10) 0.33683(16) 1.15266(19)
N2C N 0.21560(10) 0.68387(15) 0.71533(19)
H1C H 0.1927 0.7376 0.7024
N3A N 0.65332(9) 0.23442(15) 1.4234(2)
N3F N 0.15332(9) 0.26558(15) 0.9234(2)
C1C C 0.20468(15) 0.6212(3) 0.9987(3)
H2C H 0.2449 0.6090 1.0371
C2C C 0.16876(19) 0.6367(3) 1.0653(3)
H3C H 0.1850 0.6367 1.1487
C3C C 0.1099(2) 0.6520(4) 1.0107(4)
H4C H 0.0858 0.6616 1.0567
C4C C 0.08549(18) 0.6535(4) 0.8876(4)
H5C H 0.0450 0.6639 0.8502
C5C C 0.12164(14) 0.6394(3) 0.8196(3)
H6C H 0.1053 0.6405 0.7363
C6C C 0.18146(12) 0.62373(19) 0.8746(2)
C7C C 0.21920(11) 0.61187(18) 0.8000(2)
C8C C 0.27834(11) 0.57457(18) 0.6985(2)
H7C H 0.3057 0.5407 0.6717
C9C C 0.26076(11) 0.53761(17) 0.7917(2)
C10C C 0.27891(11) 0.43377(17) 0.8501(2)
C11A C 0.62706(12) 0.1456(2) 1.3726(3)
H8A H 0.6501 0.0853 1.3832
C12A C 0.56779(13) 0.1382(2) 1.3055(3)
H9A H 0.5519 0.0743 1.2719
C13A C 0.53189(11) 0.2259(2) 1.2878(2)
C14A C 0.55868(12) 0.3167(2) 1.3431(3)
H10A H 0.5364 0.3775 1.3361
C15A C 0.61824(12) 0.3180(2) 1.4087(2)
H11A H 0.6350 0.3806 1.4448
loop_
_geom_bond_atom_site_label_1
_geom_bond_atom_site_label_2
_geom_bond_site_symmetry_1
_geom_bond_site_symmetry_2
Co1 N1 1_555 1_555
O1 C10 1_555 1_555
O2 C10 1_555 1_555
N1 N2 1_555 1_555
N2 H1 1_555 1_555
N3 Co1 1_555 1_555
C1 H2 1_555 1_555
C2 C1 1_555 1_555
H3 C2 1_555 1_555
C3 C2 1_555 1_555
H4 C3 1_555 1_555
C4 C3 1_555 1_555
H5 C4 1_555 1_555
C5 C4 1_555 1_555
H6 C5 1_555 1_555
C6 C1 1_555 1_555
C7 N2 1_555 1_555
C8 N1 1_555 1_555
H7 C8 1_555 1_555
C9 C7 1_555 1_555
C10 C9 1_555 1_555
C11 N3 1_555 1_555
H8 C11 1_555 1_555
C12 C11 1_555 1_555
H9 C12 1_555 1_555
C13 C12 1_555 1_555
C14 C13 1_555 1_555
H10 C14 1_555 1_555
C15 N3 1_555 1_555
H11 C15 1_555 1_555
Co1C O1 1_555 1_555
Co1A N3A 1_555 1_555
Co1C_2 N1C 1_555 1_555
O1C Co1 1_555 1_555
O1E Co1 1_555 1_555
O2C C10C 1_555 1_555
N1C N2C 1_555 1_555
N1F Co1 1_555 1_555
N2C H1C 1_555 1_555
N3A C11A 1_555 1_555
N3F Co1 1_555 1_555
C1C H2C 1_555 1_555
C2C C1C 1_555 1_555
H3C C2C 1_555 1_555
C3C C2C 1_555 1_555
H4C C3C 1_555 1_555
C4C C3C 1_555 1_555
H5C C4C 1_555 1_555
C5C C4C 1_555 1_555
H6C C5C 1_555 1_555
C6C C1C 1_555 1_555
C7C N2C 1_555 1_555
C8C N1C 1_555 1_555
H7C C8C 1_555 1_555
C9C C7C 1_555 1_555
C10C O1C 1_555 1_555
C11A H8A 1_555 1_555
C12A C11A 1_555 1_555
H9A C12A 1_555 1_555
C13A C13 1_555 1_555
C14A C13A 1_555 1_555
H10A C14A 1_555 1_555
C15A N3A 1_555 1_555
H11A C15A 1_555 1_555
C5 C6 1_555 1_555
C6 C7 1_555 1_555
C8 C9 1_555 1_555
C14 C15 1_555 1_555
C5C C6C 1_555 1_555
C6C C7C 1_555 1_555
C8C C9C 1_555 1_555
C9C C10C 1_555 1_555
C12A C13A 1_555 1_555
C14A C15A 1_555 1_555

#END
