
#######################################################################
#
#                 Cambridge Crystallographic Data Centre
#                                CCDC 
#
#######################################################################
#
# If this CIF has been generated from an entry in the Cambridge 
# Structural Database, then it will include bibliographic, chemical, 
# crystal, experimental, refinement or atomic coordinate data resulting 
# from the CCDC's data processing and validation procedures.
#
#######################################################################

data_NASDIW
_symmetry_cell_setting           monoclinic
_symmetry_space_group_name_H-M   'C 2/m'
_symmetry_Int_Tables_number      12
_space_group_name_Hall           '-C 2y'
loop_
_symmetry_equiv_pos_site_id
_symmetry_equiv_pos_as_xyz
1 x,y,z
2 -x,y,-z
3 1/2+x,1/2+y,z
4 1/2-x,1/2+y,-z
5 -x,-y,-z
6 x,-y,z
7 1/2-x,1/2-y,-z
8 1/2+x,1/2-y,z
_cell_length_a                   9.678(4)
_cell_length_b                   21.742(8)
_cell_length_c                   7.707(3)
_cell_angle_alpha                90
_cell_angle_beta                 127.400(4)
_cell_angle_gamma                90
_cell_volume                     1288.3
loop_
_atom_site_label
_atom_site_type_symbol
_atom_site_fract_x
_atom_site_fract_y
_atom_site_fract_z
Co1 Co 0.5000 0.191157(15) 0.0000
Na1 Na 0.2500 0.2500 -0.5000
O1 O 0.52550(18) 0.25891(7) -0.1793(2)
O2 O 0.72803(18) 0.29252(7) -0.2088(2)
O3 O 0.4765(2) 0.12290(7) 0.1606(3)
O4 O 0.6722(3) 0.15005(8) 0.5089(3)
C1 C 0.6790(2) 0.26474(9) -0.1126(3)
C2 C 0.5614(3) 0.11501(9) 0.3645(4)
C3 C 0.5242(3) 0.05566(9) 0.4309(3)
C4 C 0.5466(4) 0.0000 0.3625(5)
H1 H 0.5772 0.0000 0.2691
Co1F Co 1.0000 0.308843(15) 0.0000
Co1_2 Co 0.5000 0.191157(15) 1.0000
Co1D Co 0.5000 -0.191157(15) 1.0000
Co1D_2 Co 0.5000 -0.191157(15) 0.0000
Co1F_2 Co 0.0000 0.308843(15) 0.0000
Na1_2 Na 1.2500 0.2500 0.5000
Na1A Na 0.7500 0.2500 -0.5000
Na1A_2 Na 0.7500 0.2500 0.5000
Na1_3 Na 0.2500 0.2500 0.5000
Na1C Na 0.2500 -0.2500 0.5000
Na1B Na 0.7500 -0.2500 0.5000
Na1A_3 Na -0.2500 0.2500 -0.5000
O1F O 0.97450(18) 0.24109(7) 0.1793(2)
O1A O 0.47450(18) 0.25891(7) 0.1793(2)
O1G O 0.02550(18) 0.24109(7) -0.1793(2)
O1F_2 O -0.02550(18) 0.24109(7) -0.8207(2)
O1G_2 O 1.02550(18) 0.24109(7) -0.1793(2)
O1_2 O 1.52550(18) 0.25891(7) 0.8207(2)
O2F O 0.77197(18) 0.20748(7) 0.2088(2)
O2A O 0.27197(18) 0.29252(7) 0.2088(2)
O2G O 0.22803(18) 0.20748(7) -0.2088(2)
O2A_2 O 0.27197(18) 0.29252(7) -0.7912(2)
O2A_3 O 1.27197(18) 0.29252(7) 0.2088(2)
O2G_2 O 1.22803(18) 0.20748(7) 0.7912(2)
O3A O 0.5235(2) 0.12290(7) 0.8394(3)
O3D O 0.5235(2) -0.12290(7) 0.8394(3)
O3E O 0.4765(2) -0.12290(7) 0.1606(3)
O3A_2 O 0.5235(2) 0.12290(7) -0.1606(3)
O3F O 1.0235(2) 0.37710(7) -0.1606(3)
O3G O 0.9765(2) 0.37710(7) 0.1606(3)
O4A O 0.3278(3) 0.15005(8) 0.4911(3)
O4D O 0.3278(3) -0.15005(8) 0.4911(3)
O4E O 0.6722(3) -0.15005(8) 0.5089(3)
O4A_2 O 0.3278(3) 0.15005(8) -0.5089(3)
O4G O 0.1722(3) 0.34995(8) -0.4911(3)
O4G_2 O 1.1722(3) 0.34995(8) 0.5089(3)
O4A_3 O 1.3278(3) 0.15005(8) 0.4911(3)
C1F C 0.8210(2) 0.23526(9) 0.1126(3)
C1A C 0.3210(2) 0.26474(9) 0.1126(3)
C1G C 0.1790(2) 0.23526(9) -0.1126(3)
C2A C 0.4386(3) 0.11501(9) 0.6355(4)
C2D C 0.4386(3) -0.11501(9) 0.6355(4)
C2E C 0.5614(3) -0.11501(9) 0.3645(4)
C3A C 0.4758(3) 0.05566(9) 0.5691(3)
C3D C 0.4758(3) -0.05566(9) 0.5691(3)
C3E C 0.5242(3) -0.05566(9) 0.4309(3)
C4A C 0.4534(4) 0.0000 0.6375(5)
H1A H 0.4228 0.0000 0.7309
loop_
_geom_bond_atom_site_label_1
_geom_bond_atom_site_label_2
_geom_bond_site_symmetry_1
_geom_bond_site_symmetry_2
Co1 O1 1_555 1_555
Na1 O1 1_555 1_555
O1 C1 1_555 1_555
O2 C1 1_555 1_555
O3 Co1 1_555 1_555
O4 C2 1_555 1_555
C1 C1F 1_555 1_555
C2 O3 1_555 1_555
C3 C2 1_555 1_555
C4 C3 1_555 1_555
H1 C4 1_555 1_555
Co1F O2 1_555 1_555
Co1_2 O3A 1_555 1_555
Co1D O3D 1_555 1_555
Co1D_2 O3E 1_555 1_555
Co1F_2 O1G 1_555 1_555
Na1_2 O1F 1_555 1_555
Na1A O2 1_555 1_555
Na1A_2 O4 1_555 1_555
Na1_3 O2A 1_555 1_555
Na1C O4D 1_555 1_555
Na1B O4E 1_555 1_555
Na1A_3 O1G 1_555 1_555
O1F Co1F 1_555 1_555
O1A Co1 1_555 1_555
O1G C1G 1_555 1_555
O1F_2 Na1 1_555 1_555
O1G_2 Co1F 1_555 1_555
O1_2 Na1_2 1_555 1_555
O2F Co1 1_555 1_555
O2A Co1F_2 1_555 1_555
O2G Co1 1_555 1_555
O2A_2 Na1 1_555 1_555
O2A_3 Co1F 1_555 1_555
O2G_2 Na1_2 1_555 1_555
O3A C2A 1_555 1_555
O3D C2D 1_555 1_555
O3E C2E 1_555 1_555
O3A_2 Co1 1_555 1_555
O3F Co1F 1_555 1_555
O3G Co1F 1_555 1_555
O4A Na1_3 1_555 1_555
O4D C2D 1_555 1_555
O4E C2E 1_555 1_555
O4A_2 Na1 1_555 1_555
O4G Na1 1_555 1_555
O4G_2 Na1_2 1_555 1_555
O4A_3 Na1_2 1_555 1_555
C1F O1F 1_555 1_555
C1A O1A 1_555 1_555
C1G O2G 1_555 1_555
C2A O4A 1_555 1_555
C2D C3D 1_555 1_555
C2E C3E 1_555 1_555
C3A C3 1_555 1_555
C3D C3E 1_555 1_555
C3E C4 1_555 1_555
C4A C3A 1_555 1_555
H1A C4A 1_555 1_555
Na1 O2G 1_555 1_555
Na1_2 O2A_3 1_555 1_555
Na1A O1G_2 1_555 1_555
Na1A_2 O1A 1_555 1_555
Na1A_2 O2F 1_555 1_555
O2F C1F 1_555 1_555
O2A C1A 1_555 1_555
C1A C1G 1_555 1_555
C2A C3A 1_555 1_555
C3D C4A 1_555 1_555

#END
