
#######################################################################
#
#                 Cambridge Crystallographic Data Centre
#                                CCDC 
#
#######################################################################
#
# If this CIF has been generated from an entry in the Cambridge 
# Structural Database, then it will include bibliographic, chemical, 
# crystal, experimental, refinement or atomic coordinate data resulting 
# from the CCDC's data processing and validation procedures.
#
#######################################################################

data_NAVBIX
_symmetry_cell_setting           hexagonal
_symmetry_space_group_name_H-M   'P 63 2 2'
_symmetry_Int_Tables_number      182
_space_group_name_Hall           "P 6c 2'c"
loop_
_symmetry_equiv_pos_site_id
_symmetry_equiv_pos_as_xyz
1 x,y,z
2 -y,x-y,z
3 -x+y,-x,z
4 -x,-y,1/2+z
5 y,-x+y,1/2+z
6 x-y,x,1/2+z
7 y,x,-z
8 x-y,-y,-z
9 -x,-x+y,-z
10 -y,-x,1/2-z
11 -x+y,y,1/2-z
12 x,x-y,1/2-z
_cell_length_a                   18.6150(8)
_cell_length_b                   18.6150(8)
_cell_length_c                   24.852(2)
_cell_angle_alpha                90
_cell_angle_beta                 90
_cell_angle_gamma                120
_cell_volume                     7457.93
loop_
_atom_site_label
_atom_site_type_symbol
_atom_site_fract_x
_atom_site_fract_y
_atom_site_fract_z
Cd1 Cd 0.45199(3) 0.25915(4) 0.56295(2)
C1 C 0.1729(7) 0.1661(7) 0.6464(4)
H1 H 0.1640 0.1526 0.6100
C2 C 0.1957(6) 0.1982(6) 0.7520(4)
H2 H 0.2054 0.2095 0.7885
N1 N 0.5093(4) 0.1833(4) 0.5893(3)
C3 C 0.4140(7) 0.0624(7) 0.6499(3)
H3 H 0.3706 0.0734 0.6522
N2 N 0.5850(4) 0.2075(4) 0.5715(2)
C4 C 0.1181(5) 0.1708(5) 0.7323(3)
C5 C 0.4855(6) 0.1131(5) 0.6222(3)
C6 C 0.2482(6) 0.1973(6) 0.6656(4)
C7 C 0.2609(6) 0.2100(6) 0.7188(4)
H4 H 0.3129 0.2265 0.7334
C8 C 0.3194(7) 0.2196(6) 0.6294(4)
O1 O 0.3853(5) 0.2259(7) 0.6486(3)
O2 O 0.3181(5) 0.2379(6) 0.5828(3)
C9 C 0.5524(6) 0.0986(5) 0.6203(3)
C10 C 0.5471(8) 0.0281(6) 0.6456(4)
H5 H 0.5898 0.0160 0.6431
C11 C 0.1063(6) 0.1525(6) 0.6780(4)
H6 H 0.0539 0.1313 0.6629
C12 C 0.4102(8) -0.0047(8) 0.6739(5)
H7 H 0.3616 -0.0421 0.6916
C13 C 0.4781(9) -0.0204(7) 0.6732(5)
H8 H 0.4739 -0.0652 0.6924
N3 N 0.6129(4) 0.1587(4) 0.5892(3)
O3 O 0.5334(4) 0.2824(4) 0.4773(2)
O4 O 0.4007(4) 0.2332(5) 0.4768(2)
C14 C 0.4661(4) 0.2465(5) 0.3930(3)
C15 C 0.4657(5) 0.2535(5) 0.4537(3)
C16 C 0.4647(4) 0.2351(5) 0.2797(3)
C17 C 0.5312(4) 0.2460(4) 0.3104(3)
H9 H 0.5770 0.2492 0.2931
C18 C 0.3964(5) 0.2284(7) 0.3080(3)
H10 H 0.3494 0.2186 0.2889
C19 C 0.5325(4) 0.2519(5) 0.3642(3)
H11 H 0.5792 0.2599 0.3829
C20 C 0.3966(5) 0.2357(7) 0.3629(3)
H12 H 0.3514 0.2336 0.3803
Na1 Na 0.6667 0.3333 0.51493(13)
Cd1B Cd 0.80716(5) 0.54801(3) 0.56295(2)
Cd1A Cd 0.74085(4) 0.19284(5) 0.56295(2)
Cd1K Cd 0.45199(3) 0.19284(5) -0.06295(2)
Cd1I Cd 0.74085(4) 0.54801(3) -0.06295(2)
Cd1J Cd 0.80716(5) 0.25915(4) -0.06295(2)
Cd1J_2 Cd -0.19284(5) 0.25915(4) 0.93705(2)
Cd1K_2 Cd 1.45199(3) 1.19284(5) 0.93705(2)
Cd1I_2 Cd 0.74085(4) -0.45199(3) 0.93705(2)
C1J C -0.0068(10) 0.1661(7) 0.8536(4)
C1B C 0.9932(10) 0.8271(7) 0.6464(4)
C1K C 1.1729(7) 1.0068(10) 0.8536(4)
C1A C 0.8339(7) 0.0068(10) 0.6464(4)
C1I C 0.8339(7) -0.1729(7) 0.8536(4)
H1J H -0.0114 0.1526 0.8900
H1B H 0.9886 0.8360 0.6100
H1K H 1.1640 1.0114 0.8900
H1A H 0.8474 0.0114 0.6100
H1I H 0.8474 -0.1640 0.8900
C2J C 0.0025(8) 0.1982(6) 0.7480(4)
C2B C 1.0025(8) 0.8043(6) 0.7520(4)
C2K C 1.1957(6) 0.9975(8) 0.7480(4)
C2A C 0.8018(6) -0.0025(8) 0.7520(4)
C2I C 0.8018(6) -0.1957(6) 0.7480(4)
H2J H 0.0041 0.2095 0.7115
H2B H 1.0041 0.7946 0.7885
H2K H 1.2054 0.9959 0.7115
H2A H 0.7905 -0.0041 0.7885
H2I H 0.7905 -0.2054 0.7115
N1B N 0.6740(6) 0.4907(4) 0.5893(3)
N1A N 0.8167(4) 0.3260(6) 0.5893(3)
N1K N 0.5093(4) 0.3260(6) -0.0893(3)
N1J N 0.6740(6) 0.1833(4) -0.0893(3)
N1I N 0.8167(4) 0.4907(4) -0.0893(3)
C3B C 0.6484(10) 0.5860(7) 0.6499(3)
C3A C 0.9376(7) 0.3516(10) 0.6499(3)
C3K C 0.4140(7) 0.3516(10) -0.1499(3)
C3J C 0.6484(10) 0.0624(7) -0.1499(3)
C3I C 0.9376(7) 0.5860(7) -0.1499(3)
H3B H 0.7028 0.6294 0.6522
H3A H 0.9266 0.2972 0.6522
H3K H 0.3706 0.2972 -0.1522
H3J H 0.7028 0.0734 -0.1522
H3I H 0.9266 0.6294 -0.1522
N2B N 0.6225(6) 0.4150(4) 0.5715(2)
N2A N 0.7925(4) 0.3775(6) 0.5715(2)
N2K N 0.5850(4) 0.3775(6) -0.0715(2)
N2J N 0.6225(6) 0.2075(4) -0.0715(2)
N2I N 0.7925(4) 0.4150(4) -0.0715(2)
C4J C 0.0527(7) 0.1708(5) 0.7677(3)
C4B C 1.0527(7) 0.8819(5) 0.7323(3)
C4K C 1.1181(5) 0.9473(7) 0.7677(3)
C4A C 0.8292(5) -0.0527(7) 0.7323(3)
C4I C 0.8292(5) -0.1181(5) 0.7677(3)
C5B C 0.6276(8) 0.5145(6) 0.6222(3)
C5A C 0.8869(5) 0.3724(8) 0.6222(3)
C5K C 0.4855(6) 0.3724(8) -0.1222(3)
C5J C 0.6276(8) 0.1131(5) -0.1222(3)
C5I C 0.8869(5) 0.5145(6) -0.1222(3)
C6J C -0.0509(8) 0.1973(6) 0.8344(4)
C6B C 0.9491(8) 0.7518(6) 0.6656(4)
C6K C 1.2482(6) 1.0509(8) 0.8344(4)
C6A C 0.8027(6) 0.0509(8) 0.6656(4)
C6I C 0.8027(6) -0.2482(6) 0.8344(4)
C7J C -0.0509(8) 0.2100(6) 0.7812(4)
C7B C 0.9491(8) 0.7391(6) 0.7188(4)
C7K C 1.2609(6) 1.0509(8) 0.7812(4)
C7A C 0.7900(6) 0.0509(8) 0.7188(4)
C7I C 0.7900(6) -0.2609(6) 0.7812(4)
H4J H -0.0864 0.2265 0.7666
H4B H 0.9136 0.6871 0.7334
H4K H 1.3129 1.0864 0.7666
H4A H 0.7735 0.0864 0.7334
H4I H 0.7735 -0.3129 0.7666
C8J C -0.0998(9) 0.2196(6) 0.8706(4)
C8B C 0.9002(9) 0.6806(7) 0.6294(4)
C8K C 1.3194(7) 1.0998(9) 0.8706(4)
C8A C 0.7804(6) 0.0998(9) 0.6294(4)
C8I C 0.7804(6) -0.3194(7) 0.8706(4)
O1J O -0.1594(9) 0.2259(7) 0.8514(3)
O1B O 0.8406(9) 0.6147(5) 0.6486(3)
O1K O 1.3853(5) 1.1594(9) 0.8514(3)
O1A O 0.7741(7) 0.1594(9) 0.6486(3)
O1I O 0.7741(7) -0.3853(5) 0.8514(3)
O1K_2 O 0.3853(5) 0.1594(9) -0.1486(3)
O1I_2 O 0.7741(7) 0.6147(5) -0.1486(3)
O1J_2 O 0.8406(9) 0.2259(7) -0.1486(3)
O2J O -0.0802(8) 0.2379(6) 0.9172(3)
O2B O 0.9198(8) 0.6819(5) 0.5828(3)
O2K O 1.3181(5) 1.0802(8) 0.9172(3)
O2A O 0.7621(6) 0.0802(8) 0.5828(3)
O2I O 0.7621(6) -0.3181(5) 0.9172(3)
O2K_2 O 0.3181(5) 0.0802(8) -0.0828(3)
O2I_2 O 0.7621(6) 0.6819(5) -0.0828(3)
O2J_2 O 0.9198(8) 0.2379(6) -0.0828(3)
C9B C 0.5462(8) 0.4476(6) 0.6203(3)
C9A C 0.9014(5) 0.4538(8) 0.6203(3)
C9K C 0.5524(6) 0.4538(8) -0.1203(3)
C9J C 0.5462(8) 0.0986(5) -0.1203(3)
C9I C 0.9014(5) 0.4476(6) -0.1203(3)
C10B C 0.4810(10) 0.4529(8) 0.6456(4)
C10A C 0.9719(6) 0.5190(10) 0.6456(4)
C10K C 0.5471(8) 0.5190(10) -0.1456(4)
C10J C 0.4810(10) 0.0281(6) -0.1456(4)
C10I C 0.9719(6) 0.4529(8) -0.1456(4)
H5B H 0.4262 0.4102 0.6431
H5A H 0.9840 0.5738 0.6431
H5K H 0.5898 0.5738 -0.1431
H5J H 0.4262 0.0160 -0.1431
H5I H 0.9840 0.4102 -0.1431
C11J C 0.0462(8) 0.1525(6) 0.8220(4)
C11B C 1.0462(8) 0.8937(6) 0.6780(4)
C11K C 1.1063(6) 0.9538(8) 0.8220(4)
C11A C 0.8475(6) -0.0462(8) 0.6780(4)
C11I C 0.8475(6) -0.1063(6) 0.8220(4)
H6J H 0.0774 0.1313 0.8371
H6B H 1.0774 0.9461 0.6629
H6K H 1.0539 0.9226 0.8371
H6A H 0.8687 -0.0774 0.6629
H6I H 0.8687 -0.0539 0.8371
C12B C 0.5851(11) 0.5898(8) 0.6739(5)
C12A C 1.0047(8) 0.4149(11) 0.6739(5)
C12K C 0.4102(8) 0.4149(11) -0.1739(5)
C12J C 0.5851(11) -0.0047(8) -0.1739(5)
C12I C 1.0047(8) 0.5898(8) -0.1739(5)
H7B H 0.5963 0.6384 0.6916
H7A H 1.0421 0.4037 0.6916
H7K H 0.3616 0.4037 -0.1916
H7J H 0.5963 -0.0421 -0.1916
H7I H 1.0421 0.6384 -0.1916
C13B C 0.5015(11) 0.5219(9) 0.6732(5)
C13A C 1.0204(7) 0.4985(11) 0.6732(5)
C13K C 0.4781(9) 0.4985(11) -0.1732(5)
C13J C 0.5015(11) -0.0204(7) -0.1732(5)
C13I C 1.0204(7) 0.5219(9) -0.1732(5)
H8B H 0.4609 0.5261 0.6924
H8A H 1.0652 0.5391 0.6924
H8K H 0.4739 0.5391 -0.1924
H8J H 0.4609 -0.0652 -0.1924
H8I H 1.0652 0.5261 -0.1924
N3B N 0.5458(6) 0.3871(4) 0.5892(3)
N3A N 0.8413(4) 0.4542(6) 0.5892(3)
N3K N 0.6129(4) 0.4542(6) -0.0892(3)
N3J N 0.5458(6) 0.1587(4) -0.0892(3)
N3I N 0.8413(4) 0.3871(4) -0.0892(3)
O3K O 0.5334(4) 0.2510(6) 0.0227(2)
O3B O 0.7490(6) 0.4666(4) 0.4773(2)
O3I O 0.7176(4) 0.4666(4) 0.0227(2)
O3A O 0.7176(4) 0.2510(6) 0.4773(2)
O3J O 0.7490(6) 0.2824(4) 0.0227(2)
O4K O 0.4007(4) 0.1675(6) 0.0232(2)
O4B O 0.8325(6) 0.5993(4) 0.4768(2)
O4I O 0.7668(5) 0.5993(4) 0.0232(2)
O4A O 0.7668(5) 0.1675(6) 0.4768(2)
O4J O 0.8325(6) 0.2332(5) 0.0232(2)
C14K C 0.4661(4) 0.2196(6) 0.1070(3)
C14B C 0.7804(6) 0.5339(4) 0.3930(3)
C14I C 0.7535(5) 0.5339(4) 0.1070(3)
C14A C 0.7535(5) 0.2196(6) 0.3930(3)
C14J C 0.7804(6) 0.2465(5) 0.1070(3)
C15K C 0.4657(5) 0.2122(7) 0.0463(3)
C15B C 0.7878(7) 0.5343(5) 0.4537(3)
C15I C 0.7465(5) 0.5343(5) 0.0463(3)
C15A C 0.7465(5) 0.2122(7) 0.4537(3)
C15J C 0.7878(7) 0.2535(5) 0.0463(3)
C16K C 0.4647(4) 0.2296(6) 0.2203(3)
C16B C 0.7704(6) 0.5353(4) 0.2797(3)
C16I C 0.7649(5) 0.5353(4) 0.2203(3)
C16A C 0.7649(5) 0.2296(6) 0.2797(3)
C16J C 0.7704(6) 0.2351(5) 0.2203(3)
C17K C 0.5312(4) 0.2852(6) 0.1896(3)
C17B C 0.7148(6) 0.4688(4) 0.3104(3)
C17I C 0.7540(4) 0.4688(4) 0.1896(3)
C17A C 0.7540(4) 0.2852(6) 0.3104(3)
C17J C 0.7148(6) 0.2460(4) 0.1896(3)
H9K H 0.5770 0.3278 0.2069
H9B H 0.6722 0.4230 0.2931
H9I H 0.7508 0.4230 0.2069
H9A H 0.7508 0.3278 0.2931
H9J H 0.6722 0.2492 0.2069
C18K C 0.3964(5) 0.1680(9) 0.1920(3)
C18B C 0.8320(9) 0.6036(5) 0.3080(3)
C18I C 0.7716(7) 0.6036(5) 0.1920(3)
C18A C 0.7716(7) 0.1680(9) 0.3080(3)
C18J C 0.8320(9) 0.2284(7) 0.1920(3)
H10K H 0.3494 0.1308 0.2111
H10B H 0.8692 0.6506 0.2889
H10I H 0.7814 0.6506 0.2111
H10A H 0.7814 0.1308 0.2889
H10J H 0.8692 0.2186 0.2111
C19K C 0.5325(4) 0.2806(6) 0.1358(3)
C19B C 0.7194(6) 0.4675(4) 0.3642(3)
C19I C 0.7481(5) 0.4675(4) 0.1358(3)
C19A C 0.7481(5) 0.2806(6) 0.3642(3)
C19J C 0.7194(6) 0.2519(5) 0.1358(3)
H11K H 0.5792 0.3193 0.1171
H11B H 0.6807 0.4208 0.3829
H11I H 0.7401 0.4208 0.1171
H11A H 0.7401 0.3193 0.3829
H11J H 0.6807 0.2599 0.1171
C20K C 0.3966(5) 0.1609(9) 0.1371(3)
C20B C 0.8391(9) 0.6034(5) 0.3629(3)
C20I C 0.7643(7) 0.6034(5) 0.1371(3)
C20A C 0.7643(7) 0.1609(9) 0.3629(3)
C20J C 0.8391(9) 0.2357(7) 0.1371(3)
H12K H 0.3514 0.1178 0.1197
H12B H 0.8822 0.6486 0.3803
H12I H 0.7664 0.6486 0.1197
H12A H 0.7664 0.1178 0.3803
H12J H 0.8822 0.2336 0.1197
Na1K Na 0.6667 0.3334 -0.01493(13)
O5 O 0.2905(4) 0.2905(4) 0.5000
H15 H 0.2389(10) 0.272(3) 0.507(2)
H15F H 0.272(3) 0.2389(10) 0.493(2)
O6 O 0.4718(8) 0.0000 0.5000
H16 H 0.472(3) 0.042(2) 0.4856(19)
H16G H 0.430(4) -0.042(2) 0.5144(19)
O7 O 0.5799(12) 1.0000 0.5000
H13 H 0.579(4) 0.965(3) 0.477(2)
H13G H 0.614(5) 1.035(3) 0.523(2)
O8 O 0.1974(16) 1.0000 0.5000
H14 H 0.23(2) 0.99(2) 0.519(13)
H14G H 0.24(3) 1.01(2) 0.481(13)
loop_
_geom_bond_atom_site_label_1
_geom_bond_atom_site_label_2
_geom_bond_site_symmetry_1
_geom_bond_site_symmetry_2
Cd1 N1 1_555 1_555
C1 H1 1_555 1_555
C2 H2 1_555 1_555
N1 N2 1_555 1_555
C3 H3 1_555 1_555
N2 N3 1_555 1_555
C4 C2 1_555 1_555
C5 N1 1_555 1_555
C6 C1 1_555 1_555
C7 C2 1_555 1_555
H4 C7 1_555 1_555
C8 C6 1_555 1_555
O1 Cd1 1_555 1_555
O2 Cd1 1_555 1_555
C9 C5 1_555 1_555
C10 C9 1_555 1_555
H5 C10 1_555 1_555
C11 C1 1_555 1_555
H6 C11 1_555 1_555
C12 C3 1_555 1_555
H7 C12 1_555 1_555
C13 C10 1_555 1_555
H8 C13 1_555 1_555
N3 C9 1_555 1_555
O3 Cd1 1_555 1_555
O4 Cd1 1_555 1_555
C14 C15 1_555 1_555
C15 O3 1_555 1_555
C16 C17 1_555 1_555
C17 H9 1_555 1_555
C18 C16 1_555 1_555
H10 C18 1_555 1_555
C19 C14 1_555 1_555
H11 C19 1_555 1_555
C20 C14 1_555 1_555
H12 C20 1_555 1_555
Na1 N2 1_555 1_555
O5 H15 1_555 1_555
O6 H16 1_555 1_555
O7 H13 1_555 1_555
O8 H14 1_555 1_555
Cd1B N1B 1_555 1_555
Cd1A N3 1_555 1_555
Cd1K N1K 1_555 1_555
Cd1I N1I 1_555 1_555
Cd1J N1J 1_555 1_555
Cd1J_2 O1J 1_555 1_555
Cd1K_2 O1K 1_555 1_555
Cd1I_2 O1I 1_555 1_555
C1J H1J 1_555 1_555
C1B H1B 1_555 1_555
C1K H1K 1_555 1_555
C1A H1A 1_555 1_555
C1I H1I 1_555 1_555
C2J H2J 1_555 1_555
C2B H2B 1_555 1_555
C2K H2K 1_555 1_555
C2A H2A 1_555 1_555
C2I H2I 1_555 1_555
N1B N2B 1_555 1_555
N1A Cd1A 1_555 1_555
N1K N2K 1_555 1_555
N1J N2J 1_555 1_555
N1I N2I 1_555 1_555
C3B H3B 1_555 1_555
C3A H3A 1_555 1_555
C3K H3K 1_555 1_555
C3J H3J 1_555 1_555
C3I H3I 1_555 1_555
N2B Na1 1_555 1_555
N2A Na1 1_555 1_555
N2K N3K 1_555 1_555
N2J N3J 1_555 1_555
N2I N3I 1_555 1_555
C4J C4 1_555 1_555
C4B C2B 1_555 1_555
C4K C2K 1_555 1_555
C4A C2A 1_555 1_555
C4I C2I 1_555 1_555
C5B N1B 1_555 1_555
C5A N1A 1_555 1_555
C5K N1K 1_555 1_555
C5J N1J 1_555 1_555
C5I N1I 1_555 1_555
C6J C1J 1_555 1_555
C6B C1B 1_555 1_555
C6K C1K 1_555 1_555
C6A C1A 1_555 1_555
C6I C1I 1_555 1_555
C7J C2J 1_555 1_555
C7B C2B 1_555 1_555
C7K C2K 1_555 1_555
C7A C2A 1_555 1_555
C7I C2I 1_555 1_555
H4J C7J 1_555 1_555
H4B C7B 1_555 1_555
H4K C7K 1_555 1_555
H4A C7A 1_555 1_555
H4I C7I 1_555 1_555
C8J C6J 1_555 1_555
C8B C6B 1_555 1_555
C8K C6K 1_555 1_555
C8A C6A 1_555 1_555
C8I C6I 1_555 1_555
O1J C8J 1_555 1_555
O1B Cd1B 1_555 1_555
O1K C8K 1_555 1_555
O1A Cd1A 1_555 1_555
O1I C8I 1_555 1_555
O1K_2 Cd1K 1_555 1_555
O1I_2 Cd1I 1_555 1_555
O1J_2 Cd1J 1_555 1_555
O2J Cd1J_2 1_555 1_555
O2B Cd1B 1_555 1_555
O2K Cd1K_2 1_555 1_555
O2A Cd1A 1_555 1_555
O2I Cd1I_2 1_555 1_555
O2K_2 Cd1K 1_555 1_555
O2I_2 Cd1I 1_555 1_555
O2J_2 Cd1J 1_555 1_555
C9B C5B 1_555 1_555
C9A C5A 1_555 1_555
C9K C5K 1_555 1_555
C9J C5J 1_555 1_555
C9I C5I 1_555 1_555
C10B C9B 1_555 1_555
C10A C9A 1_555 1_555
C10K C9K 1_555 1_555
C10J C9J 1_555 1_555
C10I C9I 1_555 1_555
H5B C10B 1_555 1_555
H5A C10A 1_555 1_555
H5K C10K 1_555 1_555
H5J C10J 1_555 1_555
H5I C10I 1_555 1_555
C11J C1J 1_555 1_555
C11B C1B 1_555 1_555
C11K C1K 1_555 1_555
C11A C1A 1_555 1_555
C11I C1I 1_555 1_555
H6J C11J 1_555 1_555
H6B C11B 1_555 1_555
H6K C11K 1_555 1_555
H6A C11A 1_555 1_555
H6I C11I 1_555 1_555
C12B C3B 1_555 1_555
C12A C3A 1_555 1_555
C12K C3K 1_555 1_555
C12J C3J 1_555 1_555
C12I C3I 1_555 1_555
H7B C12B 1_555 1_555
H7A C12A 1_555 1_555
H7K C12K 1_555 1_555
H7J C12J 1_555 1_555
H7I C12I 1_555 1_555
C13B C10B 1_555 1_555
C13A C10A 1_555 1_555
C13K C10K 1_555 1_555
C13J C10J 1_555 1_555
C13I C10I 1_555 1_555
H8B C13B 1_555 1_555
H8A C13A 1_555 1_555
H8K C13K 1_555 1_555
H8J C13J 1_555 1_555
H8I C13I 1_555 1_555
N3B Cd1 1_555 1_555
N3A Cd1B 1_555 1_555
N3K Cd1I 1_555 1_555
N3J Cd1K 1_555 1_555
N3I Cd1J 1_555 1_555
O3K Cd1K 1_555 1_555
O3B Na1 1_555 1_555
O3I Cd1I 1_555 1_555
O3A Na1 1_555 1_555
O3J Cd1J 1_555 1_555
O4K Cd1K 1_555 1_555
O4B Cd1B 1_555 1_555
O4I Cd1I 1_555 1_555
O4A Cd1A 1_555 1_555
O4J Cd1J 1_555 1_555
C14K C15K 1_555 1_555
C14B C15B 1_555 1_555
C14I C15I 1_555 1_555
C14A C15A 1_555 1_555
C14J C15J 1_555 1_555
C15K O3K 1_555 1_555
C15B O3B 1_555 1_555
C15I O3I 1_555 1_555
C15A O3A 1_555 1_555
C15J O3J 1_555 1_555
C16K C16 1_555 1_555
C16B C16I 1_555 1_555
C16I C17I 1_555 1_555
C16A C16J 1_555 1_555
C16J C17J 1_555 1_555
C17K C16K 1_555 1_555
C17B C16B 1_555 1_555
C17I H9I 1_555 1_555
C17A C16A 1_555 1_555
C17J H9J 1_555 1_555
H9K C17K 1_555 1_555
H9B C17B 1_555 1_555
H9A C17A 1_555 1_555
C18K C16K 1_555 1_555
C18B C16B 1_555 1_555
C18I C16I 1_555 1_555
C18A C16A 1_555 1_555
C18J C16J 1_555 1_555
H10K C18K 1_555 1_555
H10B C18B 1_555 1_555
H10I C18I 1_555 1_555
H10A C18A 1_555 1_555
H10J C18J 1_555 1_555
C19K C14K 1_555 1_555
C19B C14B 1_555 1_555
C19I C14I 1_555 1_555
C19A C14A 1_555 1_555
C19J C14J 1_555 1_555
H11K C19K 1_555 1_555
H11B C19B 1_555 1_555
H11I C19I 1_555 1_555
H11A C19A 1_555 1_555
H11J C19J 1_555 1_555
C20K C14K 1_555 1_555
C20B C14B 1_555 1_555
C20I C14I 1_555 1_555
C20A C14A 1_555 1_555
C20J C14J 1_555 1_555
H12K C20K 1_555 1_555
H12B C20B 1_555 1_555
H12I C20I 1_555 1_555
H12A C20A 1_555 1_555
H12J C20J 1_555 1_555
Na1K N2K 1_555 1_555
H13G O7 1_555 1_555
H14G O8 1_555 1_555
H15F O5 1_555 1_555
H16G O6 1_555 1_555
C3 C5 1_555 1_555
C4 C11 1_555 1_555
C6 C7 1_555 1_555
C8 O1 1_555 1_555
C8 O2 1_555 1_555
C12 C13 1_555 1_555
O3 Na1 1_555 1_555
O4 C15 1_555 1_555
C17 C19 1_555 1_555
C18 C20 1_555 1_555
Cd1B O3B 1_555 1_555
Cd1A O3A 1_555 1_555
C2J C4J 1_555 1_555
N1A N2A 1_555 1_555
C3B C5B 1_555 1_555
C3A C5A 1_555 1_555
C3K C5K 1_555 1_555
C3J C5J 1_555 1_555
C3I C5I 1_555 1_555
N2B N3B 1_555 1_555
N2A N3A 1_555 1_555
N2J Na1K 1_555 1_555
N2I Na1K 1_555 1_555
C4J C11J 1_555 1_555
C4B C4K 1_555 1_555
C4B C11B 1_555 1_555
C4K C11K 1_555 1_555
C4A C4I 1_555 1_555
C4A C11A 1_555 1_555
C4I C11I 1_555 1_555
C6J C7J 1_555 1_555
C6B C7B 1_555 1_555
C6K C7K 1_555 1_555
C6A C7A 1_555 1_555
C6I C7I 1_555 1_555
C8J O2J 1_555 1_555
C8B O1B 1_555 1_555
C8B O2B 1_555 1_555
C8K O2K 1_555 1_555
C8A O1A 1_555 1_555
C8A O2A 1_555 1_555
C8I O2I 1_555 1_555
C9B N3B 1_555 1_555
C9A N3A 1_555 1_555
C9K N3K 1_555 1_555
C9J N3J 1_555 1_555
C9I N3I 1_555 1_555
C12B C13B 1_555 1_555
C12A C13A 1_555 1_555
C12K C13K 1_555 1_555
C12J C13J 1_555 1_555
C12I C13I 1_555 1_555
O3K Na1K 1_555 1_555
O3I Na1K 1_555 1_555
O3J Na1K 1_555 1_555
O4K C15K 1_555 1_555
O4B C15B 1_555 1_555
O4I C15I 1_555 1_555
O4A C15A 1_555 1_555
O4J C15J 1_555 1_555
C17K C19K 1_555 1_555
C17B C19B 1_555 1_555
C17I C19I 1_555 1_555
C17A C19A 1_555 1_555
C17J C19J 1_555 1_555
C18K C20K 1_555 1_555
C18B C20B 1_555 1_555
C18I C20I 1_555 1_555
C18A C20A 1_555 1_555
C18J C20J 1_555 1_555

#END
