
#######################################################################
#
#                 Cambridge Crystallographic Data Centre
#                                CCDC 
#
#######################################################################
#
# If this CIF has been generated from an entry in the Cambridge 
# Structural Database, then it will include bibliographic, chemical, 
# crystal, experimental, refinement or atomic coordinate data resulting 
# from the CCDC's data processing and validation procedures.
#
#######################################################################

data_NAXLII
_symmetry_cell_setting           triclinic
_symmetry_space_group_name_H-M   'P -1'
_symmetry_Int_Tables_number      2
_space_group_name_Hall           '-P 1'
loop_
_symmetry_equiv_pos_site_id
_symmetry_equiv_pos_as_xyz
1 x,y,z
2 -x,-y,-z
_cell_length_a                   10.3187(10)
_cell_length_b                   13.6651(14)
_cell_length_c                   16.1419(16)
_cell_angle_alpha                102.047(8)
_cell_angle_beta                 108.580(9)
_cell_angle_gamma                99.147(8)
_cell_volume                     2046.6
loop_
_atom_site_label
_atom_site_type_symbol
_atom_site_fract_x
_atom_site_fract_y
_atom_site_fract_z
Zn1 Zn 0.71330(5) 0.25236(4) 1.23993(4)
Zn2 Zn 0.52480(5) 0.20680(4) 0.87462(4)
P1 P 0.46310(13) 0.24439(9) 1.05976(8)
P2 P 0.48359(13) 0.41480(10) 0.80423(8)
P3 P 0.62010(13) 0.01914(9) 1.17377(8)
O1 O 0.3493(3) 0.3086(2) 1.0395(2)
H1 H 0.3605 0.3592 1.0574
O3 O 0.5532(3) 0.2847(2) 1.1603(2)
O4 O 0.3811(3) 0.1329(2) 1.0331(2)
O5 O 0.5529(3) 0.2601(2) 1.0023(2)
O6 O 0.3401(3) 0.4438(3) 0.7998(2)
H2 H 0.3352 0.4633 0.8471
O7 O 0.4879(4) 0.4166(3) 0.7087(2)
H3 H 0.4923 0.3857 0.6741
O8 O 0.6045(3) 0.4961(2) 0.8771(2)
O9 O 0.4739(4) 0.3065(3) 0.8109(2)
O10 O 0.6861(4) 0.0269(3) 1.0999(2)
O11 O 0.4618(3) 0.0199(3) 1.1342(2)
H4 H 0.4368 0.0646 1.0976
O12 O 0.6243(3) -0.0815(2) 1.1979(2)
O13 O 0.7026(3) 0.1141(2) 1.2536(2)
N1 N 0.8795(4) 0.3039(3) 1.2083(3)
N2 N 1.0153(4) 0.4116(3) 1.1676(3)
N3 N 0.7227(4) 0.1969(3) 0.8893(3)
N4 N 0.9340(4) 0.1705(3) 0.9550(3)
N5 N 0.7429(4) 0.3461(3) 1.3618(3)
N6 N 0.7341(4) 0.4784(3) 1.4651(3)
C1 C 0.8865(5) 0.3814(4) 1.1728(3)
H6 H 0.8108 0.4129 1.1530
C2 C 1.0481(5) 0.4937(4) 1.1244(3)
H7 H 1.1515 0.5216 1.1477
H8 H 1.0054 0.5507 1.1421
C3 C 0.9942(5) 0.4552(4) 1.0210(3)
H9 H 0.8946 0.4161 0.9980
H10 H 1.0498 0.4078 1.0027
C4 C 1.0966(5) 0.3488(4) 1.2028(3)
C5 C 1.0123(5) 0.2809(4) 1.2283(3)
C6 C 1.0599(5) 0.2027(4) 1.2636(3)
H11 H 1.0010 0.1554 1.2798
C7 C 1.1962(5) 0.1973(4) 1.2741(4)
H12 H 1.2324 0.1455 1.2984
C8 C 1.2831(5) 0.2670(4) 1.2494(3)
H13 H 1.3761 0.2606 1.2565
C9 C 1.2354(5) 0.3450(4) 1.2147(3)
H14 H 1.2947 0.3935 1.1998
C10 C 0.8062(5) 0.1725(4) 0.9579(3)
H15 H 0.7784 0.1575 1.0055
C11 C 1.0511(5) 0.1487(4) 1.0216(3)
H16 H 1.0409 0.1657 1.0816
H17 H 1.1403 0.1940 1.0273
C12 C 1.0603(5) 0.0370(4) 0.9974(4)
H18 H 1.0611 0.0178 0.9350
H19 H 1.1502 0.0304 1.0395
C13 C 0.9354(5) 0.1959(4) 0.8763(3)
C14 C 1.0403(5) 0.2074(4) 0.8399(4)
H20 H 1.1304 0.1958 0.8680
C15 C 1.0053(5) 0.2368(4) 0.7602(4)
H21 H 1.0743 0.2470 0.7334
C16 C 0.8716(5) 0.2520(4) 0.7174(3)
H22 H 0.8519 0.2705 0.6619
C17 C 0.7677(5) 0.2408(4) 0.7543(3)
H23 H 0.6776 0.2520 0.7259
C18 C 0.8019(5) 0.2120(4) 0.8353(3)
C19 C 0.6797(5) 0.4208(4) 1.3767(3)
H24 H 0.6046 0.4331 1.3310
C20 C 0.6861(5) 0.5661(4) 1.5051(3)
H25 H 0.6516 0.6029 1.4589
H26 H 0.7667 0.6148 1.5567
C21 C 0.5684(5) 0.5312(4) 1.5386(3)
H27 H 0.6001 0.4888 1.5804
H28 H 0.5501 0.5927 1.5735
C22 C 0.8413(5) 0.4377(4) 1.5102(3)
C23 C 0.9368(5) 0.4686(4) 1.6001(3)
H29 H 0.9320 0.5249 1.6440
C24 C 1.0385(5) 0.4137(4) 1.6222(3)
H30 H 1.1060 0.4332 1.6825
C25 C 1.0440(5) 0.3306(4) 1.5580(3)
H31 H 1.1152 0.2946 1.5757
C26 C 0.9478(5) 0.2983(4) 1.4683(3)
H32 H 0.9513 0.2409 1.4249
C27 C 0.8468(5) 0.3543(4) 1.4458(3)
Zn1A Zn 1.28670(5) 0.74764(4) 0.76007(4)
Zn1A_2 Zn 0.28670(5) 0.74764(4) 1.76007(4)
Zn1A_3 Zn 0.28670(5) -0.25236(4) 0.76007(4)
Zn2A Zn 0.47520(5) -0.20680(4) 1.12538(4)
Zn2A_2 Zn 1.47520(5) -0.20680(4) 1.12538(4)
Zn2A_3 Zn 1.47520(5) 0.79320(4) 1.12538(4)
P1A P 1.53690(13) 0.75561(9) 0.94024(8)
P2A P 0.51641(13) -0.41480(10) 1.19577(8)
P3A P 0.37990(13) -0.01914(9) 0.82623(8)
O1A O 1.6507(3) 0.6914(2) 0.9605(2)
H1A H 1.6395 0.6408 0.9426
O3A O 1.4468(3) 0.7153(2) 0.8397(2)
O4A O 1.6189(3) 0.8671(2) 0.9669(2)
O5A O 1.4471(3) 0.7399(2) 0.9977(2)
O5A_2 O 0.4471(3) -0.2601(2) 0.9977(2)
O6A O 0.6599(3) -0.4438(3) 1.2002(2)
H2A H 0.6648 -0.4633 1.1529
O7A O 0.5121(4) -0.4166(3) 1.2913(2)
H3A H 0.5077 -0.3857 1.3259
O8A O 0.3955(3) -0.4961(2) 1.1229(2)
O9A O 0.5261(4) -0.3065(3) 1.1891(2)
O10A O 0.3139(4) -0.0269(3) 0.9001(2)
O11A O 0.5382(3) -0.0199(3) 0.8658(2)
H4A H 0.5632 -0.0646 0.9024
O12A O 0.3757(3) 0.0815(2) 0.8021(2)
O13A O 0.2974(3) -0.1141(2) 0.7464(2)
O13A_2 O 1.2974(3) 0.8859(2) 0.7464(2)
N1A N 1.1205(4) 0.6961(3) 0.7917(3)
N2A N 0.9847(4) 0.5884(3) 0.8324(3)
N3A N 1.2773(4) -0.1969(3) 1.1107(3)
N3A_2 N 0.2773(4) -0.1969(3) 1.1107(3)
N4A N 1.0660(4) -0.1705(3) 1.0450(3)
N5A N 0.2571(4) 0.6539(3) 1.6382(3)
N5A_2 N 1.2571(4) 0.6539(3) 0.6382(3)
N6A N 0.2659(4) 0.5216(3) 1.5349(3)
C1A C 1.1135(5) 0.6186(4) 0.8272(3)
H6A H 1.1892 0.5871 0.8470
C2A C 0.9519(5) 0.5063(4) 0.8756(3)
H7A H 0.8485 0.4784 0.8523
H8A H 0.9946 0.4493 0.8579
C3A C 1.0058(5) 0.5448(4) 0.9790(3)
H9A H 1.1054 0.5839 1.0020
H10A H 0.9502 0.5922 0.9973
C4A C 0.9034(5) 0.6512(4) 0.7972(3)
C5A C 0.9877(5) 0.7191(4) 0.7717(3)
C6A C 0.9401(5) 0.7973(4) 0.7364(3)
H11A H 0.9990 0.8446 0.7202
C7A C 0.8038(5) 0.8027(4) 0.7259(4)
H12A H 0.7676 0.8545 0.7016
C8A C 0.7169(5) 0.7330(4) 0.7506(3)
H13A H 0.6239 0.7394 0.7435
C9A C 0.7646(5) 0.6550(4) 0.7853(3)
H14A H 0.7053 0.6065 0.8002
C10A C 1.1938(5) -0.1725(4) 1.0421(3)
H15A H 1.2216 -0.1575 0.9945
C11A C 0.9489(5) -0.1487(4) 0.9784(3)
H16A H 0.9591 -0.1657 0.9184
H17A H 0.8597 -0.1940 0.9727
C12A C 0.9397(5) -0.0370(4) 1.0026(4)
H18A H 0.9389 -0.0178 1.0650
H19A H 0.8498 -0.0304 0.9605
C13A C 1.0646(5) -0.1959(4) 1.1237(3)
C14A C 0.9597(5) -0.2074(4) 1.1601(4)
H20A H 0.8696 -0.1958 1.1320
C15A C 0.9947(5) -0.2368(4) 1.2398(4)
H21A H 0.9257 -0.2470 1.2666
C16A C 1.1284(5) -0.2520(4) 1.2826(3)
H22A H 1.1481 -0.2705 1.3381
C17A C 1.2323(5) -0.2408(4) 1.2457(3)
H23A H 1.3224 -0.2520 1.2741
C18A C 1.1981(5) -0.2120(4) 1.1647(3)
C19A C 0.3203(5) 0.5792(4) 1.6233(3)
H24A H 0.3954 0.5669 1.6690
C20A C 0.3139(5) 0.4339(4) 1.4949(3)
H25A H 0.3484 0.3971 1.5411
H26A H 0.2333 0.3852 1.4433
C21A C 0.4316(5) 0.4688(4) 1.4614(3)
H27A H 0.3999 0.5112 1.4196
H28A H 0.4499 0.4073 1.4265
C22A C 0.1587(5) 0.5623(4) 1.4898(3)
C23A C 0.0632(5) 0.5314(4) 1.3999(3)
H29A H 0.0680 0.4751 1.3560
C24A C -0.0385(5) 0.5863(4) 1.3778(3)
H30A H -0.1060 0.5668 1.3175
C25A C -0.0440(5) 0.6694(4) 1.4420(3)
H31A H -0.1152 0.7054 1.4243
C26A C 0.0522(5) 0.7017(4) 1.5317(3)
H32A H 0.0487 0.7591 1.5751
C27A C 0.1532(5) 0.6457(4) 1.5542(3)
O2 O 0.6710(3) 0.4669(3) 1.0447(2)
N7 N 0.4172(4) 0.2245(3) 0.6000(3)
H5 H 0.4586 0.2883 0.6337
N8 N 0.2820(4) 0.0647(3) 0.5500(3)
C28 C 0.3286(5) 0.1558(4) 0.6149(4)
H33 H 0.3004 0.1690 0.6659
C29 C 0.1856(5) -0.0281(4) 0.5475(4)
H34 H 0.217(6) -0.035(4) 0.606(4)
H35 H 0.222(6) -0.081(5) 0.521(4)
C31 C 0.0327(8) -0.0409(7) 0.4807(8)
H38 H 0.0348 -0.0342 0.4212
H39 H -0.0252 -0.1103 0.4709
C32 C 0.3480(5) 0.0743(4) 0.4877(3)
C33 C 0.3439(5) 0.0058(4) 0.4099(3)
H40 H 0.2839 -0.0618 0.3870
C34 C 0.4301(5) 0.0400(4) 0.3676(4)
H41 H 0.4307 -0.0054 0.3145
C35 C 0.5184(5) 0.1406(4) 0.4005(3)
H42 H 0.5778 0.1615 0.3697
C36 C 0.5190(5) 0.2088(4) 0.4768(3)
H43 H 0.5777 0.2768 0.4988
C37 C 0.4319(5) 0.1759(4) 0.5211(3)
N7A N -0.4172(4) -0.2245(3) 0.4000(3)
H5A H -0.4586 -0.2883 0.3663
N8A N -0.2820(4) -0.0647(3) 0.4500(3)
C28A C -0.3286(5) -0.1558(4) 0.3851(4)
H33A H -0.3004 -0.1690 0.3341
C29A C -0.1856(5) 0.0281(4) 0.4525(4)
H34A H -0.217(6) 0.035(4) 0.394(4)
H35A H -0.222(6) 0.081(5) 0.479(4)
C31A C -0.0327(8) 0.0409(7) 0.5193(8)
H38A H -0.0348 0.0342 0.5788
H39A H 0.0252 0.1103 0.5291
C32A C -0.3480(5) -0.0743(4) 0.5123(3)
C33A C -0.3439(5) -0.0058(4) 0.5901(3)
H40A H -0.2839 0.0618 0.6130
C34A C -0.4301(5) -0.0400(4) 0.6324(4)
H41A H -0.4307 0.0054 0.6855
C35A C -0.5184(5) -0.1406(4) 0.5995(3)
H42A H -0.5778 -0.1615 0.6303
C36A C -0.5190(5) -0.2088(4) 0.5232(3)
H43A H -0.5777 -0.2768 0.5012
C37A C -0.4319(5) -0.1759(4) 0.4789(3)
C30? C 0.037(2) -0.0089(19) 0.543(2)
H36? H -0.0203 -0.0696 0.5505
H37? H 0.0493 0.0517 0.5934
loop_
_geom_bond_atom_site_label_1
_geom_bond_atom_site_label_2
_geom_bond_site_symmetry_1
_geom_bond_site_symmetry_2
Zn1 O3 1_555 1_555
Zn2 O5 1_555 1_555
P1 O1 1_555 1_555
P2 O6 1_555 1_555
P3 O10 1_555 1_555
O1 H1 1_555 1_555
O3 P1 1_555 1_555
O4 P1 1_555 1_555
O5 P1 1_555 1_555
O6 H2 1_555 1_555
O7 P2 1_555 1_555
H3 O7 1_555 1_555
O8 P2 1_555 1_555
O9 Zn2 1_555 1_555
O11 P3 1_555 1_555
H4 O11 1_555 1_555
O12 P3 1_555 1_555
O13 Zn1 1_555 1_555
N1 Zn1 1_555 1_555
N2 C1 1_555 1_555
N3 Zn2 1_555 1_555
N4 C10 1_555 1_555
N5 Zn1 1_555 1_555
N6 C19 1_555 1_555
N7 H5 1_555 1_555
N8 C28 1_555 1_555
C1 N1 1_555 1_555
H6 C1 1_555 1_555
C2 N2 1_555 1_555
H7 C2 1_555 1_555
H8 C2 1_555 1_555
C3 C2 1_555 1_555
H9 C3 1_555 1_555
H10 C3 1_555 1_555
C4 N2 1_555 1_555
C5 N1 1_555 1_555
C6 C5 1_555 1_555
H11 C6 1_555 1_555
C7 C6 1_555 1_555
H12 C7 1_555 1_555
C8 C7 1_555 1_555
H13 C8 1_555 1_555
C9 C4 1_555 1_555
H14 C9 1_555 1_555
C10 N3 1_555 1_555
H15 C10 1_555 1_555
C11 N4 1_555 1_555
H16 C11 1_555 1_555
H17 C11 1_555 1_555
C12 C11 1_555 1_555
H18 C12 1_555 1_555
H19 C12 1_555 1_555
C13 N4 1_555 1_555
C14 C13 1_555 1_555
H20 C14 1_555 1_555
C15 C14 1_555 1_555
H21 C15 1_555 1_555
C16 C15 1_555 1_555
H22 C16 1_555 1_555
C17 C16 1_555 1_555
H23 C17 1_555 1_555
C18 N3 1_555 1_555
C19 N5 1_555 1_555
H24 C19 1_555 1_555
C20 N6 1_555 1_555
H25 C20 1_555 1_555
H26 C20 1_555 1_555
C21 C20 1_555 1_555
H27 C21 1_555 1_555
H28 C21 1_555 1_555
C22 N6 1_555 1_555
C23 C22 1_555 1_555
H29 C23 1_555 1_555
C24 C23 1_555 1_555
H30 C24 1_555 1_555
C25 C24 1_555 1_555
H31 C25 1_555 1_555
C26 C25 1_555 1_555
H32 C26 1_555 1_555
C27 N5 1_555 1_555
C28 N7 1_555 1_555
H33 C28 1_555 1_555
C29 N8 1_555 1_555
H34 C29 1_555 1_555
H35 C29 1_555 1_555
C31 C29 1_555 1_555
H38 C31 1_555 1_555
H39 C31 1_555 1_555
C32 N8 1_555 1_555
C33 C32 1_555 1_555
H40 C33 1_555 1_555
C34 C33 1_555 1_555
H41 C34 1_555 1_555
C35 C34 1_555 1_555
H42 C35 1_555 1_555
C36 C35 1_555 1_555
H43 C36 1_555 1_555
C37 N7 1_555 1_555
Zn1A O3A 1_555 1_555
Zn1A_2 N5A 1_555 1_555
Zn1A_3 O13A 1_555 1_555
Zn2A O12 1_555 1_555
Zn2A_2 N3A 1_555 1_555
Zn2A_3 O5A 1_555 1_555
P1A O1A 1_555 1_555
P2A O6A 1_555 1_555
P3A O10A 1_555 1_555
O1A H1A 1_555 1_555
O3A P1A 1_555 1_555
O4A P1A 1_555 1_555
O5A P1A 1_555 1_555
O5A_2 Zn2A 1_555 1_555
O6A H2A 1_555 1_555
O7A P2A 1_555 1_555
H3A O7A 1_555 1_555
O8A P2A 1_555 1_555
O9A Zn2A 1_555 1_555
O11A P3A 1_555 1_555
H4A O11A 1_555 1_555
O12A Zn2 1_555 1_555
O13A P3A 1_555 1_555
O13A_2 Zn1A 1_555 1_555
N1A Zn1A 1_555 1_555
N2A C1A 1_555 1_555
N3A C10A 1_555 1_555
N3A_2 Zn2A 1_555 1_555
N4A C10A 1_555 1_555
N5A C19A 1_555 1_555
N5A_2 Zn1A 1_555 1_555
N6A C19A 1_555 1_555
N7A H5A 1_555 1_555
N8A C28A 1_555 1_555
C1A N1A 1_555 1_555
H6A C1A 1_555 1_555
C2A N2A 1_555 1_555
H7A C2A 1_555 1_555
H8A C2A 1_555 1_555
C3A C3 1_555 1_555
H9A C3A 1_555 1_555
H10A C3A 1_555 1_555
C4A N2A 1_555 1_555
C5A N1A 1_555 1_555
C6A C5A 1_555 1_555
H11A C6A 1_555 1_555
C7A C6A 1_555 1_555
H12A C7A 1_555 1_555
C8A C7A 1_555 1_555
H13A C8A 1_555 1_555
C9A C4A 1_555 1_555
H14A C9A 1_555 1_555
C10A H15A 1_555 1_555
C11A N4A 1_555 1_555
H16A C11A 1_555 1_555
H17A C11A 1_555 1_555
C12A C12 1_555 1_555
H18A C12A 1_555 1_555
H19A C12A 1_555 1_555
C13A N4A 1_555 1_555
C14A C13A 1_555 1_555
H20A C14A 1_555 1_555
C15A C14A 1_555 1_555
H21A C15A 1_555 1_555
C16A C15A 1_555 1_555
H22A C16A 1_555 1_555
C17A C16A 1_555 1_555
H23A C17A 1_555 1_555
C18A N3A 1_555 1_555
C19A H24A 1_555 1_555
C20A N6A 1_555 1_555
H25A C20A 1_555 1_555
H26A C20A 1_555 1_555
C21A C21 1_555 1_555
H27A C21A 1_555 1_555
H28A C21A 1_555 1_555
C22A N6A 1_555 1_555
C23A C22A 1_555 1_555
H29A C23A 1_555 1_555
C24A C23A 1_555 1_555
H30A C24A 1_555 1_555
C25A C24A 1_555 1_555
H31A C25A 1_555 1_555
C26A C25A 1_555 1_555
H32A C26A 1_555 1_555
C27A N5A 1_555 1_555
C28A N7A 1_555 1_555
H33A C28A 1_555 1_555
C29A N8A 1_555 1_555
H34A C29A 1_555 1_555
H35A C29A 1_555 1_555
C31A C31 1_555 1_555
H38A C31A 1_555 1_555
H39A C31A 1_555 1_555
C32A N8A 1_555 1_555
C33A C32A 1_555 1_555
H40A C33A 1_555 1_555
C34A C33A 1_555 1_555
H41A C34A 1_555 1_555
C35A C34A 1_555 1_555
H42A C35A 1_555 1_555
C36A C35A 1_555 1_555
H43A C36A 1_555 1_555
C37A N7A 1_555 1_555
P2 O9 1_555 1_555
P3 O13 1_555 1_555
C4 C5 1_555 1_555
C8 C9 1_555 1_555
C13 C18 1_555 1_555
C17 C18 1_555 1_555
C22 C27 1_555 1_555
C26 C27 1_555 1_555
C32 C37 1_555 1_555
C36 C37 1_555 1_555
P2A O9A 1_555 1_555
P3A O12A 1_555 1_555
C2A C3A 1_555 1_555
C4A C5A 1_555 1_555
C8A C9A 1_555 1_555
C11A C12A 1_555 1_555
C13A C18A 1_555 1_555
C17A C18A 1_555 1_555
C20A C21A 1_555 1_555
C22A C27A 1_555 1_555
C26A C27A 1_555 1_555
C29A C31A 1_555 1_555
C32A C37A 1_555 1_555
C36A C37A 1_555 1_555

#END
