
#######################################################################
#
#                 Cambridge Crystallographic Data Centre
#                                CCDC 
#
#######################################################################
#
# If this CIF has been generated from an entry in the Cambridge 
# Structural Database, then it will include bibliographic, chemical, 
# crystal, experimental, refinement or atomic coordinate data resulting 
# from the CCDC's data processing and validation procedures.
#
#######################################################################

data_NAXVOY04
_symmetry_cell_setting           monoclinic
_symmetry_space_group_name_H-M   'P 21/n'
_symmetry_Int_Tables_number      14
_space_group_name_Hall           '-P 2yn'
loop_
_symmetry_equiv_pos_site_id
_symmetry_equiv_pos_as_xyz
1 x,y,z
2 1/2-x,1/2+y,1/2-z
3 -x,-y,-z
4 1/2+x,1/2-y,1/2+z
_cell_length_a                   11.3630(5)
_cell_length_b                   9.8950(5)
_cell_length_c                   14.6054(8)
_cell_angle_alpha                90
_cell_angle_beta                 91.441(4)
_cell_angle_gamma                90
_cell_volume                     1641.67
loop_
_atom_site_label
_atom_site_type_symbol
_atom_site_fract_x
_atom_site_fract_y
_atom_site_fract_z
Mg1 Mg -0.5000 -0.5000 0.5000
Mg2 Mg -0.24372(6) -0.42277(7) 0.63466(5)
Mg3 Mg -0.26031(6) -0.61373(7) 0.80907(5)
Mg4 Mg 0.0000 -0.5000 0.5000
O1 O -0.53577(15) -0.5025(2) 0.63725(12)
O2 O -0.36927(14) -0.50918(16) 0.71938(11)
O3 O -0.48010(16) -0.29328(17) 0.50456(13)
O4 O -0.34342(14) -0.24588(15) 0.61164(11)
O5 O -0.31662(13) -0.52604(16) 0.52458(11)
O6 O -0.15000(15) -0.60429(19) 0.46717(13)
O7 O -0.15056(14) -0.58286(16) 0.69582(11)
O8 O 0.01595(16) -0.6073(2) 0.62026(13)
O9 O -0.18567(16) -0.44537(17) 0.86521(11)
O10 O -0.19306(14) -0.30199(15) 0.74719(11)
O11 O -0.10179(14) -0.34868(16) 0.56317(11)
O12 O -0.11131(15) -0.12929(17) 0.59768(12)
C1 C -0.4800(2) -0.5188(3) 0.70880(17)
C2 C -0.4215(2) -0.2149(2) 0.55169(18)
C3 C -0.2573(2) -0.5981(3) 0.47029(17)
C4 C -0.0493(2) -0.6322(3) 0.68320(18)
C5 C -0.1708(2) -0.3334(2) 0.82991(16)
C6 C -0.0696(2) -0.2258(3) 0.55654(17)
H1 H -0.521(3) -0.532(4) 0.763(2)
H2 H -0.434(3) -0.112(3) 0.543(2)
H3 H -0.300(3) -0.658(3) 0.430(2)
H4 H -0.021(3) -0.695(4) 0.729(2)
H5 H -0.137(3) -0.265(3) 0.871(2)
H6 H 0.002(3) -0.215(4) 0.513(3)
Mg2B Mg -0.75628(6) -0.57723(7) 0.36534(5)
Mg3B Mg -0.73969(6) -0.38627(7) 0.19093(5)
O1B O -0.46423(15) -0.4975(2) 0.36275(12)
O2B O -0.63073(14) -0.49082(16) 0.28062(11)
O3B O -0.51990(16) -0.70672(17) 0.49544(13)
O4B O -0.65658(14) -0.75412(15) 0.38836(11)
O5B O -0.68338(13) -0.47396(16) 0.47542(11)
O6B O -0.85000(15) -0.39571(19) 0.53283(13)
O7B O -0.84944(14) -0.41714(16) 0.30418(11)
O8B O -1.01595(16) -0.3927(2) 0.37974(13)
O9B O -0.81433(16) -0.55463(17) 0.13479(11)
O10B O -0.80694(14) -0.69801(15) 0.25281(11)
O11B O -0.89821(14) -0.65132(16) 0.43683(11)
O12B O -0.88869(15) -0.87071(17) 0.40232(12)
C1B C -0.5200(2) -0.4812(3) 0.29120(17)
C2B C -0.5785(2) -0.7851(2) 0.44831(18)
C3B C -0.7427(2) -0.4019(3) 0.52971(17)
C4B C -0.9507(2) -0.3678(3) 0.31680(18)
C5B C -0.8292(2) -0.6666(2) 0.17009(16)
C6B C -0.9304(2) -0.7742(3) 0.44346(17)
H1B H -0.479(3) -0.468(4) 0.237(2)
H2B H -0.566(3) -0.888(3) 0.457(2)
H3B H -0.700(3) -0.342(3) 0.570(2)
H4B H -0.979(3) -0.305(4) 0.271(2)
H5B H -0.863(3) -0.735(3) 0.129(2)
H6B H -1.002(3) -0.785(4) 0.487(3)
Mg3A Mg -0.23969(6) -0.11373(7) 0.69093(5)
Mg3C Mg -0.76031(6) -0.88627(7) 0.30907(5)
Mg4_2 Mg -1.0000 -0.5000 0.5000
O4A O -0.15658(14) -0.74588(15) 0.88836(11)
O4C O -0.84342(14) -0.25412(15) 0.11164(11)
O6B_2 O 0.15000(15) -0.39571(19) 0.53283(13)
O8B_2 O -0.01595(16) -0.3927(2) 0.37974(13)
O10A O -0.30694(14) -0.80199(15) 0.75281(11)
O10C O -0.69306(14) -0.19801(15) 0.24719(11)
O11B_2 O 0.10179(14) -0.65132(16) 0.43683(11)
O12A O -0.38869(15) -0.62929(17) 0.90232(12)
O12C O -0.61131(15) -0.37071(17) 0.09768(12)
loop_
_geom_bond_atom_site_label_1
_geom_bond_atom_site_label_2
_geom_bond_site_symmetry_1
_geom_bond_site_symmetry_2
Mg1 O1 1_555 1_555
Mg2 O2 1_555 1_555
Mg3 O2 1_555 1_555
Mg4 O6 1_555 1_555
O1 C1 1_555 1_555
O2 C1 1_555 1_555
O3 Mg1 1_555 1_555
O4 Mg2 1_555 1_555
O5 Mg1 1_555 1_555
O6 C3 1_555 1_555
O7 Mg2 1_555 1_555
O8 Mg4 1_555 1_555
O9 Mg3 1_555 1_555
O10 Mg2 1_555 1_555
O11 Mg2 1_555 1_555
O12 C6 1_555 1_555
C1 H1 1_555 1_555
C2 O3 1_555 1_555
C3 O5 1_555 1_555
C4 O7 1_555 1_555
C5 O9 1_555 1_555
C6 O11 1_555 1_555
H2 C2 1_555 1_555
H3 C3 1_555 1_555
H4 C4 1_555 1_555
H5 C5 1_555 1_555
H6 C6 1_555 1_555
Mg2B O2B 1_555 1_555
Mg3B O2B 1_555 1_555
O1B Mg1 1_555 1_555
O2B C1B 1_555 1_555
O3B Mg1 1_555 1_555
O4B Mg2B 1_555 1_555
O5B Mg1 1_555 1_555
O6B C3B 1_555 1_555
O7B Mg2B 1_555 1_555
O8B C4B 1_555 1_555
O9B Mg3B 1_555 1_555
O10B Mg2B 1_555 1_555
O11B Mg2B 1_555 1_555
O12B C6B 1_555 1_555
C1B O1B 1_555 1_555
C2B O3B 1_555 1_555
C3B O5B 1_555 1_555
C4B O7B 1_555 1_555
C5B O9B 1_555 1_555
C6B O11B 1_555 1_555
H1B C1B 1_555 1_555
H2B C2B 1_555 1_555
H3B C3B 1_555 1_555
H4B C4B 1_555 1_555
H5B C5B 1_555 1_555
H6B C6B 1_555 1_555
Mg3A O4 1_555 1_555
Mg3C O4B 1_555 1_555
Mg4_2 O6B 1_555 1_555
O4A Mg3 1_555 1_555
O4C Mg3B 1_555 1_555
O6B_2 Mg4 1_555 1_555
O8B_2 Mg4 1_555 1_555
O10A Mg3 1_555 1_555
O10C Mg3B 1_555 1_555
O11B_2 Mg4 1_555 1_555
O12A Mg3 1_555 1_555
O12C Mg3B 1_555 1_555
Mg2 O5 1_555 1_555
Mg3 O7 1_555 1_555
Mg4 O11 1_555 1_555
O4 C2 1_555 1_555
O8 C4 1_555 1_555
O10 C5 1_555 1_555
O10 Mg3A 1_555 1_555
O12 Mg3A 1_555 1_555
Mg2B O5B 1_555 1_555
Mg3B O7B 1_555 1_555
O4B C2B 1_555 1_555
O8B Mg4_2 1_555 1_555
O10B C5B 1_555 1_555
O10B Mg3C 1_555 1_555
O11B Mg4_2 1_555 1_555
O12B Mg3C 1_555 1_555

#END
