
#######################################################################
#
#                 Cambridge Crystallographic Data Centre
#                                CCDC 
#
#######################################################################
#
# If this CIF has been generated from an entry in the Cambridge 
# Structural Database, then it will include bibliographic, chemical, 
# crystal, experimental, refinement or atomic coordinate data resulting 
# from the CCDC's data processing and validation procedures.
#
#######################################################################

data_NDAIAH
_symmetry_cell_setting           monoclinic
_symmetry_space_group_name_H-M   'P 21/m'
_symmetry_Int_Tables_number      11
_space_group_name_Hall           '-P 2yb'
loop_
_symmetry_equiv_pos_site_id
_symmetry_equiv_pos_as_xyz
1 x,y,z
2 -x,1/2+y,-z
3 -x,-y,-z
4 x,1/2-y,z
_cell_length_a                   8.73
_cell_length_b                   18.33
_cell_length_c                   9.31
_cell_angle_alpha                90
_cell_angle_beta                 105.8
_cell_angle_gamma                90
_cell_volume                     1433.51
loop_
_atom_site_label
_atom_site_type_symbol
_atom_site_fract_x
_atom_site_fract_y
_atom_site_fract_z
Cl1 Cl -0.64000 0.25000 -0.59000
Cl2 Cl -0.18900 0.25000 -0.60000
C1 C -0.24700 0.04400 -0.55900
C2 C -0.42700 0.08100 -0.59100
C3 C -0.70300 0.06200 -0.91900
C4 C -0.51300 0.08800 -0.88400
C5 C 0.15100 -0.11900 0.05000
C6 C 0.21900 -0.18100 0.17700
Nd1 Nd 0.00800 -0.02400 -0.21800
N1 N -0.46600 0.12800 -0.73200
N2 N 0.21800 -0.25000 0.08700
O1 O -0.22700 0.00900 -0.43400
O2 O -0.17800 0.05000 -0.64200
O3 O -0.74400 0.03300 -1.05000
O4 O -0.77300 0.07800 -0.83300
O5 O 0.08600 -0.06400 0.08300
O6 O 0.17000 -0.13000 -0.07100
O7 O -0.06600 -0.13800 -0.37300
O8 O 0.06800 0.09400 -0.31900
O2B O 0.17800 -0.05000 -0.35800
O3_2 O 0.25600 0.03300 -0.05000
O4B O -0.22700 -0.07800 -0.16700
O5B O -0.08600 0.06400 -0.08300
Nd1B Nd -0.00800 0.02400 -0.78200
Nd1_2 Nd -0.99200 -0.02400 -1.21800
Nd1B_2 Nd -1.00800 0.02400 -0.78200
Nd1B_3 Nd -0.00800 0.02400 0.21800
C6C C 0.21900 -0.31900 0.17700
C5C C 0.15100 -0.38100 0.05000
O5C O 0.08600 -0.43600 0.08300
O6C O 0.17000 -0.37000 -0.07100
Nd1A Nd -0.00800 -0.52400 0.21800
Nd1C Nd 0.00800 -0.47600 -0.21800
O1C O -0.22700 -0.50900 -0.43400
O2A O 0.17800 -0.45000 -0.35800
O3C O 0.25600 -0.53300 -0.05000
O4A O -0.22700 -0.42200 -0.16700
O5A O -0.08600 -0.56400 -0.08300
O7C O -0.06600 -0.36200 -0.37300
O8C O 0.06800 -0.59400 -0.31900
C1C C -0.24700 -0.54400 -0.55900
C2C C -0.42700 -0.58100 -0.59100
O2C O -0.17800 -0.55000 -0.64200
N1C N -0.46600 -0.62800 -0.73200
Nd1A_2 Nd -0.00800 -0.52400 -0.78200
C4C C -0.51300 -0.58800 -0.88400
C3C C -0.70300 -0.56200 -0.91900
O3C_2 O -0.74400 -0.53300 -1.05000
O4C O -0.77300 -0.57800 -0.83300
Nd1C_2 Nd -0.99200 -0.47600 -1.21800
Nd1A_3 Nd -1.00800 -0.52400 -0.78200
O9 O -0.55400 0.25000 -1.03000
loop_
_geom_bond_atom_site_label_1
_geom_bond_atom_site_label_2
_geom_bond_site_symmetry_1
_geom_bond_site_symmetry_2
C1 C2 1_555 1_555
C2 N1 1_555 1_555
C3 C4 1_555 1_555
C4 N1 1_555 1_555
C5 C6 1_555 1_555
C6 N2 1_555 1_555
Nd1 O1 1_555 1_555
N2 C6C 1_555 1_555
O1 C1 1_555 1_555
O2 C1 1_555 1_555
O3 C3 1_555 1_555
O4 C3 1_555 1_555
O5 C5 1_555 1_555
O6 C5 1_555 1_555
O7 Nd1 1_555 1_555
O8 Nd1 1_555 1_555
O2B Nd1 1_555 1_555
O3_2 Nd1 1_555 1_555
O4B Nd1 1_555 1_555
O5B Nd1 1_555 1_555
Nd1B O2 1_555 1_555
Nd1_2 O3 1_555 1_555
Nd1B_2 O4 1_555 1_555
Nd1B_3 O5 1_555 1_555
C6C C5C 1_555 1_555
C5C O5C 1_555 1_555
O5C Nd1A 1_555 1_555
O6C C5C 1_555 1_555
Nd1A O5A 1_555 1_555
Nd1C O5C 1_555 1_555
O1C Nd1C 1_555 1_555
O2A Nd1C 1_555 1_555
O3C Nd1C 1_555 1_555
O4A Nd1C 1_555 1_555
O5A Nd1C 1_555 1_555
O7C Nd1C 1_555 1_555
O8C Nd1C 1_555 1_555
C1C O1C 1_555 1_555
C2C C1C 1_555 1_555
O2C C1C 1_555 1_555
N1C C2C 1_555 1_555
Nd1A_2 O2C 1_555 1_555
C4C N1C 1_555 1_555
C3C C4C 1_555 1_555
O3C_2 C3C 1_555 1_555
O4C C3C 1_555 1_555
Nd1C_2 O3C_2 1_555 1_555
Nd1A_3 O4C 1_555 1_555
Nd1 O5 1_555 1_555
Nd1 O6 1_555 1_555
O5B Nd1B_3 1_555 1_555
O6C Nd1C 1_555 1_555

#END
