
#######################################################################
#
#                 Cambridge Crystallographic Data Centre
#                                CCDC 
#
#######################################################################
#
# If this CIF has been generated from an entry in the Cambridge 
# Structural Database, then it will include bibliographic, chemical, 
# crystal, experimental, refinement or atomic coordinate data resulting 
# from the CCDC's data processing and validation procedures.
#
#######################################################################

data_NEBNOZ
_symmetry_cell_setting           triclinic
_symmetry_space_group_name_H-M   'P -1'
_symmetry_Int_Tables_number      2
_space_group_name_Hall           '-P 1'
loop_
_symmetry_equiv_pos_site_id
_symmetry_equiv_pos_as_xyz
1 x,y,z
2 -x,-y,-z
_cell_length_a                   13.0735(3)
_cell_length_b                   13.0828(3)
_cell_length_c                   15.6584(3)
_cell_angle_alpha                82.7410(10)
_cell_angle_beta                 68.0590(10)
_cell_angle_gamma                84.1880(10)
_cell_volume                     2460.03
loop_
_atom_site_label
_atom_site_type_symbol
_atom_site_fract_x
_atom_site_fract_y
_atom_site_fract_z
Zn1 Zn 0.92263(4) 0.69994(4) 0.83111(4)
Zn2 Zn 1.03486(4) 0.69837(4) 0.62769(4)
O1 O 0.9441(4) 0.8512(3) 0.7847(3)
O2 O 1.0207(4) 0.8525(3) 0.6315(3)
O3 O 0.9369(4) 1.5438(3) 0.8158(3)
O4 O 1.0286(4) 1.5435(3) 0.6640(3)
O5 O 0.7897(3) 0.7097(3) 0.7932(3)
O6 O 0.8731(3) 0.7006(4) 0.6414(3)
O7 O 0.0804(3) 0.6861(3) 0.8275(3)
O8 O 0.1611(3) 0.6960(4) 0.6739(3)
N1 N 0.8510(3) 0.6822(3) 0.9720(3)
N2 N 1.1250(4) 0.6839(3) 0.4923(3)
C1 C 0.7534(5) 0.7221(5) 1.0234(4)
H1 H 0.7153 0.7718 0.9946
C2 C 0.7040(5) 0.6942(6) 1.1185(4)
H2 H 0.6347 0.7260 1.1533
C3 C 0.7563(6) 0.6205(5) 1.1615(4)
C4 C 0.8586(6) 0.5820(6) 1.1082(4)
H3 H 0.8995 0.5337 1.1354
C5 C 0.9016(6) 0.6132(5) 1.0158(4)
H4 H 0.9721 0.5840 0.9804
C6 C 0.7094(6) 0.5782(5) 1.2594(5)
H5 H 0.7587 0.5410 1.2854
C7 C 0.6060(6) 0.5881(6) 1.3128(5)
H6 H 0.5579 0.6287 1.2873
C8 C 0.4425(6) 0.5573(6) 1.4519(5)
H7 H 0.4017 0.5969 1.4189
C9 C 0.5562(6) 0.5422(5) 1.4091(4)
C10 C 0.6125(6) 0.4838(6) 1.4590(4)
H8 H 0.6903 0.4718 1.4314
C11 C 1.1884(5) 0.7573(5) 0.4367(4)
H9 H 1.1845 0.8221 0.4595
C12 C 1.2588(6) 0.7434(5) 0.3482(4)
H10 H 1.3029 0.7978 0.3114
C13 C 1.2660(5) 0.6503(5) 0.3124(4)
C14 C 1.1996(5) 0.5730(5) 0.3705(4)
H11 H 1.2013 0.5077 0.3493
C15 C 1.1319(5) 0.5931(5) 0.4586(4)
H12 H 1.0877 0.5399 0.4977
C16 C 1.3448(5) 0.6315(5) 0.2196(4)
H13 H 1.4036 0.6763 0.1912
C17 C 1.3391(5) 0.5565(5) 0.1730(4)
H14 H 1.2763 0.5162 0.1996
C18 C 1.5276(6) 0.5653(6) 0.0496(5)
H15 H 1.5471 0.6103 0.0834
C19 C 1.4209(5) 0.5298(5) 0.0836(4)
C20 C 1.3949(6) 0.4647(6) 0.0331(4)
H16 H 1.3228 0.4399 0.0553
C21 C 0.9863(5) 0.8953(4) 0.7048(4)
C22 C 0.9943(5) 1.0100(4) 0.6961(4)
C23 C 0.9540(5) 1.0622(4) 0.7724(4)
H17 H 0.9193 1.0254 0.8311
C24 C 0.9620(5) 1.1698(4) 0.7671(4)
C25 C 1.0163(5) 1.2235(4) 0.6796(4)
C26 C 1.0563(5) 1.1678(4) 0.6005(4)
H18 H 1.0911 1.2031 0.5412
C27 C 1.0455(5) 1.0642(4) 0.6084(4)
H19 H 1.0726 1.0281 0.5546
C28 C 0.9166(7) 1.2260(5) 0.8452(4)
H20 H 0.8800 1.1905 0.9041
C29 C 0.9238(6) 1.3297(5) 0.8384(4)
H21 H 0.8919 1.3659 0.8921
C30 C 0.9786(5) 1.3837(4) 0.7517(4)
C31 C 1.0237(5) 1.3309(4) 0.6744(4)
H22 H 1.0605 1.3676 0.6161
C32 C 0.9820(4) 1.4993(4) 0.7433(4)
C33 C 0.7899(4) 0.7065(4) 0.7125(4)
C34 C 0.6789(4) 0.7069(5) 0.7044(4)
C35 C 0.6709(5) 0.7081(6) 0.6176(4)
H23 H 0.7359 0.7096 0.5634
C36 C 0.5702(5) 0.7070(7) 0.6104(4)
H24 H 0.5660 0.7098 0.5509
C37 C 0.4724(4) 0.7018(5) 0.6894(4)
C38 C 0.4801(4) 0.6974(5) 0.7777(4)
C39 C 0.5852(5) 0.7011(5) 0.7826(4)
H25 H 0.5912 0.6996 0.8414
C40 C 0.3669(4) 0.7009(5) 0.6836(4)
H26 H 0.3607 0.7066 0.6246
C41 C 0.2742(4) 0.6921(4) 0.7615(4)
C42 C 0.2831(5) 0.6841(6) 0.8489(4)
H27 H 0.2186 0.6765 0.9031
C43 C 0.3828(5) 0.6870(6) 0.8569(4)
H28 H 0.3870 0.6820 0.9166
C44 C 0.1636(4) 0.6917(4) 0.7538(4)
Zn1_2 Zn 0.92263(4) -0.30006(4) 0.83111(4)
Zn1_3 Zn 0.92263(4) 1.69994(4) 0.83111(4)
Zn1_4 Zn -0.07737(4) 0.69994(4) 0.83111(4)
Zn1A Zn 0.07737(4) 0.30006(4) 2.16889(4)
Zn1_5 Zn 1.92263(4) 0.69994(4) 0.83111(4)
Zn2_2 Zn 1.03486(4) -0.30163(4) 0.62769(4)
Zn2_3 Zn 1.03486(4) 1.69837(4) 0.62769(4)
Zn2_4 Zn 0.03486(4) 0.69837(4) 0.62769(4)
Zn2A Zn 1.96514(4) 0.30163(4) -0.62769(4)
Zn2_5 Zn 2.03486(4) 0.69837(4) 0.62769(4)
O1_2 O 0.9441(4) -0.1488(3) 0.7847(3)
O2_2 O 1.0207(4) -0.1475(3) 0.6315(3)
O3_2 O 0.9369(4) 0.5438(3) 0.8158(3)
O3_3 O 0.9369(4) -0.4562(3) 0.8158(3)
O4_2 O 1.0286(4) 0.5435(3) 0.6640(3)
O4_3 O 1.0286(4) -0.4565(3) 0.6640(3)
O5_2 O 1.7897(3) 0.7097(3) 0.7932(3)
O5_3 O 0.7897(3) -0.2903(3) 0.7932(3)
O6_2 O 1.8731(3) 0.7006(4) 0.6414(3)
O6_3 O 0.8731(3) -0.2994(4) 0.6414(3)
O7_2 O 1.0804(3) 0.6861(3) 0.8275(3)
O7_3 O 1.0804(3) -0.3139(3) 0.8275(3)
O8_2 O 1.1611(3) 0.6960(4) 0.6739(3)
O8_3 O 1.1611(3) -0.3040(4) 0.6739(3)
N1A N 0.1490(3) 0.3178(3) 2.0280(3)
N1_2 N 0.8510(3) -0.3178(3) 0.9720(3)
N2A N 1.8750(4) 0.3161(3) -0.4923(3)
N2_2 N 1.1250(4) -0.3161(3) 0.4923(3)
C1A C 0.2466(5) 0.2779(5) 1.9766(4)
H1A H 0.2847 0.2282 2.0054
C2A C 0.2960(5) 0.3058(6) 1.8815(4)
H2A H 0.3653 0.2740 1.8467
C3A C 0.2437(6) 0.3795(5) 1.8385(4)
C4A C 0.1414(6) 0.4180(6) 1.8918(4)
H3A H 0.1005 0.4663 1.8646
C5A C 0.0984(6) 0.3868(5) 1.9842(4)
H4A H 0.0279 0.4160 2.0196
C6A C 0.2906(6) 0.4218(5) 1.7406(5)
H5A H 0.2413 0.4590 1.7146
C7A C 0.3940(6) 0.4119(6) 1.6872(5)
H6A H 0.4421 0.3713 1.7127
C8A C 0.5575(6) 0.4427(6) 1.5481(5)
H7A H 0.5983 0.4031 1.5811
C9A C 0.4438(6) 0.4578(5) 1.5909(4)
C10A C 0.3875(6) 0.5162(6) 1.5410(4)
H8A H 0.3097 0.5282 1.5686
C11A C 1.8116(5) 0.2427(5) -0.4367(4)
H9A H 1.8155 0.1779 -0.4595
C12A C 1.7412(6) 0.2566(5) -0.3482(4)
H10A H 1.6971 0.2022 -0.3114
C13A C 1.7340(5) 0.3497(5) -0.3124(4)
C14A C 1.8004(5) 0.4270(5) -0.3705(4)
H11A H 1.7987 0.4923 -0.3493
C15A C 1.8681(5) 0.4069(5) -0.4586(4)
H12A H 1.9123 0.4601 -0.4977
C16A C 1.6552(5) 0.3685(5) -0.2196(4)
H13A H 1.5964 0.3237 -0.1912
C17A C 1.6609(5) 0.4435(5) -0.1730(4)
H14A H 1.7237 0.4838 -0.1996
C18A C 1.4724(6) 0.4347(6) -0.0496(5)
H15A H 1.4529 0.3897 -0.0834
C19A C 1.5791(5) 0.4702(5) -0.0836(4)
C20A C 1.6051(6) 0.5353(6) -0.0331(4)
H16A H 1.6772 0.5601 -0.0553
C21_2 C 0.9863(5) -0.1047(4) 0.7048(4)
C22_2 C 0.9943(5) 0.0100(4) 0.6961(4)
C23_2 C 0.9540(5) 0.0622(4) 0.7724(4)
H17_2 H 0.9193 0.0254 0.8311
C24_2 C 0.9620(5) 0.1698(4) 0.7671(4)
C25_2 C 1.0163(5) 0.2235(4) 0.6796(4)
C26_2 C 1.0563(5) 0.1678(4) 0.6005(4)
H18_2 H 1.0911 0.2031 0.5412
C27_2 C 1.0455(5) 0.0642(4) 0.6084(4)
H19_2 H 1.0726 0.0281 0.5546
C28_2 C 0.9166(7) 0.2260(5) 0.8452(4)
H20_2 H 0.8800 0.1905 0.9041
C29_2 C 0.9238(6) 0.3297(5) 0.8384(4)
H21_2 H 0.8919 0.3659 0.8921
C30_2 C 0.9786(5) 0.3837(4) 0.7517(4)
C31_2 C 1.0237(5) 0.3309(4) 0.6744(4)
H22_2 H 1.0605 0.3676 0.6161
C32_2 C 0.9820(4) 0.4993(4) 0.7433(4)
C33_2 C 1.7899(4) 0.7065(4) 0.7125(4)
C34_2 C 1.6789(4) 0.7069(5) 0.7044(4)
C35_2 C 1.6709(5) 0.7081(6) 0.6176(4)
H23_2 H 1.7359 0.7096 0.5634
C36_2 C 1.5702(5) 0.7070(7) 0.6104(4)
H24_2 H 1.5660 0.7098 0.5509
C37_2 C 1.4724(4) 0.7018(5) 0.6894(4)
C38_2 C 1.4801(4) 0.6974(5) 0.7777(4)
C39_2 C 1.5852(5) 0.7011(5) 0.7826(4)
H25_2 H 1.5912 0.6996 0.8414
C40_2 C 1.3669(4) 0.7009(5) 0.6836(4)
H26_2 H 1.3607 0.7066 0.6246
C41_2 C 1.2742(4) 0.6921(4) 0.7615(4)
C42_2 C 1.2831(5) 0.6841(6) 0.8489(4)
H27_2 H 1.2186 0.6765 0.9031
C43_2 C 1.3828(5) 0.6870(6) 0.8569(4)
H28_2 H 1.3870 0.6820 0.9166
C44_2 C 1.1636(4) 0.6917(4) 0.7538(4)
O9 O 0.4879(13) 1.1604(13) 0.9155(12)
N3 N 0.5929(12) 1.0316(11) 0.8551(10)
C45 C 0.6852(17) 0.9485(16) 0.8495(17)
H29 H 0.7194 0.9590 0.8936
H30 H 0.7409 0.9528 0.7867
H31 H 0.6545 0.8803 0.8647
C46 C 0.5309(18) 1.0272(18) 0.7905(15)
H32 H 0.4749 1.0847 0.7990
H33 H 0.4949 0.9617 0.8047
H34 H 0.5830 1.0324 0.7263
C47 C 0.5688(18) 1.1127(16) 0.9222(16)
H35 H 0.6079 1.1234 0.9603
O11 O 1.0608(16) 0.9052(15) 0.9365(14)
O12 O 1.295(2) 1.1429(19) 0.6889(17)
O14 O 1.106(3) 1.047(3) 0.911(3)
O10? O 1.0380(14) 1.0010(16) 0.9779(13)
O13? O 0.640(3) 1.085(2) 0.946(2)
C48? C 0.681(3) 0.953(2) 0.8145(19)
C49? C 0.695(2) 0.995(2) 0.9737(19)
C50? C 0.5664(17) 1.1060(16) 0.8972(15)
C51? C 1.108(2) 1.110(2) 0.9178(19)
C52? C 1.125(2) 0.9221(15) 0.878(2)
C53? C 1.2680(19) 1.055(2) 0.7637(15)
H36? H 0.6415 0.9828 0.7738
H37? H 0.6589 0.8821 0.8375
H38? H 0.7605 0.9521 0.7798
H39? H 0.6643 1.0476 1.0174
H40? H 0.7760 0.9963 0.9481
H41? H 0.6739 0.9268 1.0059
H42? H 0.5401 1.1354 0.9545
H43? H 1.0484 1.0788 0.9705
H44? H 1.0771 1.1653 0.8844
H45? H 1.1586 1.1397 0.9403
H46? H 1.1721 0.8754 0.8332
H47? H 1.0501 0.9269 0.8785
H48? H 1.1243 0.8954 0.9401
H49? H 1.2786 1.1271 0.7477
N4? N 0.6511(16) 1.0174(15) 0.8958(14)
N5? N 1.1715(16) 1.0286(14) 0.8530(13)
O15? O 1.481(3) 1.122(3) 0.613(2)
O16? O 1.532(2) 1.170(2) 0.5775(19)
O17? O 0.586(3) 1.168(3) 0.985(2)
O18? O 0.5235(19) 1.1491(18) 0.8463(16)
O19? O 1.333(3) 1.000(4) 0.710(3)
O20? O 0.868(3) 0.952(2) 1.023(2)
O21? O 0.983(3) 0.931(3) 1.003(2)
O22? O 1.405(3) 1.068(3) 0.636(2)
loop_
_geom_bond_atom_site_label_1
_geom_bond_atom_site_label_2
_geom_bond_site_symmetry_1
_geom_bond_site_symmetry_2
Zn1 O1 1_555 1_555
Zn2 O2 1_555 1_555
O1 C21 1_555 1_555
O2 C21 1_555 1_555
O3 C32 1_555 1_555
O4 C32 1_555 1_555
O5 Zn1 1_555 1_555
O6 Zn2 1_555 1_555
O7 C44 1_555 1_555
O8 C44 1_555 1_555
N1 Zn1 1_555 1_555
N2 Zn2 1_555 1_555
C1 N1 1_555 1_555
H1 C1 1_555 1_555
C2 C1 1_555 1_555
H2 C2 1_555 1_555
C3 C2 1_555 1_555
C4 C3 1_555 1_555
H3 C4 1_555 1_555
C5 N1 1_555 1_555
H4 C5 1_555 1_555
C6 C3 1_555 1_555
H5 C6 1_555 1_555
C7 C6 1_555 1_555
H6 C7 1_555 1_555
C8 H7 1_555 1_555
C9 C7 1_555 1_555
C10 C9 1_555 1_555
H8 C10 1_555 1_555
C11 N2 1_555 1_555
H9 C11 1_555 1_555
C12 C11 1_555 1_555
H10 C12 1_555 1_555
C13 C12 1_555 1_555
C14 C13 1_555 1_555
H11 C14 1_555 1_555
C15 N2 1_555 1_555
H12 C15 1_555 1_555
C16 C13 1_555 1_555
H13 C16 1_555 1_555
C17 C16 1_555 1_555
H14 C17 1_555 1_555
C18 H15 1_555 1_555
C19 C17 1_555 1_555
C20 C19 1_555 1_555
H16 C20 1_555 1_555
C21 C22 1_555 1_555
C22 C23 1_555 1_555
C23 H17 1_555 1_555
C24 C23 1_555 1_555
C25 C24 1_555 1_555
C26 C25 1_555 1_555
H18 C26 1_555 1_555
C27 C22 1_555 1_555
H19 C27 1_555 1_555
C28 C24 1_555 1_555
H20 C28 1_555 1_555
C29 C28 1_555 1_555
H21 C29 1_555 1_555
C30 C29 1_555 1_555
C31 C25 1_555 1_555
H22 C31 1_555 1_555
C32 C30 1_555 1_555
C33 O5 1_555 1_555
C34 C33 1_555 1_555
C35 C34 1_555 1_555
H23 C35 1_555 1_555
C36 C35 1_555 1_555
H24 C36 1_555 1_555
C37 C36 1_555 1_555
C38 C37 1_555 1_555
C39 C34 1_555 1_555
H25 C39 1_555 1_555
C40 C37 1_555 1_555
H26 C40 1_555 1_555
C41 C40 1_555 1_555
C42 C41 1_555 1_555
H27 C42 1_555 1_555
C43 C38 1_555 1_555
H28 C43 1_555 1_555
C44 C41 1_555 1_555
O9 C47 1_555 1_555
N3 C45 1_555 1_555
C45 H29 1_555 1_555
H30 C45 1_555 1_555
H31 C45 1_555 1_555
C46 N3 1_555 1_555
H32 C46 1_555 1_555
H33 C46 1_555 1_555
H34 C46 1_555 1_555
C47 N3 1_555 1_555
H35 C47 1_555 1_555
Zn1_2 O1_2 1_555 1_555
Zn1_3 O3 1_555 1_555
Zn1_4 O7 1_555 1_555
Zn1A N1A 1_555 1_555
Zn1_5 O5_2 1_555 1_555
Zn2_2 O2_2 1_555 1_555
Zn2_3 O4 1_555 1_555
Zn2_4 O8 1_555 1_555
Zn2A N2A 1_555 1_555
Zn2_5 O6_2 1_555 1_555
O1_2 C21_2 1_555 1_555
O2_2 C21_2 1_555 1_555
O3_2 Zn1 1_555 1_555
O3_3 Zn1_2 1_555 1_555
O4_2 Zn2 1_555 1_555
O4_3 Zn2_2 1_555 1_555
O5_2 C33_2 1_555 1_555
O5_3 Zn1_2 1_555 1_555
O6_2 C33_2 1_555 1_555
O6_3 Zn2_2 1_555 1_555
O7_2 Zn1 1_555 1_555
O7_3 Zn1_2 1_555 1_555
O8_2 Zn2 1_555 1_555
O8_3 Zn2_2 1_555 1_555
N1A C1A 1_555 1_555
N1_2 Zn1_2 1_555 1_555
N2A C11A 1_555 1_555
N2_2 Zn2_2 1_555 1_555
C1A H1A 1_555 1_555
C2A C1A 1_555 1_555
H2A C2A 1_555 1_555
C3A C2A 1_555 1_555
C4A C3A 1_555 1_555
H3A C4A 1_555 1_555
C5A N1A 1_555 1_555
H4A C5A 1_555 1_555
C6A C3A 1_555 1_555
H5A C6A 1_555 1_555
C7A C6A 1_555 1_555
H6A C7A 1_555 1_555
C8A C10 1_555 1_555
H7A C8A 1_555 1_555
C9A C7A 1_555 1_555
C10A C8 1_555 1_555
H8A C10A 1_555 1_555
C11A H9A 1_555 1_555
C12A C11A 1_555 1_555
H10A C12A 1_555 1_555
C13A C12A 1_555 1_555
C14A C13A 1_555 1_555
H11A C14A 1_555 1_555
C15A N2A 1_555 1_555
H12A C15A 1_555 1_555
C16A C13A 1_555 1_555
H13A C16A 1_555 1_555
C17A C16A 1_555 1_555
H14A C17A 1_555 1_555
C18A C20 1_555 1_555
H15A C18A 1_555 1_555
C19A C17A 1_555 1_555
C20A C18 1_555 1_555
H16A C20A 1_555 1_555
C21_2 C22_2 1_555 1_555
C22_2 C23_2 1_555 1_555
C23_2 H17_2 1_555 1_555
C24_2 C23_2 1_555 1_555
C25_2 C24_2 1_555 1_555
C26_2 C25_2 1_555 1_555
H18_2 C26_2 1_555 1_555
C27_2 C22_2 1_555 1_555
H19_2 C27_2 1_555 1_555
C28_2 C24_2 1_555 1_555
H20_2 C28_2 1_555 1_555
C29_2 C28_2 1_555 1_555
H21_2 C29_2 1_555 1_555
C30_2 C29_2 1_555 1_555
C31_2 C25_2 1_555 1_555
H22_2 C31_2 1_555 1_555
C32_2 O3_2 1_555 1_555
C33_2 C34_2 1_555 1_555
C34_2 C35_2 1_555 1_555
C35_2 H23_2 1_555 1_555
C36_2 C35_2 1_555 1_555
H24_2 C36_2 1_555 1_555
C37_2 C36_2 1_555 1_555
C38_2 C37_2 1_555 1_555
C39_2 C34_2 1_555 1_555
H25_2 C39_2 1_555 1_555
C40_2 C37_2 1_555 1_555
H26_2 C40_2 1_555 1_555
C41_2 C40_2 1_555 1_555
C42_2 C41_2 1_555 1_555
H27_2 C42_2 1_555 1_555
C43_2 C38_2 1_555 1_555
H28_2 C43_2 1_555 1_555
C44_2 O7_2 1_555 1_555
O6 C33 1_555 1_555
C4 C5 1_555 1_555
C8 C9 1_555 1_555
C14 C15 1_555 1_555
C18 C19 1_555 1_555
C26 C27 1_555 1_555
C30 C31 1_555 1_555
C38 C39 1_555 1_555
C42 C43 1_555 1_555
O4_2 C32_2 1_555 1_555
O8_2 C44_2 1_555 1_555
C4A C5A 1_555 1_555
C8A C9A 1_555 1_555
C9A C10A 1_555 1_555
C14A C15A 1_555 1_555
C18A C19A 1_555 1_555
C19A C20A 1_555 1_555
C26_2 C27_2 1_555 1_555
C30_2 C31_2 1_555 1_555
C30_2 C32_2 1_555 1_555
C38_2 C39_2 1_555 1_555
C41_2 C44_2 1_555 1_555
C42_2 C43_2 1_555 1_555

#END
