
#######################################################################
#
#                 Cambridge Crystallographic Data Centre
#                                CCDC 
#
#######################################################################
#
# If this CIF has been generated from an entry in the Cambridge 
# Structural Database, then it will include bibliographic, chemical, 
# crystal, experimental, refinement or atomic coordinate data resulting 
# from the CCDC's data processing and validation procedures.
#
#######################################################################

data_NEDLOZ
_symmetry_cell_setting           orthorhombic
_symmetry_space_group_name_H-M   'P b a n'
_symmetry_Int_Tables_number      50
_space_group_name_Hall           '-P 2ab 2b'
loop_
_symmetry_equiv_pos_site_id
_symmetry_equiv_pos_as_xyz
1 x,y,z
2 1/2-x,1/2-y,z
3 1/2-x,y,-z
4 x,1/2-y,-z
5 -x,-y,-z
6 1/2+x,1/2+y,-z
7 1/2+x,-y,z
8 -x,1/2+y,z
_cell_length_a                   14.746(6)
_cell_length_b                   11.038(5)
_cell_length_c                   12.306(5)
_cell_angle_alpha                90
_cell_angle_beta                 90
_cell_angle_gamma                90
_cell_volume                     2003
loop_
_atom_site_label
_atom_site_type_symbol
_atom_site_fract_x
_atom_site_fract_y
_atom_site_fract_z
In1 In 1.2500 -0.2500 0.5000
O1 O 1.2388(7) -0.0919(15) 0.3685(11)
O2 O 1.1183(8) -0.1646(12) 0.4500(12)
C1 C 1.0203(5) 0.0412(9) 0.3419(5)
H1 H 1.0023 0.0359 0.4141
C2 C 0.9685(4) 0.1102(7) 0.2690(4)
H2 H 0.9172 0.1511 0.2930
C3 C 0.9941(3) 0.1167(4) 0.1623(3)
C4 C 1.0966(3) -0.0181(4) 0.3090(4)
C5 C 1.1205(3) -0.0131(4) 0.2019(4)
H3 H 1.1712 -0.0555 0.1778
C6 C 1.0706(3) 0.0535(4) 0.1295(3)
H4 H 1.0884 0.0565 0.0571
C7 C 1.1530(3) -0.0954(4) 0.3843(4)
C8 C 0.8485(3) 0.1928(4) 0.0828(3)
H5 H 0.8171 0.1569 0.1398
C9 C 0.8009(4) 0.2500 0.0000
C10 C 0.9418(2) 0.1888(4) 0.0812(3)
C11 C 0.9879(4) 0.2500 0.0000
H6 H 1.0509 0.2500 0.0000
In1_2 In 1.2500 0.7500 -0.5000
In1_3 In 0.2500 0.7500 0.5000
In1_4 In 0.2500 -0.2500 -0.5000
O1C O 1.2388(7) 0.5919(15) -0.3685(11)
O1A O 0.2612(7) 0.5919(15) 0.3685(11)
O1B O 0.2612(7) -0.0919(15) -0.3685(11)
O1A_2 O 1.2612(7) -0.4081(15) 0.3685(11)
O1B_2 O 1.2612(7) -0.0919(15) 0.6315(11)
O1C_2 O 1.2388(7) -0.4081(15) 0.6315(11)
O2C O 1.1183(8) 0.6646(12) -0.4500(12)
O2A O 0.3817(8) 0.6646(12) 0.4500(12)
O2B O 0.3817(8) -0.1646(12) -0.4500(12)
O2A_2 O 1.3817(8) -0.3354(12) 0.4500(12)
O2B_2 O 1.3817(8) -0.1646(12) 0.5500(12)
O2C_2 O 1.1183(8) -0.3354(12) 0.5500(12)
C1C C 1.0203(5) 0.4588(9) -0.3419(5)
C1A C 0.4797(5) 0.4588(9) 0.3419(5)
C1B C 0.4797(5) 0.0412(9) -0.3419(5)
H1C H 1.0023 0.4641 -0.4141
H1A H 0.4977 0.4641 0.4141
H1B H 0.4977 0.0359 -0.4141
C2C C 0.9685(4) 0.3898(7) -0.2690(4)
C2A C 0.5315(4) 0.3898(7) 0.2690(4)
C2B C 0.5315(4) 0.1102(7) -0.2690(4)
H2C H 0.9172 0.3489 -0.2930
H2A H 0.5828 0.3489 0.2930
H2B H 0.5828 0.1511 -0.2930
C3C C 0.9941(3) 0.3833(4) -0.1623(3)
C3A C 0.5059(3) 0.3833(4) 0.1623(3)
C3B C 0.5059(3) 0.1167(4) -0.1623(3)
C4C C 1.0966(3) 0.5181(4) -0.3090(4)
C4A C 0.4034(3) 0.5181(4) 0.3090(4)
C4B C 0.4034(3) -0.0181(4) -0.3090(4)
C5C C 1.1205(3) 0.5131(4) -0.2019(4)
C5A C 0.3795(3) 0.5131(4) 0.2019(4)
C5B C 0.3795(3) -0.0131(4) -0.2019(4)
H3C H 1.1712 0.5555 -0.1778
H3A H 0.3288 0.5555 0.1778
H3B H 0.3288 -0.0555 -0.1778
C6C C 1.0706(3) 0.4465(4) -0.1295(3)
C6A C 0.4294(3) 0.4465(4) 0.1295(3)
C6B C 0.4294(3) 0.0535(4) -0.1295(3)
H4C H 1.0884 0.4435 -0.0571
H4A H 0.4116 0.4435 0.0571
H4B H 0.4116 0.0565 -0.0571
C7C C 1.1530(3) 0.5954(4) -0.3843(4)
C7A C 0.3470(3) 0.5954(4) 0.3843(4)
C7B C 0.3470(3) -0.0954(4) -0.3843(4)
C8C C 0.8485(3) 0.3072(4) -0.0828(3)
C8A C 0.6515(3) 0.3072(4) 0.0828(3)
C8B C 0.6515(3) 0.1928(4) -0.0828(3)
H5C H 0.8171 0.3431 -0.1398
H5B H 0.6829 0.1569 -0.1398
H5A H 0.6829 0.3431 0.1398
C9A C 0.6991(4) 0.2500 0.0000
C10C C 0.9418(2) 0.3112(4) -0.0812(3)
C10A C 0.5582(2) 0.3112(4) 0.0812(3)
C10B C 0.5582(2) 0.1888(4) -0.0812(3)
C11A C 0.5121(4) 0.2500 0.0000
H6A H 0.4491 0.2500 0.0000
O5 O 1.2500 0.2500 0.0000
N1 N 1.2500 0.2500 0.2000(13)
H7 H 1.2651 0.3258 0.1800
C13 C 1.3224(13) 0.1586(18) 0.220(2)
H12 H 1.3480 0.1317 0.1521
H7A H 1.2349 0.1742 0.1800
C13A C 1.1776(13) 0.3414(18) 0.220(2)
H12A H 1.1520 0.3683 0.1521
O3? O 1.2093(7) -0.1626(11) 0.3515(5)
O4? O 1.1376(9) -0.093(2) 0.4833(9)
H8? H 1.1954 0.2223 0.1787
C12? C 1.2985(11) 0.1899(16) 0.2928(12)
H9? H 1.2743 0.2154 0.3615
H10? H 1.2946 0.1012 0.2765
H11? H 1.3641 0.2085 0.2798
loop_
_geom_bond_atom_site_label_1
_geom_bond_atom_site_label_2
_geom_bond_site_symmetry_1
_geom_bond_site_symmetry_2
In1 O1 1_555 1_555
O1 C7 1_555 1_555
O2 In1 1_555 1_555
C1 H1 1_555 1_555
C2 C1 1_555 1_555
H2 C2 1_555 1_555
C3 C2 1_555 1_555
C4 C1 1_555 1_555
C5 C4 1_555 1_555
H3 C5 1_555 1_555
C6 C3 1_555 1_555
H4 C6 1_555 1_555
C7 O2 1_555 1_555
C8 H5 1_555 1_555
C9 C8 1_555 1_555
C10 C3 1_555 1_555
C11 C10 1_555 1_555
H6 C11 1_555 1_555
N1 H7 1_555 1_555
C13 N1 1_555 1_555
H12 C13 1_555 1_555
In1_2 O1C 1_555 1_555
In1_3 O1A 1_555 1_555
In1_4 O1B 1_555 1_555
O1C C7C 1_555 1_555
O1A C7A 1_555 1_555
O1B C7B 1_555 1_555
O1A_2 In1 1_555 1_555
O1B_2 In1 1_555 1_555
O1C_2 In1 1_555 1_555
O2C In1_2 1_555 1_555
O2A In1_3 1_555 1_555
O2B In1_4 1_555 1_555
O2A_2 In1 1_555 1_555
O2B_2 In1 1_555 1_555
O2C_2 In1 1_555 1_555
C1C H1C 1_555 1_555
C1A H1A 1_555 1_555
C1B H1B 1_555 1_555
C2C C1C 1_555 1_555
C2A C1A 1_555 1_555
C2B C1B 1_555 1_555
H2C C2C 1_555 1_555
H2A C2A 1_555 1_555
H2B C2B 1_555 1_555
C3C C2C 1_555 1_555
C3A C2A 1_555 1_555
C3B C2B 1_555 1_555
C4C C1C 1_555 1_555
C4A C1A 1_555 1_555
C4B C1B 1_555 1_555
C5C C4C 1_555 1_555
C5A C4A 1_555 1_555
C5B C4B 1_555 1_555
H3C C5C 1_555 1_555
H3A C5A 1_555 1_555
H3B C5B 1_555 1_555
C6C C3C 1_555 1_555
C6A C3A 1_555 1_555
C6B C3B 1_555 1_555
H4C C6C 1_555 1_555
H4A C6A 1_555 1_555
H4B C6B 1_555 1_555
C7C O2C 1_555 1_555
C7A O2A 1_555 1_555
C7B O2B 1_555 1_555
C8C C9 1_555 1_555
C8A H5A 1_555 1_555
C8B H5B 1_555 1_555
H5C C8C 1_555 1_555
C9A C9 1_555 1_555
C10C C11 1_555 1_555
C10A C3A 1_555 1_555
C10B C3B 1_555 1_555
C11A C10A 1_555 1_555
H6A C11A 1_555 1_555
H7A N1 1_555 1_555
C13A N1 1_555 1_555
H12A C13A 1_555 1_555
C4 C7 1_555 1_555
C5 C6 1_555 1_555
C8 C10 1_555 1_555
C3C C10C 1_555 1_555
C4C C7C 1_555 1_555
C4A C7A 1_555 1_555
C4B C7B 1_555 1_555
C5C C6C 1_555 1_555
C5A C6A 1_555 1_555
C5B C6B 1_555 1_555
C8C C10C 1_555 1_555
C8A C9A 1_555 1_555
C8A C10A 1_555 1_555
C8B C9A 1_555 1_555
C8B C10B 1_555 1_555
C10B C11A 1_555 1_555

#END
