
#######################################################################
#
#                 Cambridge Crystallographic Data Centre
#                                CCDC 
#
#######################################################################
#
# If this CIF has been generated from an entry in the Cambridge 
# Structural Database, then it will include bibliographic, chemical, 
# crystal, experimental, refinement or atomic coordinate data resulting 
# from the CCDC's data processing and validation procedures.
#
#######################################################################

data_NEDWIE
_symmetry_cell_setting           triclinic
_symmetry_space_group_name_H-M   'P -1'
_symmetry_Int_Tables_number      2
_space_group_name_Hall           '-P 1'
loop_
_symmetry_equiv_pos_site_id
_symmetry_equiv_pos_as_xyz
1 x,y,z
2 -x,-y,-z
_cell_length_a                   16.6187(7)
_cell_length_b                   15.6802(6)
_cell_length_c                   16.8631(7)
_cell_angle_alpha                109.215(2)
_cell_angle_beta                 98.782(2)
_cell_angle_gamma                114.858(2)
_cell_volume                     3541.18
loop_
_atom_site_label
_atom_site_type_symbol
_atom_site_fract_x
_atom_site_fract_y
_atom_site_fract_z
Ni1 Ni 0.74939(5) 0.66744(6) 0.59364(5)
Mn1 Mn 0.5000 0.5000 0.5000
O1 O 0.5549(2) 0.6271(3) 1.4646(2)
C1 C 0.6287(4) 0.6890(4) 1.4611(3)
Ni2 Ni 0.0000 0.5000 0.5000
O2 O 0.7097(2) 0.7118(3) 1.5008(2)
C2 C 0.6187(4) 0.7414(5) 1.4026(3)
O3 O 0.5958(3) 0.8808(3) 1.2374(2)
C3 C 0.6964(4) 0.8136(5) 1.3952(4)
H1 H 0.7577 0.8322 1.4281
O4 O 0.5391(2) 1.0607(3) 1.2453(2)
C4 C 0.6862(4) 0.8583(5) 1.3414(4)
H2 H 0.7407 0.9104 1.3388
O5 O 0.7678(2) 1.5512(3) 1.4958(2)
C5 C 0.5978(4) 0.8296(4) 1.2898(4)
O6 O 0.6365(2) 1.5054(3) 1.5253(2)
C6 C 0.5222(4) 0.7604(5) 1.2973(4)
H3 H 0.4612 0.7420 1.2638
O7 O 0.5842(3) 0.9255(3) 1.0074(2)
C7 C 0.5308(4) 0.7153(5) 1.3525(4)
H4 H 0.4759 0.6654 1.3564
O8 O 0.7004(3) 0.7355(3) 0.6825(2)
C8 C 0.5058(4) 0.8553(4) 1.1839(3)
H5 H 0.4716 0.8760 1.2225
H6 H 0.4670 0.7792 1.1450
O9 O 0.5505(2) 0.6069(3) 0.6387(2)
C9 C 0.5250(4) 0.9154(4) 1.1279(3)
O10 O 0.8839(3) 0.7983(4) 0.6341(3)
C10 C 0.5871(4) 1.0336(4) 1.1874(3)
H7 H 0.6498 1.0505 1.2224
H8 H 0.5959 1.0725 1.1506
O11 O 0.8055(4) 0.6291(5) 0.6896(3)
C11 C 0.5810(4) 1.1640(4) 1.3029(3)
O12 O 0.3764(3) 0.7823(3) 1.0125(2)
C12 C 0.6620(4) 1.2407(4) 1.3059(3)
H9 H 0.6947 1.2238 1.2674
O13 O 0.0528(3) 0.6985(4) 0.6933(3)
C13 C 0.6974(3) 1.3455(4) 1.3662(3)
H10 H 0.7541 1.3993 1.3684
O14 O 0.0745(2) 0.5614(3) 0.6335(2)
C14 C 0.6500(3) 1.3706(4) 1.4224(3)
O15 O 0.1153(3) 0.6088(4) 0.4829(3)
C15 C 0.5652(4) 1.2904(5) 1.4172(3)
H11 H 0.5318 1.3068 1.4551
O16 O 0.0487(2) 0.3969(3) 0.4764(2)
C16 C 0.5304(4) 1.1888(4) 1.3576(4)
H12 H 0.4721 1.1351 1.3532
C17 C 0.6873(4) 1.4803(5) 1.4836(3)
C18 C 0.5769(4) 0.8784(5) 1.0681(3)
H13 H 0.6405 0.9001 1.1053
H14 H 0.5412 0.8012 1.0345
C19 C 0.5939(5) 0.8693(5) 0.9323(4)
C20 C 0.6800(5) 0.9021(5) 0.9201(4)
H15 H 0.7343 0.9643 0.9649
C21 C 0.6870(5) 0.8444(6) 0.8423(4)
H16 H 0.7468 0.8681 0.8347
C22 C 0.6125(4) 0.7559(4) 0.7771(3)
C23 C 0.5266(4) 0.7244(5) 0.7876(3)
H17 H 0.4728 0.6635 0.7410
C24 C 0.5159(4) 0.7789(5) 0.8642(4)
H18 H 0.4555 0.7548 0.8705
C25 C 0.6216(5) 0.6939(5) 0.6926(4)
C26 C 0.4317(4) 0.8921(4) 1.0712(3)
H19 H 0.3975 0.9125 1.1101
H20 H 0.4427 0.9328 1.0359
C27 C 0.3031(4) 0.7506(4) 0.9401(4)
C28 C 0.2639(4) 0.6509(5) 0.8744(3)
H21 H 0.2864 0.6066 0.8822
C29 C 0.1931(4) 0.6145(5) 0.7980(4)
H22 H 0.1661 0.5447 0.7539
C30 C 0.1597(4) 0.6780(5) 0.7835(4)
C31 C 0.1965(4) 0.7758(5) 0.8522(3)
H23 H 0.1714 0.8187 0.8462
C32 C 0.2668(4) 0.8128(5) 0.9276(4)
H24 H 0.2919 0.8817 0.9727
C33 C 0.0901(4) 0.6425(5) 0.6956(4)
Ni1A Ni -0.74939(5) 0.33256(6) 0.40636(5)
Ni1_2 Ni 0.74939(5) 0.66744(6) 1.59364(5)
Ni1_3 Ni 0.74939(5) 1.66744(6) 1.59364(5)
Ni1A_2 Ni -0.74939(5) -0.66744(6) -0.59364(5)
Ni1A_3 Ni -0.74939(5) 0.33256(6) -0.59364(5)
Mn1_2 Mn -0.5000 -0.5000 -0.5000
Mn1_3 Mn -0.5000 0.5000 -0.5000
Mn1_4 Mn -0.5000 0.5000 0.5000
Mn1_5 Mn 0.5000 0.5000 1.5000
Mn1_6 Mn 0.5000 1.5000 1.5000
O1A O -0.5549(2) 0.3729(3) -0.4646(2)
O1_2 O 0.5549(2) 0.6271(3) 0.4646(2)
O1A_2 O 0.4451(2) 0.3729(3) 0.5354(2)
C1A C -0.6287(4) 0.3110(4) -0.4611(3)
O2A O -0.7097(2) 0.2882(3) -0.5008(2)
O2_2 O 0.7097(2) 0.7118(3) 0.5008(2)
O2A_2 O -0.7097(2) 0.2882(3) 0.4992(2)
C2A C -0.6187(4) 0.2586(5) -0.4026(3)
O3A O -0.5958(3) 0.1192(3) -0.2374(2)
C3A C -0.6964(4) 0.1864(5) -0.3952(4)
H1A H -0.7577 0.1678 -0.4281
O4A O -0.5391(2) -0.0607(3) -0.2453(2)
C4A C -0.6862(4) 0.1417(5) -0.3414(4)
H2A H -0.7407 0.0896 -0.3388
O5A O -0.7678(2) -0.5512(3) -0.4958(2)
O5_2 O 0.7678(2) 0.5512(3) 0.4958(2)
O5A_2 O -0.7678(2) 0.4488(3) 0.5042(2)
C5A C -0.5978(4) 0.1704(4) -0.2898(4)
O6A O -0.6365(2) -0.5054(3) -0.5253(2)
O6_2 O 0.6365(2) 0.5054(3) 0.5253(2)
O6A_2 O -0.6365(2) 0.4946(3) 0.4747(2)
O6A_3 O 0.3635(2) 0.4946(3) 0.4747(2)
C6A C -0.5222(4) 0.2396(5) -0.2973(4)
H3A H -0.4612 0.2580 -0.2638
O7A O -0.5842(3) 0.0745(3) -0.0074(2)
C7A C -0.5308(4) 0.2847(5) -0.3525(4)
H4A H -0.4759 0.3346 -0.3564
O8A O -0.7004(3) 0.2645(3) 0.3175(2)
C8A C -0.5058(4) 0.1447(4) -0.1839(3)
H5A H -0.4716 0.1240 -0.2225
H6A H -0.4670 0.2208 -0.1450
O9A O -0.5505(2) 0.3931(3) 0.3613(2)
O9A_2 O 0.4495(2) 0.3931(3) 0.3613(2)
C9A C -0.5250(4) 0.0846(4) -0.1279(3)
O10A O -0.8839(3) 0.2017(4) 0.3659(3)
C10A C -0.5871(4) -0.0336(4) -0.1874(3)
H7A H -0.6498 -0.0505 -0.2224
H8A H -0.5959 -0.0725 -0.1506
O11A O -0.8055(4) 0.3709(5) 0.3104(3)
C11A C -0.5810(4) -0.1640(4) -0.3029(3)
O12A O -0.3764(3) 0.2177(3) -0.0125(2)
C12A C -0.6620(4) -0.2407(4) -0.3059(3)
H9A H -0.6947 -0.2238 -0.2674
O13A O -0.0528(3) 0.3015(4) 0.3067(3)
C13A C -0.6974(3) -0.3455(4) -0.3662(3)
H10A H -0.7541 -0.3993 -0.3684
O14A O -0.0745(2) 0.4386(3) 0.3665(2)
C14A C -0.6500(3) -0.3706(4) -0.4224(3)
O15A O -0.1153(3) 0.3912(4) 0.5171(3)
C15A C -0.5652(4) -0.2904(5) -0.4172(3)
H11A H -0.5318 -0.3068 -0.4551
O16A O -0.0487(2) 0.6031(3) 0.5236(2)
C16A C -0.5304(4) -0.1888(4) -0.3576(4)
H12A H -0.4721 -0.1351 -0.3532
C17A C -0.6873(4) -0.4803(5) -0.4836(3)
C18A C -0.5769(4) 0.1216(5) -0.0681(3)
H13A H -0.6405 0.0999 -0.1053
H14A H -0.5412 0.1988 -0.0345
C19A C -0.5939(5) 0.1307(5) 0.0677(4)
C20A C -0.6800(5) 0.0979(5) 0.0799(4)
H15A H -0.7343 0.0357 0.0351
C21A C -0.6870(5) 0.1556(6) 0.1577(4)
H16A H -0.7468 0.1319 0.1653
C22A C -0.6125(4) 0.2441(4) 0.2229(3)
C23A C -0.5266(4) 0.2756(5) 0.2124(3)
H17A H -0.4728 0.3365 0.2590
C24A C -0.5159(4) 0.2211(5) 0.1358(4)
H18A H -0.4555 0.2452 0.1295
C25A C -0.6216(5) 0.3061(5) 0.3074(4)
C26A C -0.4317(4) 0.1079(4) -0.0712(3)
H19A H -0.3975 0.0875 -0.1101
H20A H -0.4427 0.0672 -0.0359
C27A C -0.3031(4) 0.2494(4) 0.0599(4)
C28A C -0.2639(4) 0.3491(5) 0.1256(3)
H21A H -0.2864 0.3934 0.1178
C29A C -0.1931(4) 0.3855(5) 0.2020(4)
H22A H -0.1661 0.4553 0.2461
C30A C -0.1597(4) 0.3220(5) 0.2165(4)
C31A C -0.1965(4) 0.2242(5) 0.1478(3)
H23A H -0.1714 0.1813 0.1538
C32A C -0.2668(4) 0.1872(5) 0.0724(4)
H24A H -0.2919 0.1183 0.0273
C33A C -0.0901(4) 0.3575(5) 0.3044(4)
loop_
_geom_bond_atom_site_label_1
_geom_bond_atom_site_label_2
_geom_bond_site_symmetry_1
_geom_bond_site_symmetry_2
Ni1 O8 1_555 1_555
Mn1 O9 1_555 1_555
O1 C1 1_555 1_555
C1 O2 1_555 1_555
Ni2 O14 1_555 1_555
O2 Ni1_2 1_555 1_555
C2 C1 1_555 1_555
O3 C5 1_555 1_555
C3 C2 1_555 1_555
H1 C3 1_555 1_555
O4 C10 1_555 1_555
C4 C3 1_555 1_555
H2 C4 1_555 1_555
O5 C17 1_555 1_555
C5 C4 1_555 1_555
O6 C17 1_555 1_555
C6 C5 1_555 1_555
H3 C6 1_555 1_555
O7 C18 1_555 1_555
C7 C2 1_555 1_555
H4 C7 1_555 1_555
O8 C25 1_555 1_555
C8 O3 1_555 1_555
H5 C8 1_555 1_555
H6 C8 1_555 1_555
O9 C25 1_555 1_555
C9 C8 1_555 1_555
O10 Ni1 1_555 1_555
C10 C9 1_555 1_555
H7 C10 1_555 1_555
H8 C10 1_555 1_555
O11 Ni1 1_555 1_555
C11 O4 1_555 1_555
O12 C26 1_555 1_555
C12 C11 1_555 1_555
H9 C12 1_555 1_555
O13 C33 1_555 1_555
C13 C12 1_555 1_555
H10 C13 1_555 1_555
O14 C33 1_555 1_555
C14 C13 1_555 1_555
O15 Ni2 1_555 1_555
C15 C14 1_555 1_555
H11 C15 1_555 1_555
O16 Ni2 1_555 1_555
C16 C11 1_555 1_555
H12 C16 1_555 1_555
C17 C14 1_555 1_555
C18 C9 1_555 1_555
H13 C18 1_555 1_555
H14 C18 1_555 1_555
C19 O7 1_555 1_555
C20 C19 1_555 1_555
H15 C20 1_555 1_555
C21 C20 1_555 1_555
H16 C21 1_555 1_555
C22 C21 1_555 1_555
C23 C22 1_555 1_555
H17 C23 1_555 1_555
C24 C19 1_555 1_555
H18 C24 1_555 1_555
C25 C22 1_555 1_555
C26 C9 1_555 1_555
H19 C26 1_555 1_555
H20 C26 1_555 1_555
C27 O12 1_555 1_555
C28 C27 1_555 1_555
H21 C28 1_555 1_555
C29 C28 1_555 1_555
H22 C29 1_555 1_555
C30 C29 1_555 1_555
C31 C30 1_555 1_555
H23 C31 1_555 1_555
C32 C27 1_555 1_555
H24 C32 1_555 1_555
C33 C30 1_555 1_555
Ni1A O2A_2 1_555 1_555
Ni1_3 O5 1_555 1_555
Ni1A_2 O5A 1_555 1_555
Ni1A_3 O2A 1_555 1_555
Mn1_2 O6A 1_555 1_555
Mn1_3 O1A 1_555 1_555
Mn1_4 O6A_2 1_555 1_555
Mn1_5 O1 1_555 1_555
Mn1_6 O6 1_555 1_555
O1A C1A 1_555 1_555
O1_2 Mn1 1_555 1_555
O1A_2 Mn1 1_555 1_555
C1A O2A 1_555 1_555
O2_2 Ni1 1_555 1_555
C2A C1A 1_555 1_555
O3A C5A 1_555 1_555
C3A C2A 1_555 1_555
H1A C3A 1_555 1_555
O4A C10A 1_555 1_555
C4A C3A 1_555 1_555
H2A C4A 1_555 1_555
O5A C17A 1_555 1_555
O5_2 Ni1 1_555 1_555
O5A_2 Ni1A 1_555 1_555
C5A C4A 1_555 1_555
O6A Ni1A_2 1_555 1_555
O6_2 Ni1 1_555 1_555
O6A_2 Ni1A 1_555 1_555
O6A_3 Mn1 1_555 1_555
C6A C5A 1_555 1_555
H3A C6A 1_555 1_555
O7A C18A 1_555 1_555
C7A C2A 1_555 1_555
H4A C7A 1_555 1_555
O8A Ni1A 1_555 1_555
C8A O3A 1_555 1_555
H5A C8A 1_555 1_555
H6A C8A 1_555 1_555
O9A Mn1_4 1_555 1_555
O9A_2 Mn1 1_555 1_555
C9A C8A 1_555 1_555
O10A Ni1A 1_555 1_555
C10A C9A 1_555 1_555
H7A C10A 1_555 1_555
H8A C10A 1_555 1_555
O11A Ni1A 1_555 1_555
C11A O4A 1_555 1_555
O12A C26A 1_555 1_555
C12A C11A 1_555 1_555
H9A C12A 1_555 1_555
O13A C33A 1_555 1_555
C13A C12A 1_555 1_555
H10A C13A 1_555 1_555
O14A Ni2 1_555 1_555
C14A C13A 1_555 1_555
O15A Ni2 1_555 1_555
C15A C14A 1_555 1_555
H11A C15A 1_555 1_555
O16A Ni2 1_555 1_555
C16A C11A 1_555 1_555
H12A C16A 1_555 1_555
C17A O6A 1_555 1_555
C18A C9A 1_555 1_555
H13A C18A 1_555 1_555
H14A C18A 1_555 1_555
C19A O7A 1_555 1_555
C20A C19A 1_555 1_555
H15A C20A 1_555 1_555
C21A C20A 1_555 1_555
H16A C21A 1_555 1_555
C22A C21A 1_555 1_555
C23A C22A 1_555 1_555
H17A C23A 1_555 1_555
C24A C19A 1_555 1_555
H18A C24A 1_555 1_555
C25A O8A 1_555 1_555
C26A C9A 1_555 1_555
H19A C26A 1_555 1_555
H20A C26A 1_555 1_555
C27A O12A 1_555 1_555
C28A C27A 1_555 1_555
H21A C28A 1_555 1_555
C29A C28A 1_555 1_555
H22A C29A 1_555 1_555
C30A C29A 1_555 1_555
C31A C30A 1_555 1_555
H23A C31A 1_555 1_555
C32A C27A 1_555 1_555
H24A C32A 1_555 1_555
C33A O14A 1_555 1_555
Mn1 O6_2 1_555 1_555
O6 Ni1_3 1_555 1_555
C6 C7 1_555 1_555
C15 C16 1_555 1_555
C23 C24 1_555 1_555
C31 C32 1_555 1_555
C6A C7A 1_555 1_555
O9A C25A 1_555 1_555
C14A C17A 1_555 1_555
C15A C16A 1_555 1_555
C22A C25A 1_555 1_555
C23A C24A 1_555 1_555
C30A C33A 1_555 1_555
C31A C32A 1_555 1_555

#END
