
#######################################################################
#
#                 Cambridge Crystallographic Data Centre
#                                CCDC 
#
#######################################################################
#
# If this CIF has been generated from an entry in the Cambridge 
# Structural Database, then it will include bibliographic, chemical, 
# crystal, experimental, refinement or atomic coordinate data resulting 
# from the CCDC's data processing and validation procedures.
#
#######################################################################

data_NEHNEV
_symmetry_cell_setting           triclinic
_symmetry_space_group_name_H-M   'P -1'
_symmetry_Int_Tables_number      2
_space_group_name_Hall           '-P 1'
loop_
_symmetry_equiv_pos_site_id
_symmetry_equiv_pos_as_xyz
1 x,y,z
2 -x,-y,-z
_cell_length_a                   10.6549(12)
_cell_length_b                   14.5638(16)
_cell_length_c                   16.0435(17)
_cell_angle_alpha                99.783(2)
_cell_angle_beta                 102.396(2)
_cell_angle_gamma                101.834(2)
_cell_volume                     2319.48
loop_
_atom_site_label
_atom_site_type_symbol
_atom_site_fract_x
_atom_site_fract_y
_atom_site_fract_z
Zn1 Zn 0.0000 -0.5000 -0.5000
Zn2 Zn -0.22430(8) -0.37510(5) -1.47519(5)
O1 O -0.2614(6) -0.4591(4) -1.3985(4)
O2 O -0.3624(6) -0.4716(5) -0.5989(4)
O3 O -0.1508(5) -0.4429(3) -0.5737(3)
O4 O -0.9190(5) -1.3655(3) -1.4189(3)
O5 O -0.1160(5) -0.5444(4) -1.4187(4)
O6 O -0.3181(7) -0.7059(5) -0.9557(4)
O7 O -0.4074(6) -0.7517(5) -1.1713(4)
O8 O -0.5314(6) -0.9905(4) -1.1714(4)
O9 O -1.0631(5) -1.2746(4) -1.4163(4)
N1 N -0.3552(6) -0.2938(4) -1.4724(4)
N2 N -0.4592(7) -0.1815(5) -1.4823(5)
C1 C -0.2065(7) -0.5259(5) -1.3874(5)
C2 C -0.2555(7) -0.5874(5) -1.3280(5)
C3 C -0.1822(8) -0.6422(6) -1.2893(6)
H1 H -0.0990 -0.6419 -1.2988
C4 C -0.3775(8) -0.5889(6) -1.3126(5)
H2 H -0.4278 -0.5503 -1.3370
C5 C -0.2612(9) -0.4801(7) -0.6252(5)
C6 C -0.2780(8) -0.5357(5) -0.7132(5)
C7 C -0.1683(8) -0.5444(6) -0.7437(5)
H3 H -0.0838 -0.5124 -0.7088
C8 C -0.1835(9) -0.6009(6) -0.8266(5)
H4 H -0.1100 -0.6059 -0.8478
C9 C -0.3121(10) -0.6500(6) -0.8770(5)
C10 C -0.4249(10) -0.6386(7) -0.8492(6)
H5 H -0.5098 -0.6663 -0.8854
C11 C -0.4052(9) -0.5840(7) -0.7651(5)
H6 H -0.4783 -0.5797 -0.7431
C12 C -0.4477(12) -0.0506(7) -1.5563(7)
H7 H -0.4105 -0.0842 -1.5950
C13 C -0.5289(13) -0.0384(8) -1.4329(8)
H8 H -0.5479 -0.0636 -1.3862
C14 C -0.4788(10) -0.0865(6) -1.4912(6)
C15 C -0.5436(10) -0.2553(7) -1.4667(6)
H9 H -0.6288 -0.2572 -1.4605
C16 C -0.3463(9) -0.2094(6) -1.4844(6)
H10 H -0.2713 -0.1712 -1.4935
C17 C -0.4803(9) -0.3248(6) -1.4619(6)
H11 H -0.5154 -0.3851 -1.4529
C18 C -0.4262(8) -0.6462(7) -1.2618(6)
H12 H -0.5111 -0.6492 -1.2546
C19 C -0.6389(8) -1.0579(5) -1.2236(5)
C20 C -0.7598(10) -1.0448(6) -1.2532(7)
H13 H -0.7765 -0.9855 -1.2348
C21 C -0.6173(9) -1.1491(6) -1.2477(6)
H14 H -0.5350 -1.1602 -1.2254
C22 C -0.9474(7) -1.2902(5) -1.3950(4)
C23 C -0.8386(7) -1.2088(5) -1.3354(5)
C24 C -0.8594(9) -1.1175(6) -1.3102(6)
H15 H -0.9415 -1.1061 -1.3322
C25 C -0.7169(8) -1.2222(5) -1.3042(5)
H16 H -0.7006 -1.2819 -1.3214
C26 C -0.5486(9) -0.9100(6) -1.1237(5)
H17 H -0.6055 -0.9274 -1.0862
H18 H -0.5906 -0.8744 -1.1625
C27 C -0.4136(9) -0.8478(6) -1.0683(5)
C28 C -0.3356(9) -0.8067(6) -1.1264(5)
H19 H -0.2496 -0.7667 -1.0917
H20 H -0.3217 -0.8581 -1.1677
C29 C -0.3520(8) -0.6981(6) -1.2223(5)
C30 C -0.2290(9) -0.6975(6) -1.2366(6)
H21 H -0.1780 -0.7347 -1.2105
C31 C -0.4447(10) -0.7683(7) -1.0040(5)
H22 H -0.4991 -0.7332 -1.0358
H23 H -0.4912 -0.7962 -0.9649
C32 C -0.3304(12) -0.9059(7) -1.0145(7)
H24 H -0.3325 -0.9653 -1.0521
H25 H -0.3677 -0.9194 -0.9671
H26 H -0.2402 -0.8684 -0.9913
Zn1_2 Zn -1.0000 -1.5000 -1.5000
Zn1_3 Zn 0.0000 -0.5000 -1.5000
Zn1_4 Zn 1.0000 0.5000 0.5000
Zn1_5 Zn 0.0000 -0.5000 0.5000
Zn2A Zn 0.22430(8) -0.62490(5) 0.47519(5)
Zn2_2 Zn -0.22430(8) -0.37510(5) -0.47519(5)
Zn2_3 Zn -1.22430(8) -1.37510(5) -1.47519(5)
Zn2A_2 Zn -0.77570(8) 0.37510(5) -1.52481(5)
Zn2A_3 Zn 0.22430(8) -0.62490(5) -0.52481(5)
Zn2A_4 Zn 1.22430(8) 0.37510(5) 0.47519(5)
O1A O 0.2614(6) -0.5409(4) 0.3985(4)
O2A O 0.3624(6) -0.5284(5) -0.4011(4)
O2_2 O -0.3624(6) -0.4716(5) -1.5989(4)
O2A_2 O 0.3624(6) -0.5284(5) 0.5989(4)
O3A O 0.1508(5) -0.5571(3) -0.4263(3)
O3_2 O -0.1508(5) -0.4429(3) -1.5737(3)
O3A_2 O 0.1508(5) -0.5571(3) 0.5737(3)
O4A O 0.9190(5) 0.3655(3) 0.4189(3)
O4_2 O 0.0810(5) -0.3655(3) -0.4189(3)
O4A_2 O -0.0810(5) -0.6345(3) -0.5811(3)
O5A O 0.1160(5) -0.4556(4) 0.4187(4)
O5_2 O -0.1160(5) -0.5444(4) -0.4187(4)
O5A_2 O 0.1160(5) -0.4556(4) -0.5813(4)
O6A O 0.3181(7) -0.2941(5) -0.0443(4)
O7A O 0.4074(6) -0.2483(5) 0.1713(4)
O8A O 0.5314(6) -0.0095(4) 0.1714(4)
O9A O 1.0631(5) 0.2746(4) 0.4163(4)
O9_2 O -0.0631(5) -0.2746(4) -1.4163(4)
O9A_2 O 0.0631(5) -0.7254(4) 0.4163(4)
N1A N -0.6448(6) 0.2938(4) -1.5276(4)
N1A_2 N 0.3552(6) -0.7062(4) 0.4724(4)
N2A N -0.5408(7) 0.1815(5) -1.5177(5)
C1A C 0.2065(7) -0.4741(5) 0.3874(5)
C2A C 0.2555(7) -0.4126(5) 0.3280(5)
C3A C 0.1822(8) -0.3578(6) 0.2893(6)
H1A H 0.0990 -0.3581 0.2988
C4A C 0.3775(8) -0.4111(6) 0.3126(5)
H2A H 0.4278 -0.4497 0.3370
C5A C 0.2612(9) -0.5199(7) -0.3748(5)
C6A C 0.2780(8) -0.4643(5) -0.2868(5)
C7A C 0.1683(8) -0.4556(6) -0.2563(5)
H3A H 0.0838 -0.4876 -0.2912
C8A C 0.1835(9) -0.3991(6) -0.1734(5)
H4A H 0.1100 -0.3941 -0.1522
C9A C 0.3121(10) -0.3500(6) -0.1230(5)
C10A C 0.4249(10) -0.3614(7) -0.1508(6)
H5A H 0.5098 -0.3337 -0.1146
C11A C 0.4052(9) -0.4160(7) -0.2349(5)
H6A H 0.4783 -0.4203 -0.2569
C12A C -0.5523(12) 0.0506(7) -1.4437(7)
H7A H -0.5895 0.0842 -1.4050
C13A C -0.4711(13) 0.0384(8) -1.5671(8)
H8A H -0.4521 0.0636 -1.6138
C14A C -0.5212(10) 0.0865(6) -1.5088(6)
C15A C -0.4564(10) 0.2553(7) -1.5333(6)
H9A H -0.3712 0.2572 -1.5395
C16A C -0.6537(9) 0.2094(6) -1.5156(6)
H10A H -0.7287 0.1712 -1.5065
C17A C -0.5197(9) 0.3248(6) -1.5381(6)
H11A H -0.4846 0.3851 -1.5471
C18A C 0.4262(8) -0.3538(7) 0.2618(6)
H12A H 0.5111 -0.3508 0.2546
C19A C 0.6389(8) 0.0579(5) 0.2236(5)
C20A C 0.7598(10) 0.0448(6) 0.2532(7)
H13A H 0.7765 -0.0145 0.2348
C21A C 0.6173(9) 0.1491(6) 0.2477(6)
H14A H 0.5350 0.1602 0.2254
C22A C 0.9474(7) 0.2902(5) 0.3950(4)
C23A C 0.8386(7) 0.2088(5) 0.3354(5)
C24A C 0.8594(9) 0.1175(6) 0.3102(6)
H15A H 0.9415 0.1061 0.3322
C25A C 0.7169(8) 0.2222(5) 0.3042(5)
H16A H 0.7006 0.2819 0.3214
C26A C 0.5486(9) -0.0900(6) 0.1237(5)
H17A H 0.6055 -0.0726 0.0862
H18A H 0.5906 -0.1256 0.1625
C27A C 0.4136(9) -0.1522(6) 0.0683(5)
C28A C 0.3356(9) -0.1933(6) 0.1264(5)
H19A H 0.2496 -0.2333 0.0917
H20A H 0.3217 -0.1419 0.1677
C29A C 0.3520(8) -0.3019(6) 0.2223(5)
C30A C 0.2290(9) -0.3025(6) 0.2366(6)
H21A H 0.1780 -0.2653 0.2105
C31A C 0.4447(10) -0.2317(7) 0.0040(5)
H22A H 0.4991 -0.2668 0.0358
H23A H 0.4912 -0.2038 -0.0351
C32A C 0.3304(12) -0.0941(7) 0.0145(7)
H24A H 0.3325 -0.0347 0.0521
H25A H 0.3677 -0.0806 -0.0329
H26A H 0.2402 -0.1316 -0.0087
loop_
_geom_bond_atom_site_label_1
_geom_bond_atom_site_label_2
_geom_bond_site_symmetry_1
_geom_bond_site_symmetry_2
Zn1 O3 1_555 1_555
Zn2 O1 1_555 1_555
O1 C1 1_555 1_555
O2 C5 1_555 1_555
O3 C5 1_555 1_555
O4 C22 1_555 1_555
O5 C1 1_555 1_555
O6 C9 1_555 1_555
O7 C28 1_555 1_555
O8 C19 1_555 1_555
O9 C22 1_555 1_555
N1 Zn2 1_555 1_555
N2 C14 1_555 1_555
C1 C2 1_555 1_555
C2 C3 1_555 1_555
C3 H1 1_555 1_555
C4 C2 1_555 1_555
H2 C4 1_555 1_555
C5 C6 1_555 1_555
C6 C7 1_555 1_555
C7 H3 1_555 1_555
C8 C7 1_555 1_555
H4 C8 1_555 1_555
C9 C8 1_555 1_555
C10 C9 1_555 1_555
H5 C10 1_555 1_555
C11 C6 1_555 1_555
H6 C11 1_555 1_555
C12 H7 1_555 1_555
C13 H8 1_555 1_555
C14 C12 1_555 1_555
C15 N2 1_555 1_555
H9 C15 1_555 1_555
C16 N1 1_555 1_555
H10 C16 1_555 1_555
C17 N1 1_555 1_555
H11 C17 1_555 1_555
C18 C4 1_555 1_555
H12 C18 1_555 1_555
C19 C20 1_555 1_555
C20 H13 1_555 1_555
C21 C19 1_555 1_555
H14 C21 1_555 1_555
C22 C23 1_555 1_555
C23 C24 1_555 1_555
C24 C20 1_555 1_555
H15 C24 1_555 1_555
C25 C21 1_555 1_555
H16 C25 1_555 1_555
C26 O8 1_555 1_555
H17 C26 1_555 1_555
H18 C26 1_555 1_555
C27 C26 1_555 1_555
C28 C27 1_555 1_555
H19 C28 1_555 1_555
H20 C28 1_555 1_555
C29 O7 1_555 1_555
C30 C3 1_555 1_555
H21 C30 1_555 1_555
C31 O6 1_555 1_555
H22 C31 1_555 1_555
H23 C31 1_555 1_555
C32 C27 1_555 1_555
H24 C32 1_555 1_555
H25 C32 1_555 1_555
H26 C32 1_555 1_555
Zn1_2 O4 1_555 1_555
Zn1_3 O5 1_555 1_555
Zn1_4 O4A 1_555 1_555
Zn1_5 O3A_2 1_555 1_555
Zn2A O1A 1_555 1_555
Zn2_2 O2 1_555 1_555
Zn2_3 O9 1_555 1_555
Zn2A_2 N1A 1_555 1_555
Zn2A_3 O2A 1_555 1_555
Zn2A_4 O9A 1_555 1_555
O1A C1A 1_555 1_555
O2A C5A 1_555 1_555
O2_2 Zn2 1_555 1_555
O2A_2 Zn2A 1_555 1_555
O3A Zn1 1_555 1_555
O3_2 Zn2 1_555 1_555
O3A_2 Zn2A 1_555 1_555
O4A C22A 1_555 1_555
O4_2 Zn1 1_555 1_555
O4A_2 Zn1 1_555 1_555
O5A Zn1_5 1_555 1_555
O5_2 Zn1 1_555 1_555
O5A_2 Zn1 1_555 1_555
O6A C9A 1_555 1_555
O7A C28A 1_555 1_555
O8A C19A 1_555 1_555
O9A C22A 1_555 1_555
O9_2 Zn2 1_555 1_555
O9A_2 Zn2A 1_555 1_555
N1A C16A 1_555 1_555
N1A_2 Zn2A 1_555 1_555
N2A C14A 1_555 1_555
C1A O5A 1_555 1_555
C2A C1A 1_555 1_555
C3A C2A 1_555 1_555
H1A C3A 1_555 1_555
C4A C2A 1_555 1_555
H2A C4A 1_555 1_555
C5A O3A 1_555 1_555
C6A C5A 1_555 1_555
C7A C6A 1_555 1_555
H3A C7A 1_555 1_555
C8A C7A 1_555 1_555
H4A C8A 1_555 1_555
C9A C8A 1_555 1_555
C10A C9A 1_555 1_555
H5A C10A 1_555 1_555
C11A C6A 1_555 1_555
H6A C11A 1_555 1_555
C12A C13 1_555 1_555
H7A C12A 1_555 1_555
C13A C12 1_555 1_555
H8A C13A 1_555 1_555
C14A C12A 1_555 1_555
C15A N2A 1_555 1_555
H9A C15A 1_555 1_555
C16A N2A 1_555 1_555
H10A C16A 1_555 1_555
C17A N1A 1_555 1_555
H11A C17A 1_555 1_555
C18A C4A 1_555 1_555
H12A C18A 1_555 1_555
C19A C20A 1_555 1_555
C20A H13A 1_555 1_555
C21A C19A 1_555 1_555
H14A C21A 1_555 1_555
C22A C23A 1_555 1_555
C23A C24A 1_555 1_555
C24A C20A 1_555 1_555
H15A C24A 1_555 1_555
C25A C21A 1_555 1_555
H16A C25A 1_555 1_555
C26A O8A 1_555 1_555
H17A C26A 1_555 1_555
H18A C26A 1_555 1_555
C27A C26A 1_555 1_555
C28A C27A 1_555 1_555
H19A C28A 1_555 1_555
H20A C28A 1_555 1_555
C29A O7A 1_555 1_555
C30A C3A 1_555 1_555
H21A C30A 1_555 1_555
C31A O6A 1_555 1_555
H22A C31A 1_555 1_555
H23A C31A 1_555 1_555
C32A C27A 1_555 1_555
H24A C32A 1_555 1_555
H25A C32A 1_555 1_555
H26A C32A 1_555 1_555
O3 Zn2_2 1_555 1_555
N2 C16 1_555 1_555
C10 C11 1_555 1_555
C13 C14 1_555 1_555
C15 C17 1_555 1_555
C18 C29 1_555 1_555
C23 C25 1_555 1_555
C27 C31 1_555 1_555
C29 C30 1_555 1_555
Zn1_3 O3_2 1_555 1_555
Zn2A_3 O3A 1_555 1_555
C10A C11A 1_555 1_555
C13A C14A 1_555 1_555
C15A C17A 1_555 1_555
C18A C29A 1_555 1_555
C23A C25A 1_555 1_555
C27A C31A 1_555 1_555
C29A C30A 1_555 1_555

#END
