
#######################################################################
#
#                 Cambridge Crystallographic Data Centre
#                                CCDC 
#
#######################################################################
#
# If this CIF has been generated from an entry in the Cambridge 
# Structural Database, then it will include bibliographic, chemical, 
# crystal, experimental, refinement or atomic coordinate data resulting 
# from the CCDC's data processing and validation procedures.
#
#######################################################################

data_NELTUU
_symmetry_cell_setting           monoclinic
_symmetry_space_group_name_H-M   'P 21/c'
_symmetry_Int_Tables_number      14
_space_group_name_Hall           '-P 2ybc'
loop_
_symmetry_equiv_pos_site_id
_symmetry_equiv_pos_as_xyz
1 x,y,z
2 -x,1/2+y,1/2-z
3 -x,-y,-z
4 x,1/2-y,1/2+z
_cell_length_a                   8.854(4)
_cell_length_b                   13.474(5)
_cell_length_c                   9.815(4)
_cell_angle_alpha                90
_cell_angle_beta                 98.523(8)
_cell_angle_gamma                90
_cell_volume                     1157.99
loop_
_atom_site_label
_atom_site_type_symbol
_atom_site_fract_x
_atom_site_fract_y
_atom_site_fract_z
C4 C 0.4251(3) 0.40417(16) -0.0201(2)
H8 H 0.4049 0.3392 0.0158
H9 H 0.3711 0.4089 -0.1134
C5 C 0.3673(3) 0.48358(16) 0.0683(2)
H10 H 0.4093 0.4735 0.1655
C6 C 0.2053(5) 0.4796(3) 0.0502(5)
H11 H 0.1733 0.4159 0.0791
H12 H 0.1673 0.5306 0.1045
H13 H 0.1656 0.4897 -0.0452
N1 N 0.5918(2) 0.41535(14) -0.02208(19)
H14 H 0.6223 0.3696 -0.0790
H15 H 0.6423 0.4040 0.0630
C4B C 0.5749(3) 0.59583(16) 0.0201(2)
H8B H 0.5951 0.6608 -0.0158
H9B H 0.6289 0.5911 0.1134
C5B C 0.6327(3) 0.51642(16) -0.0683(2)
H10B H 0.5907 0.5265 -0.1655
C6B C 0.7947(5) 0.5204(3) -0.0502(5)
H11B H 0.8267 0.5841 -0.0791
H12B H 0.8327 0.4694 -0.1045
H13B H 0.8344 0.5103 0.0452
N1B N 0.4082(2) 0.58465(14) 0.02208(19)
H14B H 0.3777 0.6304 0.0790
H15B H 0.3577 0.5960 -0.0630
Zn1 Zn 0.63701(2) 0.359625(16) -0.42426(2)
P1 P 0.77191(5) 0.21931(4) -0.18286(5)
P2 P 1.29781(6) 0.08141(4) 0.00345(5)
O1 O 0.66213(15) 0.30283(10) -0.24042(14)
O2 O 0.73505(17) 0.12103(10) -0.25732(15)
O3 O 0.77053(15) 0.21249(10) -0.02778(14)
O4 O 1.42617(16) 0.15388(10) -0.00786(16)
O5 O 1.28963(16) -0.00523(11) -0.09534(15)
O6 O 1.31420(18) 0.04640(11) 0.15700(15)
H1 H 1.2900 -0.0122 0.1596
C1 C 1.1229(2) 0.14939(15) -0.0316(2)
H2 H 1.0398 0.1081 -0.0101
H3 H 1.1289 0.2073 0.0277
C2 C 1.0879(2) 0.18283(18) -0.1820(2)
H4 H 1.0600 0.1251 -0.2394
H5 H 1.1799 0.2108 -0.2092
C3 C 0.9596(2) 0.25960(16) -0.2094(2)
H6 H 0.9537 0.2820 -0.3040
H7 H 0.9876 0.3165 -0.1505
Zn1C Zn 0.63701(2) 0.140375(16) -0.92426(2)
Zn1C_2 Zn 0.63701(2) 0.140375(16) 0.07574(2)
Zn1C_3 Zn 1.63701(2) 0.140375(16) 0.07574(2)
Zn1A Zn 1.36299(2) -0.140375(16) -0.07574(2)
Zn1_2 Zn 1.63701(2) 0.359625(16) -0.42426(2)
Zn1B Zn 1.36299(2) 0.640375(16) -0.57574(2)
P1C P 0.77191(5) 0.28069(4) -0.68286(5)
P2C P 1.29781(6) 0.41859(4) -0.49655(5)
O1C O 0.66213(15) 0.19717(10) -0.74042(14)
O2C O 0.73505(17) 0.37897(10) -0.75732(15)
O3C O 0.77053(15) 0.28751(10) -0.52778(14)
O3_2 O 0.77053(15) 0.21249(10) -1.02778(14)
O4C O 1.42617(16) 0.34612(10) -0.50786(16)
O4C_2 O 0.42617(16) 0.34612(10) -0.50786(16)
O4_2 O 0.42617(16) 0.15388(10) -1.00786(16)
O5C O 1.28963(16) 0.50523(11) -0.59534(15)
O5A O 0.71037(16) 0.49477(11) -0.40466(15)
O5B O 0.71037(16) 0.00523(11) -0.90466(15)
O6C O 1.31420(18) 0.45360(11) -0.34300(15)
H1C H 1.2900 0.5122 -0.3404
C1C C 1.1229(2) 0.35061(15) -0.5316(2)
H2C H 1.0398 0.3919 -0.5101
H3C H 1.1289 0.2927 -0.4723
C2C C 1.0879(2) 0.31717(18) -0.6820(2)
H4C H 1.0600 0.3749 -0.7394
H5C H 1.1799 0.2892 -0.7092
C3C C 0.9596(2) 0.24040(16) -0.7094(2)
H6C H 0.9537 0.2180 -0.8040
H7C H 0.9876 0.1835 -0.6505
loop_
_geom_bond_atom_site_label_1
_geom_bond_atom_site_label_2
_geom_bond_site_symmetry_1
_geom_bond_site_symmetry_2
Zn1 O1 1_555 1_555
P1 O1 1_555 1_555
P2 O4 1_555 1_555
O2 P1 1_555 1_555
O3 P1 1_555 1_555
O4 Zn1C_3 1_555 1_555
O5 P2 1_555 1_555
O6 P2 1_555 1_555
H1 O6 1_555 1_555
C1 P2 1_555 1_555
H2 C1 1_555 1_555
H3 C1 1_555 1_555
C2 C1 1_555 1_555
H4 C2 1_555 1_555
H5 C2 1_555 1_555
C3 P1 1_555 1_555
H6 C3 1_555 1_555
H7 C3 1_555 1_555
C4 H8 1_555 1_555
H9 C4 1_555 1_555
C5 C4 1_555 1_555
H10 C5 1_555 1_555
C6 C5 1_555 1_555
H11 C6 1_555 1_555
H12 C6 1_555 1_555
H13 C6 1_555 1_555
N1 C4 1_555 1_555
H14 N1 1_555 1_555
H15 N1 1_555 1_555
Zn1C O1C 1_555 1_555
Zn1C_2 O3 1_555 1_555
Zn1A O5 1_555 1_555
Zn1_2 O4C 1_555 1_555
Zn1B O5C 1_555 1_555
P1C O1C 1_555 1_555
P2C O4C 1_555 1_555
O2C P1C 1_555 1_555
O3C Zn1 1_555 1_555
O3_2 Zn1C 1_555 1_555
O4C_2 Zn1 1_555 1_555
O4_2 Zn1C 1_555 1_555
O5C P2C 1_555 1_555
O5A Zn1 1_555 1_555
O5B Zn1C 1_555 1_555
O6C P2C 1_555 1_555
H1C O6C 1_555 1_555
C1C P2C 1_555 1_555
H2C C1C 1_555 1_555
H3C C1C 1_555 1_555
C2C C1C 1_555 1_555
H4C C2C 1_555 1_555
H5C C2C 1_555 1_555
C3C P1C 1_555 1_555
H6C C3C 1_555 1_555
H7C C3C 1_555 1_555
C4B H8B 1_555 1_555
H9B C4B 1_555 1_555
C5B N1 1_555 1_555
H10B C5B 1_555 1_555
C6B C5B 1_555 1_555
H11B C6B 1_555 1_555
H12B C6B 1_555 1_555
H13B C6B 1_555 1_555
N1B C5 1_555 1_555
H14B N1B 1_555 1_555
H15B N1B 1_555 1_555
C2 C3 1_555 1_555
P1C O3C 1_555 1_555
C2C C3C 1_555 1_555
C4B C5B 1_555 1_555
C4B N1B 1_555 1_555

#END
