
#######################################################################
#
#                 Cambridge Crystallographic Data Centre
#                                CCDC 
#
#######################################################################
#
# If this CIF has been generated from an entry in the Cambridge 
# Structural Database, then it will include bibliographic, chemical, 
# crystal, experimental, refinement or atomic coordinate data resulting 
# from the CCDC's data processing and validation procedures.
#
#######################################################################

data_NELVEG
_symmetry_cell_setting           monoclinic
_symmetry_space_group_name_H-M   'P 21/c'
_symmetry_Int_Tables_number      14
_space_group_name_Hall           '-P 2ybc'
loop_
_symmetry_equiv_pos_site_id
_symmetry_equiv_pos_as_xyz
1 x,y,z
2 -x,1/2+y,1/2-z
3 -x,-y,-z
4 x,1/2-y,1/2+z
_cell_length_a                   8.5989(17)
_cell_length_b                   17.044(2)
_cell_length_c                   10.165(2)
_cell_angle_alpha                90
_cell_angle_beta                 108.434(9)
_cell_angle_gamma                90
_cell_volume                     1413.34
loop_
_atom_site_label
_atom_site_type_symbol
_atom_site_fract_x
_atom_site_fract_y
_atom_site_fract_z
C4 C -0.0806(9) 0.0316(4) 0.5931(7)
H8 H -0.1614 0.0666 0.6098
H9 H -0.0260 0.0040 0.6788
C5 C -0.1654(10) -0.0271(5) 0.4810(9)
H10 H -0.2061 0.0055 0.3977
C6 C -0.291(3) -0.0559(11) 0.494(2)
H11 H -0.3588 -0.0149 0.5108
H12 H -0.3498 -0.0831 0.4099
H13 H -0.2628 -0.0920 0.5699
N1 N 0.0413(7) 0.0779(3) 0.5502(5)
H14 H 0.0922 0.1116 0.6185
H15 H -0.0111 0.1063 0.4744
C4B C 0.0806(9) -0.0316(4) 0.4069(7)
H8B H 0.1614 -0.0666 0.3902
H9B H 0.0260 -0.0040 0.3212
C5B C 0.1654(10) 0.0271(5) 0.5190(9)
H10B H 0.2061 -0.0055 0.6023
C6B C 0.291(3) 0.0559(11) 0.506(2)
H11B H 0.3588 0.0149 0.4892
H12B H 0.3498 0.0831 0.5901
H13B H 0.2628 0.0920 0.4301
N1B N -0.0413(7) -0.0779(3) 0.4498(5)
H14B H -0.0922 -0.1116 0.3815
H15B H 0.0111 -0.1063 0.5256
Zn1 Zn 0.10572(7) 0.17166(3) 0.92118(5)
Zn2 Zn 0.12258(7) -0.16836(3) 0.82182(6)
P1 P 0.24102(15) -0.00352(7) 0.99165(13)
P2 P -0.23586(15) 0.24774(7) 0.89456(12)
P3 P -0.77556(15) 0.26095(7) 0.71489(12)
O1 O 0.2750(4) -0.0431(2) 1.1369(4)
H1 H 0.2269 -0.0853 1.1277
O2 O 0.1878(5) -0.0621(2) 0.8760(4)
O3 O 0.1245(4) 0.0638(2) 0.9754(4)
O4 O -0.1828(4) 0.32653(18) 0.8498(3)
O5 O -0.1342(4) 0.18014(19) 0.8633(3)
O6 O -0.2270(4) 0.2496(2) 1.0467(3)
O7 O -0.8862(4) 0.32357(19) 0.7437(3)
O8 O -0.8119(4) 0.17902(19) 0.7627(3)
O9 O -0.7843(4) 0.2546(2) 0.5633(3)
C1 C 0.4374(6) 0.0330(3) 0.9970(6)
H2 H 0.4254 0.0650 0.9154
H3 H 0.4793 0.0664 1.0778
C2 C -0.4442(6) 0.2288(3) 0.7913(5)
H4 H -0.4514 0.2306 0.6942
H5 H -0.4732 0.1761 0.8111
C3 C -0.5697(6) 0.2861(3) 0.8150(5)
H6 H -0.5454 0.3387 0.7902
H7 H -0.5603 0.2863 0.9126
Zn1B Zn 0.89428(7) -0.17166(3) 1.07882(5)
Zn1_2 Zn -0.89428(7) 0.17166(3) 0.92118(5)
Zn1C Zn -0.89428(7) 0.32834(3) 0.42118(5)
Zn1_3 Zn 1.10572(7) 0.17166(3) 0.92118(5)
Zn1C_2 Zn 0.10572(7) 0.32834(3) 0.42118(5)
Zn2B Zn 0.87742(7) 0.16836(3) 1.17818(6)
Zn2A Zn -0.12258(7) 0.33164(3) 0.67818(6)
Zn2B_2 Zn -0.12258(7) 0.16836(3) 1.17818(6)
Zn2A_2 Zn -1.12258(7) 0.33164(3) 0.67818(6)
Zn2A_3 Zn 0.87742(7) 0.33164(3) 0.67818(6)
P1B P 0.75898(15) 0.00352(7) 1.00835(13)
P2_2 P 0.76414(15) 0.24774(7) 0.89456(12)
P3_2 P 0.22444(15) 0.26095(7) 0.71489(12)
O1B O 0.7250(4) 0.0431(2) 0.8631(4)
H1B H 0.7731 0.0853 0.8723
O2B O 0.8122(5) 0.0621(2) 1.1240(4)
O3B O 0.8755(4) -0.0638(2) 1.0246(4)
O4_2 O 0.8172(4) 0.32653(18) 0.8498(3)
O4A O 0.1828(4) -0.17347(18) 0.6502(3)
O4C O 0.8172(4) 0.17347(18) 1.3498(3)
O5_2 O 0.8658(4) 0.18014(19) 0.8633(3)
O5B O 1.1342(4) -0.18014(19) 1.1367(3)
O6_2 O 0.7730(4) 0.2496(2) 1.0467(3)
O6B O 0.2270(4) -0.2496(2) 0.9533(3)
O7_2 O 0.1138(4) 0.32357(19) 0.7437(3)
O7A O -0.1138(4) -0.17643(19) 0.7563(3)
O7C O 1.1138(4) 0.17643(19) 1.2437(3)
O8_2 O 0.1881(4) 0.17902(19) 0.7627(3)
O8B O 0.8119(4) -0.17902(19) 1.2373(3)
O9_2 O 0.2157(4) 0.2546(2) 0.5633(3)
O9C O 0.2157(4) 0.2454(2) 1.0633(3)
O9A O 0.7843(4) -0.2454(2) 0.9367(3)
C1B C 0.5626(6) -0.0330(3) 1.0030(6)
H2B H 0.5746 -0.0650 1.0846
H3B H 0.5207 -0.0664 0.9222
C2_2 C 0.5558(6) 0.2288(3) 0.7913(5)
H4_2 H 0.5486 0.2306 0.6942
H5_2 H 0.5268 0.1761 0.8111
C3_2 C 0.4303(6) 0.2861(3) 0.8150(5)
H6_2 H 0.4546 0.3387 0.7902
H7_2 H 0.4397 0.2863 0.9126
loop_
_geom_bond_atom_site_label_1
_geom_bond_atom_site_label_2
_geom_bond_site_symmetry_1
_geom_bond_site_symmetry_2
Zn1 O3 1_555 1_555
Zn2 O2 1_555 1_555
P1 O1 1_555 1_555
P2 O4 1_555 1_555
P3 O7 1_555 1_555
O1 H1 1_555 1_555
O2 P1 1_555 1_555
O3 P1 1_555 1_555
O4 Zn2A 1_555 1_555
O5 Zn1 1_555 1_555
O6 P2 1_555 1_555
O7 Zn2A_2 1_555 1_555
O8 P3 1_555 1_555
O9 P3 1_555 1_555
C1 P1 1_555 1_555
H2 C1 1_555 1_555
H3 C1 1_555 1_555
C2 P2 1_555 1_555
H4 C2 1_555 1_555
H5 C2 1_555 1_555
C3 P3 1_555 1_555
H6 C3 1_555 1_555
H7 C3 1_555 1_555
C4 H8 1_555 1_555
H9 C4 1_555 1_555
C5 C4 1_555 1_555
H10 C5 1_555 1_555
C6 C5 1_555 1_555
H11 C6 1_555 1_555
H12 C6 1_555 1_555
H13 C6 1_555 1_555
N1 C4 1_555 1_555
H14 N1 1_555 1_555
H15 N1 1_555 1_555
Zn1B O3B 1_555 1_555
Zn1_2 O8 1_555 1_555
Zn1C O9 1_555 1_555
Zn1_3 O5_2 1_555 1_555
Zn1C_2 O9_2 1_555 1_555
Zn2B O2B 1_555 1_555
Zn2A O7_2 1_555 1_555
Zn2B_2 O6 1_555 1_555
Zn2A_3 O4_2 1_555 1_555
P1B O1B 1_555 1_555
P2_2 O4_2 1_555 1_555
P3_2 O7_2 1_555 1_555
O1B H1B 1_555 1_555
O2B P1B 1_555 1_555
O3B P1B 1_555 1_555
O4A Zn2 1_555 1_555
O4C Zn2B 1_555 1_555
O5_2 P2_2 1_555 1_555
O5B Zn1B 1_555 1_555
O6_2 Zn2B 1_555 1_555
O6B Zn2 1_555 1_555
O7A Zn2 1_555 1_555
O7C Zn2B 1_555 1_555
O8_2 Zn1 1_555 1_555
O8B Zn1B 1_555 1_555
O9_2 P3_2 1_555 1_555
O9C Zn1 1_555 1_555
O9A Zn1B 1_555 1_555
C1B C1 1_555 1_555
H2B C1B 1_555 1_555
H3B C1B 1_555 1_555
C2_2 P2_2 1_555 1_555
H4_2 C2_2 1_555 1_555
H5_2 C2_2 1_555 1_555
C3_2 P3_2 1_555 1_555
H6_2 C3_2 1_555 1_555
H7_2 C3_2 1_555 1_555
C4B H8B 1_555 1_555
H9B C4B 1_555 1_555
C5B N1 1_555 1_555
H10B C5B 1_555 1_555
C6B C5B 1_555 1_555
H11B C6B 1_555 1_555
H12B C6B 1_555 1_555
H13B C6B 1_555 1_555
N1B C5 1_555 1_555
H14B N1B 1_555 1_555
H15B N1B 1_555 1_555
P2 O5 1_555 1_555
C2 C3 1_555 1_555
P1B C1B 1_555 1_555
P2_2 O6_2 1_555 1_555
P3_2 O8_2 1_555 1_555
C2_2 C3_2 1_555 1_555
C4B C5B 1_555 1_555
C4B N1B 1_555 1_555

#END
