
#######################################################################
#
#                 Cambridge Crystallographic Data Centre
#                                CCDC 
#
#######################################################################
#
# If this CIF has been generated from an entry in the Cambridge 
# Structural Database, then it will include bibliographic, chemical, 
# crystal, experimental, refinement or atomic coordinate data resulting 
# from the CCDC's data processing and validation procedures.
#
#######################################################################

data_NELWIL
_symmetry_cell_setting           monoclinic
_symmetry_space_group_name_H-M   'P 21/c'
_symmetry_Int_Tables_number      14
_space_group_name_Hall           '-P 2ybc'
loop_
_symmetry_equiv_pos_site_id
_symmetry_equiv_pos_as_xyz
1 x,y,z
2 -x,1/2+y,1/2-z
3 -x,-y,-z
4 x,1/2-y,1/2+z
_cell_length_a                   4.7094(1)
_cell_length_b                   20.2467(5)
_cell_length_c                   11.2824(4)
_cell_angle_alpha                90
_cell_angle_beta                 98.827(4)
_cell_angle_gamma                90
_cell_volume                     1063.03
loop_
_atom_site_label
_atom_site_type_symbol
_atom_site_fract_x
_atom_site_fract_y
_atom_site_fract_z
Cu1 Cu 0.6758(10) 0.3375(1) 0.5551(4)
O1 O 0.851(3) 0.3608(3) 0.7184(6)
O2 O 1.127(3) 0.3214(4) 0.8764(8)
O3 O 1.475(3) 0.1925(7) 0.892(1)
O4 O 1.116(3) 0.1686(7) 0.9864(9)
N1 N 0.732(3) 0.2469(1) 0.6226(7)
N2 N 0.920(3) 0.1320(3) 0.732(1)
N3 N 0.574(3) 0.4341(3) 0.5193(6)
C1 C 0.912(4) 0.2470(2) 0.7263(10)
C2 C 1.017(3) 0.1891(3) 0.7795(9)
C3 C 0.757(4) 0.1321(2) 0.627(1)
C4 C 0.646(4) 0.1889(1) 0.571(1)
C5 C 0.980(2) 0.3159(3) 0.7783(7)
C6 C 1.216(2) 0.1815(5) 0.8948(7)
C7 C 0.484(5) 0.4690(3) 0.6036(7)
C8 C 0.608(4) 0.4644(3) 0.4180(8)
H1 H 0.72(2) 0.0905(7) 0.583(4)
H2 H 0.524(8) 0.1887(2) 0.495(2)
H3 H 0.461(8) 0.4492(5) 0.680(1)
H4 H 0.677(7) 0.4401(5) 0.355(1)
Cu1C Cu -0.3242(10) 0.1625(1) 0.0551(4)
Cu1C_2 Cu 1.6758(10) 0.1625(1) 1.0551(4)
Cu1C_3 Cu 0.6758(10) 0.1625(1) 1.0551(4)
Cu1B Cu 0.3242(10) 0.6625(1) 0.4449(4)
Cu1_2 Cu -0.3242(10) 0.3375(1) 0.5551(4)
O1C O -0.149(3) 0.1392(3) 0.2184(6)
O2C O 0.127(3) 0.1786(4) 0.3764(8)
O3C O 0.475(3) 0.3075(7) 0.392(1)
O3_2 O -0.525(3) 0.1925(7) -0.108(1)
O4C O 0.116(3) 0.3314(7) 0.4864(9)
O4C_2 O 1.116(3) 0.3314(7) 0.4864(9)
O4_2 O 0.116(3) 0.1686(7) -0.0136(9)
N1C N -0.268(3) 0.2531(1) 0.1226(7)
N2C N -0.080(3) 0.3680(3) 0.232(1)
N3B N 0.426(3) 0.5659(3) 0.4807(6)
N3C N -0.426(3) 0.0659(3) 0.0193(6)
C1C C -0.088(4) 0.2530(2) 0.2263(10)
C2C C 0.017(3) 0.3109(3) 0.2795(9)
C3C C -0.243(4) 0.3679(2) 0.127(1)
C4C C -0.354(4) 0.3111(1) 0.071(1)
C5C C -0.020(2) 0.1841(3) 0.2783(7)
C6C C 0.216(2) 0.3185(5) 0.3948(7)
C7B C 0.516(5) 0.5310(3) 0.3964(7)
C8B C 0.392(4) 0.5356(3) 0.5820(8)
H1C H -0.28(2) 0.4095(7) 0.083(4)
H2C H -0.476(8) 0.3113(2) -0.005(2)
H3B H 0.539(8) 0.5508(5) 0.320(1)
H4B H 0.323(7) 0.5599(5) 0.645(1)
C9 C 0.01255 0.51967 0.04016
H5 H 0.03445 0.55446 0.11110
C9B C -0.01255 0.48033 -0.04016
H5B H -0.03445 0.44554 -0.11110
loop_
_geom_bond_atom_site_label_1
_geom_bond_atom_site_label_2
_geom_bond_site_symmetry_1
_geom_bond_site_symmetry_2
Cu1 O1 1_555 1_555
O1 C5 1_555 1_555
O2 C5 1_555 1_555
O3 C6 1_555 1_555
O4 C6 1_555 1_555
N1 Cu1 1_555 1_555
N2 C2 1_555 1_555
N3 Cu1 1_555 1_555
C1 N1 1_555 1_555
C2 C1 1_555 1_555
C3 N2 1_555 1_555
C4 N1 1_555 1_555
C5 C1 1_555 1_555
C6 C2 1_555 1_555
C7 N3 1_555 1_555
C8 N3 1_555 1_555
H1 C3 1_555 1_555
H2 C4 1_555 1_555
H3 C7 1_555 1_555
H4 C8 1_555 1_555
C9 H5 1_555 1_555
Cu1C O1C 1_555 1_555
Cu1C_2 O3 1_555 1_555
Cu1C_3 O4 1_555 1_555
Cu1B N3B 1_555 1_555
Cu1_2 O4C 1_555 1_555
O1C C5C 1_555 1_555
O2C C5C 1_555 1_555
O3C Cu1 1_555 1_555
O3_2 Cu1C 1_555 1_555
O4C C6C 1_555 1_555
O4C_2 Cu1 1_555 1_555
O4_2 Cu1C 1_555 1_555
N1C Cu1C 1_555 1_555
N2C C2C 1_555 1_555
N3B C7B 1_555 1_555
N3C Cu1C 1_555 1_555
C1C N1C 1_555 1_555
C2C C1C 1_555 1_555
C3C N2C 1_555 1_555
C4C N1C 1_555 1_555
C5C C1C 1_555 1_555
C6C O3C 1_555 1_555
C7B C8 1_555 1_555
C8B C7 1_555 1_555
H1C C3C 1_555 1_555
H2C C4C 1_555 1_555
H3B C7B 1_555 1_555
H4B C8B 1_555 1_555
C9B C9 1_555 1_555
H5B C9B 1_555 1_555
C3 C4 1_555 1_555
N3B C8B 1_555 1_555
C2C C6C 1_555 1_555
C3C C4C 1_555 1_555

#END
