
#######################################################################
#
#                 Cambridge Crystallographic Data Centre
#                                CCDC 
#
#######################################################################
#
# If this CIF has been generated from an entry in the Cambridge 
# Structural Database, then it will include bibliographic, chemical, 
# crystal, experimental, refinement or atomic coordinate data resulting 
# from the CCDC's data processing and validation procedures.
#
#######################################################################

data_NERMON
_symmetry_cell_setting           monoclinic
_symmetry_space_group_name_H-M   'C 2/c'
_symmetry_Int_Tables_number      15
_space_group_name_Hall           '-C 2yn'
loop_
_symmetry_equiv_pos_site_id
_symmetry_equiv_pos_as_xyz
1 x,y,z
2 1/2+x,1/2+y,z
3 -x,y,1/2-z
4 1/2-x,1/2+y,1/2-z
5 -x,-y,-z
6 1/2-x,1/2-y,-z
7 x,-y,1/2+z
8 1/2+x,1/2-y,1/2+z
_cell_length_a                   38.5123(13)
_cell_length_b                   11.1241(4)
_cell_length_c                   7.0122(2)
_cell_angle_alpha                90.00
_cell_angle_beta                 98.634(2)
_cell_angle_gamma                90.00
_cell_volume                     2970.09
loop_
_atom_site_label
_atom_site_type_symbol
_atom_site_fract_x
_atom_site_fract_y
_atom_site_fract_z
Er1 Er 0.629685(12) 0.70014(4) 0.85334(6)
O1 O 0.5874(2) 0.5463(8) 0.7860(11)
O2 O 0.5723(3) 0.7159(9) 0.6454(16)
O3 O 0.6480(2) 0.6367(8) 0.5778(11)
O4 O 0.6638(2) 0.4671(7) 0.4428(12)
O5 O 0.8252(2) 0.7182(8) 0.9439(12)
O6 O 0.8420(2) 0.6134(9) 0.7019(12)
O7 O 0.6144(3) 0.6592(9) 1.1633(12)
O8 O 0.6422(3) 0.8740(8) 0.6744(13)
O9 O 0.6000(3) 0.8717(9) 0.9645(15)
C1 C 0.5655(3) 0.6079(12) 0.6725(17)
C2 C 0.5316(3) 0.5523(11) 0.5836(16)
C3 C 0.5029(4) 0.6249(12) 0.5005(18)
H1 H 0.5049 0.7082 0.5024
C4 C 0.5273(3) 0.4272(12) 0.5808(17)
H2 H 0.5457 0.3788 0.6366
C5 C 0.6713(3) 0.5634(10) 0.5330(15)
C6 C 0.7090(3) 0.5936(11) 0.5853(13)
C7 C 0.7345(3) 0.5145(11) 0.5435(15)
H3 H 0.7276 0.4457 0.4724
C8 C 0.7706(3) 0.5352(10) 0.6058(15)
H4 H 0.7873 0.4807 0.5763
C9 C 0.7807(3) 0.6374(10) 0.7109(14)
C10 C 0.7553(3) 0.7197(10) 0.7455(16)
H5 H 0.7623 0.7895 0.8137
C11 C 0.7198(3) 0.7017(10) 0.6821(14)
H6 H 0.7034 0.7597 0.7029
C12 C 0.8187(3) 0.6577(10) 0.7882(16)
Er1D Er 0.370315(12) 0.29986(4) 0.14666(6)
Er1F Er 0.629685(12) 0.29986(4) 0.35334(6)
Er1E Er 0.870315(12) 0.79986(4) 1.14666(6)
Er1F_2 Er 0.629685(12) 0.29986(4) 1.35334(6)
Er1C Er 0.870315(12) 0.20014(4) 1.64666(6)
O1D O 0.4126(2) 0.4537(8) 0.2140(11)
O2D O 0.4277(3) 0.2841(9) 0.3546(16)
O3F O 0.6480(2) 0.3633(8) 1.0778(11)
O3D O 0.3520(2) 0.3633(8) 0.4222(11)
O4F O 0.6638(2) 0.5329(7) 0.9428(12)
O4B O 0.3362(2) 0.4671(7) 0.0572(12)
O5F O 0.8252(2) 0.2818(8) 1.4439(12)
O5E O 0.6748(2) 0.7818(8) 1.0561(12)
O5A O 0.3252(2) 0.2182(8) -0.0561(12)
O6F O 0.8420(2) 0.3866(9) 1.2019(12)
O7D O 0.3856(3) 0.3408(9) -0.1633(12)
O8D O 0.3578(3) 0.1260(8) 0.3256(13)
O9D O 0.4000(3) 0.1283(9) 0.0355(15)
C1D C 0.4345(3) 0.3921(12) 0.3275(17)
C2D C 0.4684(3) 0.4477(11) 0.4164(16)
C3D C 0.4971(4) 0.3751(12) 0.4995(18)
H1D H 0.4951 0.2918 0.4976
C4D C 0.4727(3) 0.5728(12) 0.4192(17)
H2D H 0.4543 0.6212 0.3634
C5F C 0.6713(3) 0.4366(10) 1.0330(15)
C6F C 0.7090(3) 0.4064(11) 1.0853(13)
C7F C 0.7345(3) 0.4855(11) 1.0435(15)
H3F H 0.7276 0.5543 0.9724
C8F C 0.7706(3) 0.4648(10) 1.1058(15)
H4F H 0.7873 0.5193 1.0763
C9F C 0.7807(3) 0.3626(10) 1.2109(14)
C10F C 0.7553(3) 0.2803(10) 1.2455(16)
H5F H 0.7623 0.2105 1.3137
C11F C 0.7198(3) 0.2983(10) 1.1821(14)
H6F H 0.7034 0.2403 1.2029
C12F C 0.8187(3) 0.3423(10) 1.2882(16)
O10 O 0.5696(5) 0.1065(16) 0.824(2)
loop_
_geom_bond_atom_site_label_1
_geom_bond_atom_site_label_2
_geom_bond_site_symmetry_1
_geom_bond_site_symmetry_2
Er1 O1 1_555 1_555
O1 C1 1_555 1_555
O2 Er1 1_555 1_555
O3 Er1 1_555 1_555
O4 C5 1_555 1_555
O5 C12 1_555 1_555
O6 C12 1_555 1_555
O7 Er1 1_555 1_555
O8 Er1 1_555 1_555
O9 Er1 1_555 1_555
C1 O2 1_555 1_555
C2 C1 1_555 1_555
C3 C2 1_555 1_555
H1 C3 1_555 1_555
C4 C2 1_555 1_555
H2 C4 1_555 1_555
C5 O3 1_555 1_555
C6 C5 1_555 1_555
C7 C6 1_555 1_555
H3 C7 1_555 1_555
C8 C7 1_555 1_555
H4 C8 1_555 1_555
C9 C8 1_555 1_555
C10 C9 1_555 1_555
H5 C10 1_555 1_555
C11 C6 1_555 1_555
H6 C11 1_555 1_555
C12 C9 1_555 1_555
Er1D O1D 1_555 1_555
Er1F O4 1_555 1_555
Er1E O5 1_555 1_555
Er1F_2 O3F 1_555 1_555
Er1C O5F 1_555 1_555
O1D C1D 1_555 1_555
O2D Er1D 1_555 1_555
O3F C5F 1_555 1_555
O3D Er1D 1_555 1_555
O4F Er1 1_555 1_555
O4B Er1D 1_555 1_555
O5F C12F 1_555 1_555
O5E Er1 1_555 1_555
O5A Er1D 1_555 1_555
O6F C12F 1_555 1_555
O7D Er1D 1_555 1_555
O8D Er1D 1_555 1_555
O9D Er1D 1_555 1_555
C1D O2D 1_555 1_555
C2D C1D 1_555 1_555
C3D C4 1_555 1_555
H1D C3D 1_555 1_555
C4D C3 1_555 1_555
H2D C4D 1_555 1_555
C5F O4F 1_555 1_555
C6F C5F 1_555 1_555
C7F C6F 1_555 1_555
H3F C7F 1_555 1_555
C8F C7F 1_555 1_555
H4F C8F 1_555 1_555
C9F C8F 1_555 1_555
C10F C9F 1_555 1_555
H5F C10F 1_555 1_555
C11F C6F 1_555 1_555
H6F C11F 1_555 1_555
C12F C9F 1_555 1_555
C10 C11 1_555 1_555
C2D C3D 1_555 1_555
C2D C4D 1_555 1_555
C10F C11F 1_555 1_555

#END
