
#######################################################################
#
#                 Cambridge Crystallographic Data Centre
#                                CCDC 
#
#######################################################################
#
# If this CIF has been generated from an entry in the Cambridge 
# Structural Database, then it will include bibliographic, chemical, 
# crystal, experimental, refinement or atomic coordinate data resulting 
# from the CCDC's data processing and validation procedures.
#
#######################################################################

data_NERVOV
_symmetry_cell_setting           triclinic
_symmetry_space_group_name_H-M   'P -1'
_symmetry_Int_Tables_number      2
_space_group_name_Hall           '-P 1'
loop_
_symmetry_equiv_pos_site_id
_symmetry_equiv_pos_as_xyz
1 x,y,z
2 -x,-y,-z
_cell_length_a                   10.6671(6)
_cell_length_b                   12.0063(7)
_cell_length_c                   14.0658(8)
_cell_angle_alpha                106.7180
_cell_angle_beta                 102.2790
_cell_angle_gamma                111.1900
_cell_volume                     1504.11
loop_
_atom_site_label
_atom_site_type_symbol
_atom_site_fract_x
_atom_site_fract_y
_atom_site_fract_z
Co1 Co 0.19349(3) 0.49579(3) 0.21403(2)
Co2 Co 0.45213(3) 0.23171(3) -0.30975(2)
N1 N 0.2825(2) 0.2514(2) -0.24944(15)
N2 N 0.3351(2) 1.0228(2) 0.63134(16)
N3 N 0.1661(2) 0.3467(2) 0.27369(16)
N4 N -0.0342(2) 0.4349(2) 0.15862(15)
O1 O 0.16333(18) 0.36934(18) 0.06080(13)
O2 O 0.39056(19) 0.4246(2) 0.06981(14)
O3 O 0.21659(19) 0.61851(16) 0.35963(13)
O4 O 0.40297(18) 0.80232(16) 0.38268(13)
O5 O 0.3346(2) 0.22509(17) 0.54799(13)
O6 O 0.4026(3) 0.4364(2) 0.58297(16)
O7 O -0.21720(18) 0.36210(18) -0.15104(14)
O8 O -0.44152(17) 0.25347(17) -0.15672(13)
O9 O 0.42395(18) 0.56144(17) 0.25822(15)
H1 H 0.477(4) 0.554(4) 0.314(3)
H2 H 0.425(3) 0.524(3) 0.207(3)
C1 C 0.0777(3) 0.2216(3) 0.2109(2)
H3 H 0.0254 0.2007 0.141
C2 C 0.1457(3) 0.2043(3) -0.3129(2)
H4 H 0.1223 0.1668 -0.3859
C3 C 0.0384(3) 0.2093(3) -0.2745(2)
H5 H -0.0544 0.1776 -0.3213
C4 C 0.0691(3) 0.2613(3) -0.1662(2)
H6 H -0.0025 0.2634 -0.1389
C5 C 0.2099(3) 0.3104(2) -0.09950(18)
C6 C 0.3117(3) 0.3045(2) -0.14471(18)
H7 H 0.4063 0.3396 -0.0996
C7 C 0.2582(3) 0.3722(2) 0.02006(19)
C8 C 0.2713(4) 0.9614(3) 0.6864(2)
H8 H 0.2713 1.0112 0.7507
C9 C 0.2054(5) 0.8273(3) 0.6516(3)
H9 H 0.1599 0.7881 0.6911
C10 C 0.2079(4) 0.7523(3) 0.5577(3)
H10 H 0.1634 0.6618 0.5328
C11 C 0.2776(3) 0.8136(2) 0.50112(19)
C12 C 0.3369(2) 0.9485(2) 0.54031(18)
H11 H 0.3805 0.99 0.5012
C13 C 0.3002(2) 0.7387(2) 0.40570(18)
C14 C 0.2416(3) 0.3752(2) 0.37441(19)
H12 H 0.3023 0.4621 0.4193
C15 C 0.0604(3) 0.1221(3) 0.2449(2)
H13 H -0.0034 0.0362 0.1992
C16 C 0.1393(3) 0.1521(3) 0.3477(2)
H14 H 0.1297 0.0864 0.3723
C17 C 0.2326(3) 0.2804(3) 0.4142(2)
C18 C 0.3308(3) 0.3180(3) 0.52440(19)
C19 C -0.1120(3) 0.4398(3) 0.2215(2)
H15 H -0.0667 0.4667 0.294
C20 C -0.2561(3) 0.4068(4) 0.1835(2)
H16 H -0.3062 0.4135 0.2299
C21 C -0.3261(3) 0.3630(3) 0.0747(2)
H17 H -0.424 0.3377 0.047
C22 C -0.2469(2) 0.3578(2) 0.00881(18)
C23 C -0.1016(3) 0.3963(2) 0.05472(19)
H18 H -0.0477 0.3951 0.0108
C24 C -0.3070(2) 0.3214(2) -0.10914(18)
O7A O 0.21720(18) 0.63790(18) 0.15104(14)
N2_2 N 0.3351(2) 0.0228(2) -0.36866(16)
O4A O 0.59703(18) 0.19768(16) -0.38268(13)
O5_2 O 0.3346(2) 0.22509(17) -0.45201(13)
O8_2 O 0.55848(17) 0.25347(17) -0.15672(13)
O9A O 0.57605(18) 0.43856(17) -0.25822(15)
Co2_2 Co 0.45213(3) 1.23171(3) 0.69025(2)
Co2A Co 0.54787(3) 0.76829(3) 0.30975(2)
Co2_3 Co 0.45213(3) 0.23171(3) 0.69025(2)
Co1A Co -0.19349(3) 0.50421(3) -0.21403(2)
Co2_4 Co -0.54787(3) 0.23171(3) -0.30975(2)
H1A H 0.523(4) 0.446(4) -0.314(3)
H2A H 0.575(3) 0.476(3) -0.207(3)
C25 C 0.3334(6) 1.0761(4) 0.1048(4)
C26 C 0.4037(4) 1.2003(4) 0.1836(4)
H19 H 0.4234 1.2713 0.1648
C27 C 0.4458(4) 1.2220(4) 0.2900(4)
H20 H 0.4968 1.3063 0.3423
C28 C 0.4095(5) 1.1138(5) 0.3167(4)
H21 H 0.4359 1.1275 0.3881
C29 C 0.3367(5) 0.9888(4) 0.2417(4)
H22 H 0.3124 0.918 0.2608
C30 C 0.3001(6) 0.9714(4) 0.1349(4)
H23 H 0.2521 0.8871 0.0824
C31 C 0.310(4) 1.063(3) -0.025(2)
O10 O 0.4584(15) 1.0500(14) -0.0456(11)
C32? C 0.276(4) 1.058(2) -0.0025(16)
O11? O 0.2670(8) 0.9471(8) -0.0749(5)
loop_
_geom_bond_atom_site_label_1
_geom_bond_atom_site_label_2
_geom_bond_site_symmetry_1
_geom_bond_site_symmetry_2
Co1 N3 1_555 1_555
Co2 N1 1_555 1_555
N1 C2 1_555 1_555
N2 C8 1_555 1_555
N3 C1 1_555 1_555
N4 Co1 1_555 1_555
O1 Co1 1_555 1_555
O2 C7 1_555 1_555
O3 Co1 1_555 1_555
O4 C13 1_555 1_555
O5 C18 1_555 1_555
O6 C18 1_555 1_555
O7 C24 1_555 1_555
O8 C24 1_555 1_555
O9 Co1 1_555 1_555
H1 O9 1_555 1_555
H2 O9 1_555 1_555
C1 H3 1_555 1_555
C2 H4 1_555 1_555
C3 C2 1_555 1_555
H5 C3 1_555 1_555
C4 C3 1_555 1_555
H6 C4 1_555 1_555
C5 C4 1_555 1_555
C6 N1 1_555 1_555
H7 C6 1_555 1_555
C7 O1 1_555 1_555
C8 H8 1_555 1_555
C9 C8 1_555 1_555
H9 C9 1_555 1_555
C10 C9 1_555 1_555
H10 C10 1_555 1_555
C11 C10 1_555 1_555
C12 N2 1_555 1_555
H11 C12 1_555 1_555
C13 O3 1_555 1_555
C14 N3 1_555 1_555
H12 C14 1_555 1_555
C15 C1 1_555 1_555
H13 C15 1_555 1_555
C16 C15 1_555 1_555
H14 C16 1_555 1_555
C17 C14 1_555 1_555
C18 C17 1_555 1_555
C19 N4 1_555 1_555
H15 C19 1_555 1_555
C20 C19 1_555 1_555
H16 C20 1_555 1_555
C21 C20 1_555 1_555
H17 C21 1_555 1_555
C22 C21 1_555 1_555
C23 N4 1_555 1_555
H18 C23 1_555 1_555
C24 C22 1_555 1_555
C25 C26 1_555 1_555
C26 H19 1_555 1_555
C27 C26 1_555 1_555
H20 C27 1_555 1_555
C28 C27 1_555 1_555
H21 C28 1_555 1_555
C29 C28 1_555 1_555
H22 C29 1_555 1_555
C30 C25 1_555 1_555
H23 C30 1_555 1_555
C31 C25 1_555 1_555
O10 C31 1_555 1_555
O7A Co1 1_555 1_555
N2_2 Co2 1_555 1_555
O4A Co2 1_555 1_555
O5_2 Co2 1_555 1_555
O8_2 Co2 1_555 1_555
O9A Co2 1_555 1_555
Co2_2 N2 1_555 1_555
Co2A O4 1_555 1_555
Co2_3 O5 1_555 1_555
Co1A O7 1_555 1_555
Co2_4 O8 1_555 1_555
H1A O9A 1_555 1_555
H2A O9A 1_555 1_555
O9 Co2A 1_555 1_555
C5 C6 1_555 1_555
C5 C7 1_555 1_555
C11 C12 1_555 1_555
C11 C13 1_555 1_555
C16 C17 1_555 1_555
C22 C23 1_555 1_555
C29 C30 1_555 1_555

#END
