
#######################################################################
#
#                 Cambridge Crystallographic Data Centre
#                                CCDC 
#
#######################################################################
#
# If this CIF has been generated from an entry in the Cambridge 
# Structural Database, then it will include bibliographic, chemical, 
# crystal, experimental, refinement or atomic coordinate data resulting 
# from the CCDC's data processing and validation procedures.
#
#######################################################################

data_NETYIV
_symmetry_cell_setting           monoclinic
_symmetry_space_group_name_H-M   'C 2/c'
_symmetry_Int_Tables_number      15
_space_group_name_Hall           '-C 2yn'
loop_
_symmetry_equiv_pos_site_id
_symmetry_equiv_pos_as_xyz
1 x,y,z
2 1/2+x,1/2+y,z
3 -x,y,1/2-z
4 1/2-x,1/2+y,1/2-z
5 -x,-y,-z
6 1/2-x,1/2-y,-z
7 x,-y,1/2+z
8 1/2+x,1/2-y,1/2+z
_cell_length_a                   19.748(4)
_cell_length_b                   17.494(4)
_cell_length_c                   22.160(4)
_cell_angle_alpha                90
_cell_angle_beta                 109.83(3)
_cell_angle_gamma                90
_cell_volume                     7201.69
loop_
_atom_site_label
_atom_site_type_symbol
_atom_site_fract_x
_atom_site_fract_y
_atom_site_fract_z
Cu1 Cu 0.5000 -0.09161(4) 0.2500
N1 N 0.55743(16) -0.1646(2) 0.21924(14)
C1 C 0.5751(2) -0.1364(3) 0.16954(18)
C2 C 0.5782(2) -0.2341(3) 0.23854(19)
H1 H 0.5683 -0.2534 0.2738
C3 C 0.6117(3) -0.1798(4) 0.1367(2)
C4 C 0.5542(2) -0.0607(3) 0.1518(2)
C5 C 0.6146(3) -0.2806(4) 0.2085(3)
H2 H 0.6283 -0.3299 0.2234
C6 C 0.6295(3) -0.2537(5) 0.1581(3)
H3 H 0.6523 -0.2852 0.1371
C7 C 0.5688(3) -0.0274(5) 0.0990(3)
C8 C 0.4965(3) 0.0488(4) 0.1692(4)
H4 H 0.4720 0.0749 0.1920
C9 C 0.6270(4) -0.1439(7) 0.0843(3)
H5 H 0.6515 -0.1710 0.0621
C10 C 0.5091(4) 0.0842(5) 0.1157(4)
H6 H 0.4928 0.1337 0.1039
C11 C 0.6062(5) -0.0722(6) 0.0675(3)
H7 H 0.6168 -0.0507 0.0333
C12 C 0.5447(5) 0.0463(6) 0.0821(4)
H8 H 0.5529 0.0700 0.0476
N2 N 0.5204(2) -0.0219(2) 0.1859(2)
N1B N 0.44257(16) -0.1646(2) 0.28076(14)
C1B C 0.4249(2) -0.1364(3) 0.33046(18)
C2B C 0.4218(2) -0.2341(3) 0.26146(19)
H1B H 0.4317 -0.2534 0.2262
C3B C 0.3883(3) -0.1798(4) 0.3633(2)
C4B C 0.4458(2) -0.0607(3) 0.3482(2)
C5B C 0.3854(3) -0.2806(4) 0.2915(3)
H2B H 0.3717 -0.3299 0.2766
C6B C 0.3705(3) -0.2537(5) 0.3419(3)
H3B H 0.3477 -0.2852 0.3629
C7B C 0.4312(3) -0.0274(5) 0.4010(3)
C8B C 0.5035(3) 0.0488(4) 0.3308(4)
H4B H 0.5280 0.0749 0.3080
C9B C 0.3730(4) -0.1439(7) 0.4157(3)
H5B H 0.3485 -0.1710 0.4379
C10B C 0.4909(4) 0.0842(5) 0.3843(4)
H6B H 0.5072 0.1337 0.3961
C11B C 0.3938(5) -0.0722(6) 0.4325(3)
H7B H 0.3832 -0.0507 0.4667
C12B C 0.4553(5) 0.0463(6) 0.4179(4)
H8B H 0.4471 0.0700 0.4524
N2B N 0.4796(2) -0.0219(2) 0.3141(2)
Mo1 Mo 0.212276(12) 0.173261(13) 0.446386(10)
Mo2 Mo 0.287372(13) 0.311268(14) 0.397021(11)
Mo3 Mo 0.178009(13) 0.433240(15) 0.426981(12)
Mo4 Mo 0.396170(13) 0.208190(14) 0.523900(12)
O1 O 0.29842(10) 0.20300(11) 0.42830(9)
O2 O 0.20835(10) 0.29765(11) 0.45192(9)
O3 O 0.11823(11) 0.39914(12) 0.47344(11)
O4 O 0.23952(11) 0.08010(11) 0.47113(9)
O5 O 0.14752(10) 0.18712(10) 0.49468(9)
O6 O 0.26601(11) 0.41491(11) 0.41063(9)
O7 O 0.15230(11) 0.16404(12) 0.37118(9)
O8 O 0.36546(12) 0.32262(12) 0.38155(11)
O9 O 0.22453(12) 0.29346(13) 0.32405(10)
O10 O 0.44836(12) 0.22692(14) 0.60088(12)
O11 O 0.12084(13) 0.41856(15) 0.35043(11)
O12 O 0.17885(13) 0.52944(13) 0.43810(12)
O13 O 0.45279(13) 0.21082(14) 0.48115(13)
Mo1E Mo 0.287724(12) 0.326739(13) 0.553614(10)
Mo2E Mo 0.212628(13) 0.188732(14) 0.602979(11)
Mo3E Mo 0.321991(13) 0.066760(15) 0.573019(12)
Mo4E Mo 0.103830(13) 0.291810(14) 0.476100(12)
O1E O 0.20158(10) 0.29700(11) 0.57170(9)
O2E O 0.29165(10) 0.20235(11) 0.54808(9)
O3E O 0.38177(11) 0.10086(12) 0.52656(11)
O4E O 0.26048(11) 0.41990(11) 0.52887(9)
O5E O 0.35248(10) 0.31288(10) 0.50532(9)
O6E O 0.23399(11) 0.08509(11) 0.58937(9)
O7E O 0.34770(11) 0.33596(12) 0.62882(9)
O8E O 0.13454(12) 0.17738(12) 0.61845(11)
O9E O 0.27547(12) 0.20654(13) 0.67595(10)
O10E O 0.05164(12) 0.27308(14) 0.39912(12)
O11E O 0.37916(13) 0.08144(15) 0.64957(11)
O12E O 0.32115(13) -0.02944(13) 0.56190(12)
O13E O 0.04721(13) 0.28918(14) 0.51885(13)
Cu2 Cu 0.0000 1.03269(4) 0.7500
Cu3 Cu 0.13266(3) 0.82063(3) 0.33404(2)
N3 N 0.15507(17) 0.72043(16) 0.30149(13)
N4 N 0.02252(14) 0.99372(16) 0.67653(12)
C13 C 0.20633(18) 0.59223(18) 0.25420(15)
C14 C 0.1742(2) 0.65294(19) 0.21447(15)
H9 H 0.1698 0.6523 0.1714
N5 N 0.30780(15) 0.40774(15) 0.18978(13)
C15 C 0.26878(17) 0.39500(18) 0.22801(14)
H10 H 0.2645 0.3449 0.2403
N6 N 0.11413(16) 0.85060(17) 0.41390(12)
C16 C 0.05916(16) 0.93854(17) 0.57265(14)
C17 C 0.2772(2) 0.5407(2) 0.18994(18)
C18 C 0.1487(2) 0.71409(19) 0.23952(15)
H11 H 0.1258 0.7533 0.2118
C19 C 0.23455(17) 0.45198(17) 0.25026(14)
C20 C 0.23876(18) 0.52706(18) 0.23087(15)
C21 C 0.0744(2) 1.0264(2) 0.65878(17)
H12 H 0.0982 1.0689 0.6815
C22 C 0.1847(2) 0.6604(2) 0.33924(16)
H13 H 0.1885 0.6623 0.3822
C23 C 0.07841(16) 0.90792(17) 0.51767(14)
C24 C 0.09415(19) 1.0000(2) 0.60851(16)
H14 H 0.1313 1.0237 0.5988
C25 C 0.2095(2) 0.59650(19) 0.31735(15)
H15 H 0.2286 0.5560 0.3451
C26 C 0.0505(2) 0.8360(2) 0.42050(17)
H16 H 0.0177 0.8059 0.3896
C27 C -0.0105(2) 0.9342(2) 0.6423(2)
H17 H -0.0461 0.9100 0.6540
C28 C 0.03082(19) 0.8632(2) 0.47090(16)
H18 H -0.0142 0.8514 0.4732
C29 C 0.16073(19) 0.8937(2) 0.46014(16)
H19 H 0.2058 0.9038 0.4574
C30 C 0.0046(2) 0.9057(2) 0.59025(19)
H20 H -0.0216 0.8647 0.5671
C31 C 0.14433(18) 0.9232(2) 0.51116(16)
H21 H 0.1777 0.9536 0.5413
C32 C 0.3110(2) 0.4802(2) 0.17139(17)
H22 H 0.3374 0.4905 0.1447
Cl1 Cl 0.0000 1.16589(7) 0.7500
Cu3B Cu -0.13266(3) 0.82063(3) 1.16596(2)
Cu3C Cu 0.36734(3) 0.32063(3) 0.16596(2)
Cu3F Cu 0.13266(3) 1.17937(3) 0.83404(2)
Cu3D Cu -0.13266(3) 1.17937(3) 0.66596(2)
Cu3C_2 Cu 0.36734(3) 1.32063(3) 0.16596(2)
N3C N 0.34493(17) 1.22043(16) 0.19851(13)
N3B N -0.15507(17) 0.72043(16) 1.19851(13)
N4B N -0.02252(14) 0.99372(16) 0.82347(12)
C13C C 0.29367(18) 1.09223(18) 0.24580(15)
C14C C 0.3258(2) 1.15294(19) 0.28553(15)
H9C H 0.3302 1.1523 0.3286
N5C N 0.19220(15) 0.90774(15) 0.31022(13)
N5A N -0.19220(15) 0.90774(15) 1.18978(13)
C15C C 0.23122(17) 0.89500(18) 0.27199(14)
H10C H 0.2355 0.8449 0.2597
N6B N -0.11413(16) 0.85060(17) 1.08610(12)
C16B C -0.05916(16) 0.93854(17) 0.92735(14)
C17C C 0.2228(2) 1.0407(2) 0.31006(18)
C18C C 0.3513(2) 1.21409(19) 0.26048(15)
H11C H 0.3742 1.2533 0.2882
C19C C 0.26545(17) 0.95198(17) 0.24974(14)
C20C C 0.26124(18) 1.02706(18) 0.26913(15)
C21B C -0.0744(2) 1.0264(2) 0.84122(17)
H12B H -0.0982 1.0689 0.8185
C22C C 0.3153(2) 1.1604(2) 0.16076(16)
H13C H 0.3115 1.1623 0.1178
C23B C -0.07841(16) 0.90792(17) 0.98233(14)
C24B C -0.09415(19) 1.0000(2) 0.89149(16)
H14B H -0.1313 1.0237 0.9012
C25C C 0.2905(2) 1.09650(19) 0.18265(15)
H15C H 0.2714 1.0560 0.1549
C26B C -0.0505(2) 0.8360(2) 1.07950(17)
H16B H -0.0177 0.8059 1.1104
C27B C 0.0105(2) 0.9342(2) 0.8577(2)
H17B H 0.0461 0.9100 0.8460
C28B C -0.03082(19) 0.8632(2) 1.02910(16)
H18B H 0.0142 0.8514 1.0268
C29B C -0.16073(19) 0.8937(2) 1.03986(16)
H19B H -0.2058 0.9038 1.0426
C30B C -0.0046(2) 0.9057(2) 0.90975(19)
H20B H 0.0216 0.8647 0.9329
C31B C -0.14433(18) 0.9232(2) 0.98884(16)
H21B H -0.1777 0.9536 0.9587
C32C C 0.1890(2) 0.9802(2) 0.32861(17)
H22C H 0.1626 0.9905 0.3553
Cl1F Cl 0.0000 0.83411(7) 0.2500
Cl1F_2 Cl 0.0000 0.83411(7) 1.2500
loop_
_geom_bond_atom_site_label_1
_geom_bond_atom_site_label_2
_geom_bond_site_symmetry_1
_geom_bond_site_symmetry_2
Cu1 N1 1_555 1_555
N1 C1 1_555 1_555
C1 C3 1_555 1_555
C2 N1 1_555 1_555
H1 C2 1_555 1_555
C3 C6 1_555 1_555
C4 C1 1_555 1_555
C5 C2 1_555 1_555
H2 C5 1_555 1_555
C6 C5 1_555 1_555
H3 C6 1_555 1_555
C7 C4 1_555 1_555
C8 H4 1_555 1_555
C9 C3 1_555 1_555
H5 C9 1_555 1_555
C10 C8 1_555 1_555
H6 C10 1_555 1_555
C11 C7 1_555 1_555
H7 C11 1_555 1_555
C12 C7 1_555 1_555
H8 C12 1_555 1_555
N2 Cu1 1_555 1_555
Mo1 O1 1_555 1_555
Mo2 O1 1_555 1_555
Mo3 O2 1_555 1_555
Mo4 O1 1_555 1_555
O2 Mo1 1_555 1_555
O3 Mo3 1_555 1_555
O4 Mo1 1_555 1_555
O5 Mo1 1_555 1_555
O6 Mo2 1_555 1_555
O7 Mo1 1_555 1_555
O8 Mo2 1_555 1_555
O9 Mo2 1_555 1_555
O10 Mo4 1_555 1_555
O11 Mo3 1_555 1_555
O12 Mo3 1_555 1_555
O13 Mo4 1_555 1_555
Cu2 N4 1_555 1_555
Cu3 N3 1_555 1_555
N3 C18 1_555 1_555
N4 C21 1_555 1_555
C13 C14 1_555 1_555
C14 H9 1_555 1_555
N5 C15 1_555 1_555
C15 H10 1_555 1_555
N6 Cu3 1_555 1_555
C16 C23 1_555 1_555
C17 C20 1_555 1_555
C18 C14 1_555 1_555
H11 C18 1_555 1_555
C19 C15 1_555 1_555
C20 C13 1_555 1_555
C21 H12 1_555 1_555
C22 N3 1_555 1_555
H13 C22 1_555 1_555
C23 C28 1_555 1_555
C24 C16 1_555 1_555
H14 C24 1_555 1_555
C25 C13 1_555 1_555
H15 C25 1_555 1_555
C26 N6 1_555 1_555
H16 C26 1_555 1_555
C27 N4 1_555 1_555
H17 C27 1_555 1_555
C28 C26 1_555 1_555
H18 C28 1_555 1_555
C29 N6 1_555 1_555
H19 C29 1_555 1_555
C30 C16 1_555 1_555
H20 C30 1_555 1_555
C31 C23 1_555 1_555
H21 C31 1_555 1_555
C32 N5 1_555 1_555
H22 C32 1_555 1_555
Cl1 Cu2 1_555 1_555
N1B Cu1 1_555 1_555
C1B N1B 1_555 1_555
C2B N1B 1_555 1_555
H1B C2B 1_555 1_555
C3B C1B 1_555 1_555
C4B C1B 1_555 1_555
C5B C2B 1_555 1_555
H2B C5B 1_555 1_555
C6B C3B 1_555 1_555
H3B C6B 1_555 1_555
C7B C4B 1_555 1_555
C8B H4B 1_555 1_555
C9B C3B 1_555 1_555
H5B C9B 1_555 1_555
C10B C8B 1_555 1_555
H6B C10B 1_555 1_555
C11B C7B 1_555 1_555
H7B C11B 1_555 1_555
C12B C7B 1_555 1_555
H8B C12B 1_555 1_555
N2B Cu1 1_555 1_555
Mo1E O2 1_555 1_555
Mo2E O5 1_555 1_555
Mo3E O4 1_555 1_555
Mo4E O2 1_555 1_555
O1E Mo1E 1_555 1_555
O2E Mo1 1_555 1_555
O3E Mo4 1_555 1_555
O4E Mo3 1_555 1_555
O5E Mo2 1_555 1_555
O6E Mo2E 1_555 1_555
O7E Mo1E 1_555 1_555
O8E Mo2E 1_555 1_555
O9E Mo2E 1_555 1_555
O10E Mo4E 1_555 1_555
O11E Mo3E 1_555 1_555
O12E Mo3E 1_555 1_555
O13E Mo4E 1_555 1_555
Cu3B N3B 1_555 1_555
Cu3C N5 1_555 1_555
Cu3F Cl1 1_555 1_555
Cu3D Cl1 1_555 1_555
Cu3C_2 N3C 1_555 1_555
N3C C18C 1_555 1_555
N4B Cu2 1_555 1_555
C13C C14C 1_555 1_555
C14C H9C 1_555 1_555
N5C Cu3 1_555 1_555
N5A Cu3B 1_555 1_555
C15C N5C 1_555 1_555
H10C C15C 1_555 1_555
N6B Cu3B 1_555 1_555
C16B C23B 1_555 1_555
C17C C20C 1_555 1_555
C18C C14C 1_555 1_555
H11C C18C 1_555 1_555
C19C C15C 1_555 1_555
C20C C13C 1_555 1_555
C21B N4B 1_555 1_555
H12B C21B 1_555 1_555
C22C N3C 1_555 1_555
H13C C22C 1_555 1_555
C23B C28B 1_555 1_555
C24B C16B 1_555 1_555
H14B C24B 1_555 1_555
C25C C13C 1_555 1_555
H15C C25C 1_555 1_555
C26B N6B 1_555 1_555
H16B C26B 1_555 1_555
C27B N4B 1_555 1_555
H17B C27B 1_555 1_555
C28B C26B 1_555 1_555
H18B C28B 1_555 1_555
C29B N6B 1_555 1_555
H19B C29B 1_555 1_555
C30B C16B 1_555 1_555
H20B C30B 1_555 1_555
C31B C23B 1_555 1_555
H21B C31B 1_555 1_555
C32C N5C 1_555 1_555
H22C C32C 1_555 1_555
Cl1F Cu3 1_555 1_555
Cl1F_2 Cu3B 1_555 1_555
C4 N2 1_555 1_555
C8 N2 1_555 1_555
C9 C11 1_555 1_555
C10 C12 1_555 1_555
Mo2 O2 1_555 1_555
Mo3 O6 1_555 1_555
Mo4 O2E 1_555 1_555
Mo4 O5E 1_555 1_555
O3 Mo4E 1_555 1_555
O5 Mo4E 1_555 1_555
C17 C32 1_555 1_555
C19 C20 1_555 1_555
C21 C24 1_555 1_555
C22 C25 1_555 1_555
C27 C30 1_555 1_555
C29 C31 1_555 1_555
C4B N2B 1_555 1_555
C5B C6B 1_555 1_555
C8B N2B 1_555 1_555
C9B C11B 1_555 1_555
C10B C12B 1_555 1_555
Mo1E O2E 1_555 1_555
Mo1E O4E 1_555 1_555
Mo1E O5E 1_555 1_555
Mo2E O1E 1_555 1_555
Mo2E O2E 1_555 1_555
Mo3E O2E 1_555 1_555
Mo3E O3E 1_555 1_555
Mo3E O6E 1_555 1_555
Mo4E O1E 1_555 1_555
C17C C32C 1_555 1_555
C19C C20C 1_555 1_555
C21B C24B 1_555 1_555
C22C C25C 1_555 1_555
C27B C30B 1_555 1_555
C29B C31B 1_555 1_555

#END
