
#######################################################################
#
#                 Cambridge Crystallographic Data Centre
#                                CCDC 
#
#######################################################################
#
# If this CIF has been generated from an entry in the Cambridge 
# Structural Database, then it will include bibliographic, chemical, 
# crystal, experimental, refinement or atomic coordinate data resulting 
# from the CCDC's data processing and validation procedures.
#
#######################################################################

data_NETYIV01
_symmetry_cell_setting           monoclinic
_symmetry_space_group_name_H-M   'C 2/c'
_symmetry_Int_Tables_number      15
_space_group_name_Hall           '-C 2yn'
loop_
_symmetry_equiv_pos_site_id
_symmetry_equiv_pos_as_xyz
1 x,y,z
2 -x,y,1/2-z
3 1/2+x,1/2+y,z
4 1/2-x,1/2+y,1/2-z
5 -x,-y,-z
6 x,-y,1/2+z
7 1/2-x,1/2-y,-z
8 1/2+x,1/2-y,1/2+z
_cell_length_a                   19.7595(7)
_cell_length_b                   17.5176(7)
_cell_length_c                   22.1610(8)
_cell_angle_alpha                90
_cell_angle_beta                 109.7859(19)
_cell_angle_gamma                90
_cell_volume                     7217.93
loop_
_atom_site_label
_atom_site_type_symbol
_atom_site_fract_x
_atom_site_fract_y
_atom_site_fract_z
Mo1 Mo 0.212406(17) 0.173189(18) 0.446427(15)
O1 O 0.15269(13) 0.16421(14) 0.37153(12)
O2 O 0.14753(12) 0.18729(13) 0.49469(11)
O3 O 0.23942(13) 0.08033(13) 0.47121(12)
O4 O 0.20825(12) 0.29740(13) 0.45213(11)
O5 O 0.29824(13) 0.20320(13) 0.42804(12)
Mo2 Mo 0.212642(18) 0.188640(18) 0.602961(15)
Mo3 Mo 0.103836(18) 0.291741(19) 0.476126(17)
Mo4 Mo 0.322049(18) 0.066683(19) 0.573093(16)
O6 O 0.27509(14) 0.20637(15) 0.67558(12)
O7 O 0.13497(14) 0.17746(15) 0.61860(12)
O8 O 0.23379(13) 0.08492(14) 0.58941(12)
O9 O 0.11818(13) 0.39866(14) 0.47337(13)
O10 O 0.05165(14) 0.27304(16) 0.39930(13)
O11 O 0.04723(15) 0.28897(15) 0.51867(15)
O12 O 0.37909(14) 0.08146(17) 0.64983(13)
O13 O 0.32104(15) -0.02908(15) 0.56170(13)
O4F O 0.29175(12) 0.20260(13) 0.54787(11)
Mo2F Mo 0.287358(18) 0.311360(18) 0.397039(15)
Mo1F Mo 0.287594(17) 0.326811(18) 0.553573(15)
Mo4F Mo 0.177951(18) 0.433317(19) 0.426907(16)
Mo3F Mo 0.396164(18) 0.208259(19) 0.523874(17)
O5F O 0.20176(13) 0.29680(13) 0.57196(12)
O9F O 0.38182(13) 0.10134(14) 0.52663(13)
O6F O 0.22491(14) 0.29363(15) 0.32442(12)
O7F O 0.36503(14) 0.32254(15) 0.38140(12)
O8F O 0.26621(13) 0.41508(14) 0.41059(12)
O2F O 0.35247(12) 0.31271(13) 0.50531(11)
O1F O 0.34731(13) 0.33579(14) 0.62847(12)
O3F O 0.26058(13) 0.41967(13) 0.52879(12)
O12F O 0.12091(14) 0.41854(17) 0.35017(13)
O13F O 0.17896(15) 0.52908(15) 0.43830(13)
O10F O 0.44835(14) 0.22696(16) 0.60070(13)
O11F O 0.45277(15) 0.21103(15) 0.48133(15)
N1 N 0.4786(2) 0.0220(3) 0.8135(3)
C1 C 0.5034(3) -0.0480(4) 0.8305(4)
H1 H 0.5287 -0.0732 0.8079
C2 C 0.4913(5) -0.0847(6) 0.8836(5)
H2 H 0.5075 -0.1342 0.8952
C3 C 0.4558(6) -0.0462(7) 0.9167(5)
H3 H 0.4484 -0.0696 0.9515
C4 C 0.4307(4) 0.0262(6) 0.9003(4)
C5 C 0.3939(5) 0.0721(7) 0.9317(4)
H4 H 0.3834 0.0506 0.9658
C6 C 0.3730(4) 0.1450(7) 0.9156(4)
H5 H 0.3487 0.1720 0.9381
C7 C 0.3887(3) 0.1800(5) 0.8636(3)
C8 C 0.3704(3) 0.2538(5) 0.8410(4)
H6 H 0.3473 0.2852 0.8617
C9 C 0.3851(3) 0.2808(4) 0.7905(3)
H7 H 0.3713 0.3299 0.7753
C10 C 0.4213(3) 0.2340(3) 0.7612(2)
H8 H 0.4311 0.2528 0.7258
N2 N 0.44258(19) 0.1642(2) 0.78088(17)
C11 C 0.4253(3) 0.1365(4) 0.8302(2)
C12 C 0.4458(3) 0.0608(4) 0.8480(3)
Cu1 Cu 0.5000 0.09166(5) 0.7500
N1A N 0.5214(2) 0.0220(3) 0.6865(3)
C1A C 0.4966(3) -0.0480(4) 0.6695(4)
H1A H 0.4713 -0.0732 0.6921
C2A C 0.5087(5) -0.0847(6) 0.6164(5)
H2A H 0.4925 -0.1342 0.6048
C3A C 0.5442(6) -0.0462(7) 0.5833(5)
H3A H 0.5516 -0.0696 0.5485
C4A C 0.5693(4) 0.0262(6) 0.5997(4)
C5A C 0.6061(5) 0.0721(7) 0.5683(4)
H4A H 0.6166 0.0506 0.5342
C6A C 0.6270(4) 0.1450(7) 0.5844(4)
H5A H 0.6513 0.1720 0.5619
C7A C 0.6113(3) 0.1800(5) 0.6364(3)
C8A C 0.6296(3) 0.2538(5) 0.6590(4)
H6A H 0.6527 0.2852 0.6383
C9A C 0.6149(3) 0.2808(4) 0.7095(3)
H7A H 0.6287 0.3299 0.7247
C10A C 0.5787(3) 0.2340(3) 0.7388(2)
H8A H 0.5689 0.2528 0.7742
N2A N 0.55742(19) 0.1642(2) 0.71912(17)
C11A C 0.5747(3) 0.1365(4) 0.6698(2)
C12A C 0.5542(3) 0.0608(4) 0.6520(3)
Cu2 Cu -0.13276(3) -0.17932(3) 1.16592(3)
C13 C -0.2902(2) 0.0967(2) 1.31732(19)
H9 H -0.2704 0.0567 1.3454
C14 C -0.3154(2) 0.1607(2) 1.3390(2)
H10 H -0.3116 0.1627 1.3819
N3 N -0.3451(2) 0.22034(19) 1.30140(16)
C15 C -0.3513(2) 0.2145(2) 1.24002(19)
H11 H -0.3741 0.2538 1.2125
C16 C -0.3257(2) 0.1531(2) 1.2147(2)
H12 H -0.3296 0.1529 1.1717
C17 C -0.2940(2) 0.0916(2) 1.2542(2)
C18 C -0.2614(2) 0.0269(2) 1.23086(18)
C19 C -0.2234(2) 0.0396(2) 1.1896(2)
H13 H -0.2208 0.0885 1.1742
C20 C -0.1895(3) -0.0201(2) 1.1715(2)
H14 H -0.1631 -0.0096 1.1449
N4 N -0.19227(18) -0.09242(19) 1.18988(16)
C21 C -0.2313(2) -0.1043(2) 1.22786(19)
H15 H -0.2357 -0.1542 1.2403
C22 C -0.2655(2) -0.0474(2) 1.25000(18)
H16 H -0.2908 -0.0591 1.2773
C23 C -0.5944(2) 0.4994(2) 1.89100(19)
H17 H -0.6321 0.5228 1.9001
C24 C -0.6602(2) 0.3931(3) 2.0403(2)
H18 H -0.7052 0.4032 2.0432
C25 C -0.6444(2) 0.4224(3) 1.9890(2)
C26 C -0.5786(2) 0.4079(2) 1.98208(18)
C27 C -0.5593(2) 0.4385(2) 1.92743(18)
C28 C -0.5046(2) 0.4065(3) 1.9101(2)
H19 H -0.4783 0.3658 1.9335
C29 C -0.5509(3) 0.3367(2) 2.0788(2)
H20 H -0.5180 0.3067 2.1097
C30 C -0.5313(2) 0.3630(2) 2.0292(2)
Cl1 Cl -0.5000 0.33427(9) 2.2500
C31 C -0.4888(3) 0.4344(3) 1.8583(2)
N5 N -0.52289(18) 0.49392(19) 1.82322(15)
H21 H -0.4863 0.3509 2.0270
C32 C -0.5743(2) 0.5258(2) 1.8413(2)
N6 N -0.6140(2) 0.3507(2) 2.08621(16)
Cu3 Cu -0.5000 0.53255(5) 1.7500
H22 H -0.5979 0.5685 1.8189
H23 H -0.4527 0.4107 1.8471
H24 H -0.6782 0.4522 1.9587
Cu2C Cu -0.36724(3) 0.32068(3) 1.33408(3)
C14C C -0.1846(2) 0.6607(2) 1.1610(2)
N3C N -0.1549(2) 0.72034(19) 1.19860(16)
C15C C -0.1487(2) 0.7145(2) 1.25998(19)
N4B N -0.69227(18) 0.40758(19) 2.18988(16)
C16C C -0.1743(2) 0.6531(2) 1.2853(2)
C20C C -0.3105(3) 0.4799(2) 1.3285(2)
H14C H -0.3369 0.4904 1.3551
Cu2_2 Cu -0.13276(3) 0.82068(3) 1.16592(3)
N4C N -0.30773(18) 0.40758(19) 1.31012(16)
C13C C -0.2098(2) 0.5967(2) 1.18268(19)
C27A C -0.4407(2) 0.4385(2) 1.57257(18)
C23A C -0.4056(2) 0.4994(2) 1.60900(19)
C17C C -0.2060(2) 0.5916(2) 1.2458(2)
Cu2B Cu -0.63276(3) 0.32068(3) 2.16592(3)
N3A N -0.6549(2) 0.22034(19) 2.19860(16)
H11C H -0.1259 0.7538 1.2875
H12C H -0.1704 0.6529 1.3283
H9C H -0.2296 0.5567 1.1546
Cl1D Cl -0.5000 0.66573(9) 1.7500
H17A H -0.3679 0.5228 1.5999
C21C C -0.2687(2) 0.3957(2) 1.27214(19)
H15C H -0.2643 0.3458 1.2597
C22C C -0.2345(2) 0.4526(2) 1.25000(18)
H16C H -0.2092 0.4409 1.2227
N5A N -0.47711(18) 0.49392(19) 1.67678(15)
C32A C -0.4257(2) 0.5258(2) 1.6587(2)
C18C C -0.2386(2) 0.5269(2) 1.26914(18)
C19C C -0.2766(2) 0.5396(2) 1.3104(2)
H13C H -0.2792 0.5885 1.3258
H10C H -0.1884 0.6627 1.1181
C28A C -0.4954(2) 0.4065(3) 1.5899(2)
H19A H -0.5217 0.3658 1.5665
C26A C -0.4214(2) 0.4079(2) 1.51792(18)
Cu2G Cu -0.63276(3) 0.67932(3) 1.66592(3)
H22A H -0.4021 0.5685 1.6811
Cu2F Cu -0.36724(3) 0.67932(3) 1.83408(3)
N6A N -0.3860(2) 0.3507(2) 1.41379(16)
C29A C -0.4491(3) 0.3367(2) 1.4212(2)
H20A H -0.4820 0.3067 1.3903
C30A C -0.4687(2) 0.3630(2) 1.4708(2)
C25A C -0.3556(2) 0.4224(3) 1.5110(2)
H24A H -0.3218 0.4522 1.5413
C24A C -0.3398(2) 0.3931(3) 1.4597(2)
Cl1_2 Cl -0.5000 0.33427(9) 1.2500
H21A H -0.5137 0.3509 1.4730
C31A C -0.5112(3) 0.4344(3) 1.6417(2)
H23A H -0.5473 0.4107 1.6529
H18A H -0.2948 0.4032 1.4568
loop_
_geom_bond_atom_site_label_1
_geom_bond_atom_site_label_2
_geom_bond_site_symmetry_1
_geom_bond_site_symmetry_2
Mo1 O1 1_555 1_555
O2 Mo1 1_555 1_555
O3 Mo1 1_555 1_555
O4 Mo1 1_555 1_555
O5 Mo1 1_555 1_555
Mo2 O2 1_555 1_555
Mo3 O2 1_555 1_555
Mo4 O3 1_555 1_555
O6 Mo2 1_555 1_555
O7 Mo2 1_555 1_555
O8 Mo2 1_555 1_555
O9 Mo3 1_555 1_555
O10 Mo3 1_555 1_555
O11 Mo3 1_555 1_555
O12 Mo4 1_555 1_555
O13 Mo4 1_555 1_555
N1 C1 1_555 1_555
C1 H1 1_555 1_555
C2 C1 1_555 1_555
H2 C2 1_555 1_555
C3 C2 1_555 1_555
H3 C3 1_555 1_555
C4 C3 1_555 1_555
C5 C4 1_555 1_555
H4 C5 1_555 1_555
C6 C5 1_555 1_555
H5 C6 1_555 1_555
C7 C6 1_555 1_555
C8 C7 1_555 1_555
H6 C8 1_555 1_555
C9 C8 1_555 1_555
H7 C9 1_555 1_555
C10 C9 1_555 1_555
H8 C10 1_555 1_555
N2 C10 1_555 1_555
C11 C7 1_555 1_555
C12 N1 1_555 1_555
Cu1 N1 1_555 1_555
Cu2 N4 1_555 1_555
C13 H9 1_555 1_555
C14 C13 1_555 1_555
H10 C14 1_555 1_555
N3 C14 1_555 1_555
C15 N3 1_555 1_555
H11 C15 1_555 1_555
C16 C15 1_555 1_555
H12 C16 1_555 1_555
C17 C13 1_555 1_555
C18 C17 1_555 1_555
C19 C18 1_555 1_555
H13 C19 1_555 1_555
C20 C19 1_555 1_555
H14 C20 1_555 1_555
N4 C20 1_555 1_555
C21 N4 1_555 1_555
H15 C21 1_555 1_555
C22 C18 1_555 1_555
H16 C22 1_555 1_555
C23 H17 1_555 1_555
C24 H18 1_555 1_555
C25 C24 1_555 1_555
C26 C25 1_555 1_555
C27 C23 1_555 1_555
C28 C27 1_555 1_555
H19 C28 1_555 1_555
C29 H20 1_555 1_555
C30 C26 1_555 1_555
Cl1 Cu2B 1_555 1_555
C31 C28 1_555 1_555
N5 C31 1_555 1_555
H21 C30 1_555 1_555
C32 C23 1_555 1_555
N6 C24 1_555 1_555
Cu3 N5 1_555 1_555
H22 C32 1_555 1_555
H23 C31 1_555 1_555
H24 C25 1_555 1_555
O4F Mo1 1_555 1_555
Mo2F O4 1_555 1_555
Mo1F O4 1_555 1_555
Mo4F O4 1_555 1_555
Mo3F O5 1_555 1_555
O5F Mo2 1_555 1_555
O9F Mo4 1_555 1_555
O6F Mo2F 1_555 1_555
O7F Mo2F 1_555 1_555
O8F Mo2F 1_555 1_555
O2F Mo2F 1_555 1_555
O1F Mo1F 1_555 1_555
O3F Mo1F 1_555 1_555
O12F Mo4F 1_555 1_555
O13F Mo4F 1_555 1_555
O10F Mo3F 1_555 1_555
O11F Mo3F 1_555 1_555
N1A Cu1 1_555 1_555
C1A N1A 1_555 1_555
H1A C1A 1_555 1_555
C2A C1A 1_555 1_555
H2A C2A 1_555 1_555
C3A C2A 1_555 1_555
H3A C3A 1_555 1_555
C4A C3A 1_555 1_555
C5A C4A 1_555 1_555
H4A C5A 1_555 1_555
C6A C5A 1_555 1_555
H5A C6A 1_555 1_555
C7A C6A 1_555 1_555
C8A C7A 1_555 1_555
H6A C8A 1_555 1_555
C9A C8A 1_555 1_555
H7A C9A 1_555 1_555
C10A C9A 1_555 1_555
H8A C10A 1_555 1_555
N2A Cu1 1_555 1_555
C11A C7A 1_555 1_555
C12A N1A 1_555 1_555
Cu2C N3 1_555 1_555
C14C N3C 1_555 1_555
N3C C15C 1_555 1_555
C15C C16C 1_555 1_555
N4B Cu2B 1_555 1_555
C16C C17C 1_555 1_555
C20C H14C 1_555 1_555
Cu2_2 N3C 1_555 1_555
N4C Cu2C 1_555 1_555
C13C C14C 1_555 1_555
C27A C23A 1_555 1_555
C23A H17A 1_555 1_555
C17C C13C 1_555 1_555
Cu2B N6 1_555 1_555
N3A Cu2B 1_555 1_555
H11C C15C 1_555 1_555
H12C C16C 1_555 1_555
H9C C13C 1_555 1_555
Cl1D Cu3 1_555 1_555
C21C N4C 1_555 1_555
H15C C21C 1_555 1_555
C22C C21C 1_555 1_555
H16C C22C 1_555 1_555
N5A Cu3 1_555 1_555
C32A C23A 1_555 1_555
C18C C17C 1_555 1_555
C19C C20C 1_555 1_555
H13C C19C 1_555 1_555
H10C C14C 1_555 1_555
C28A C27A 1_555 1_555
H19A C28A 1_555 1_555
C26A C27A 1_555 1_555
Cu2G Cl1D 1_555 1_555
H22A C32A 1_555 1_555
Cu2F Cl1D 1_555 1_555
N6A Cu2C 1_555 1_555
C29A N6A 1_555 1_555
H20A C29A 1_555 1_555
C30A C26A 1_555 1_555
C25A C26A 1_555 1_555
H24A C25A 1_555 1_555
C24A N6A 1_555 1_555
Cl1_2 Cu2C 1_555 1_555
H21A C30A 1_555 1_555
C31A N5A 1_555 1_555
H23A C31A 1_555 1_555
H18A C24A 1_555 1_555
O4 Mo3 1_555 1_555
O5 Mo2F 1_555 1_555
Mo2 O4F 1_555 1_555
Mo3 O5F 1_555 1_555
Mo4 O8 1_555 1_555
Mo4 O4F 1_555 1_555
O9 Mo4F 1_555 1_555
C4 C12 1_555 1_555
N2 C11 1_555 1_555
N2 Cu1 1_555 1_555
C11 C12 1_555 1_555
C16 C17 1_555 1_555
C21 C22 1_555 1_555
C26 C27 1_555 1_555
C29 C30 1_555 1_555
C29 N6 1_555 1_555
N5 C32 1_555 1_555
O4F Mo1F 1_555 1_555
O4F Mo3F 1_555 1_555
Mo1F O5F 1_555 1_555
Mo1F O2F 1_555 1_555
Mo4F O8F 1_555 1_555
Mo4F O3F 1_555 1_555
Mo3F O9F 1_555 1_555
Mo3F O2F 1_555 1_555
C4A C12A 1_555 1_555
C10A N2A 1_555 1_555
N2A C11A 1_555 1_555
C11A C12A 1_555 1_555
C20C N4C 1_555 1_555
C22C C18C 1_555 1_555
N5A C32A 1_555 1_555
C18C C19C 1_555 1_555
C28A C31A 1_555 1_555
C29A C30A 1_555 1_555
C25A C24A 1_555 1_555

#END
