
#######################################################################
#
#                 Cambridge Crystallographic Data Centre
#                                CCDC 
#
#######################################################################
#
# If this CIF has been generated from an entry in the Cambridge 
# Structural Database, then it will include bibliographic, chemical, 
# crystal, experimental, refinement or atomic coordinate data resulting 
# from the CCDC's data processing and validation procedures.
#
#######################################################################

data_NEVVIU02
_symmetry_cell_setting           monoclinic
_symmetry_space_group_name_H-M   'C 2/c'
_symmetry_Int_Tables_number      15
_space_group_name_Hall           '-C 2yn'
loop_
_symmetry_equiv_pos_site_id
_symmetry_equiv_pos_as_xyz
1 x,y,z
2 -x,y,1/2-z
3 1/2+x,1/2+y,z
4 1/2-x,1/2+y,1/2-z
5 -x,-y,-z
6 x,-y,1/2+z
7 1/2-x,1/2-y,-z
8 1/2+x,1/2-y,1/2+z
_cell_length_a                   18.102(10)
_cell_length_b                   12.789(7)
_cell_length_c                   10.954(6)
_cell_angle_alpha                90
_cell_angle_beta                 103.535(8)
_cell_angle_gamma                90
_cell_volume                     2465.49
loop_
_atom_site_label
_atom_site_type_symbol
_atom_site_fract_x
_atom_site_fract_y
_atom_site_fract_z
Co1 Co 0.087979(17) 0.03269(3) 0.04456(3)
Co2 Co 0.0000 0.09853(3) 0.2500
O1 O 0.42452(10) 0.48056(14) 0.27778(16)
O2 O 0.36564(11) 0.40664(14) 0.09752(16)
O3 O 0.14854(11) 0.16113(15) 0.13698(17)
O4 O 0.08303(10) 0.21136(15) 0.27761(18)
O5 O -0.02042(10) 0.08825(13) 0.05266(16)
N1 N 0.31552(12) 0.43239(17) 0.38783(19)
C1 C 0.31138(14) 0.39061(19) 0.2732(3)
C2 C 0.25538(15) 0.3217(2) 0.2181(3)
C3 C 0.19905(15) 0.2949(2) 0.2800(3)
C4 C 0.20135(16) 0.3407(3) 0.3949(3)
C5 C 0.26041(17) 0.4081(3) 0.4464(3)
C6 C 0.37213(14) 0.42811(19) 0.2094(3)
C7 C 0.13780(14) 0.2160(2) 0.2261(3)
H1 H 0.2554 0.2940 0.1447
H2 H 0.1666 0.3168 0.4430
H3 H 0.2641 0.4437 0.5246
H4 H -0.0360 0.1460 0.0273
Co1A Co -0.087979(17) 0.03269(3) 0.45544(3)
O1A O -0.42452(10) 0.48056(14) 0.22222(16)
O2A O -0.36564(11) 0.40664(14) 0.40248(16)
O3A O -0.14854(11) 0.16113(15) 0.36302(17)
O4A O -0.08303(10) 0.21136(15) 0.22239(18)
O5A O 0.02042(10) 0.08825(13) 0.44734(16)
N1A N -0.31552(12) 0.43239(17) 0.11217(19)
C1A C -0.31138(14) 0.39061(19) 0.2268(3)
C2A C -0.25538(15) 0.3217(2) 0.2819(3)
C3A C -0.19905(15) 0.2949(2) 0.2200(3)
C4A C -0.20135(16) 0.3407(3) 0.1051(3)
C5A C -0.26041(17) 0.4081(3) 0.0536(3)
C6A C -0.37213(14) 0.42811(19) 0.2906(3)
C7A C -0.13780(14) 0.2160(2) 0.2739(3)
H1A H -0.2554 0.2940 0.3553
H2A H -0.1666 0.3168 0.0570
H3A H -0.2641 0.4437 -0.0246
H4A H 0.0360 0.1460 0.4727
Co1D Co -0.087979(17) -0.03269(3) -0.04456(3)
Co1E Co 0.087979(17) -0.03269(3) 0.54456(3)
Co1B Co -0.412021(17) 0.53269(3) 0.04456(3)
Co1C Co 0.412021(17) 0.53269(3) 0.45544(3)
Co1F Co 0.412021(17) 0.46731(3) -0.04456(3)
Co1G Co -0.412021(17) 0.46731(3) 0.54456(3)
Co2B Co -0.5000 0.59853(3) 0.2500
Co2B_2 Co 0.5000 0.59853(3) 0.2500
O1B O -0.07548(10) -0.01944(14) 0.27778(16)
O1C O 0.07548(10) -0.01944(14) 0.22222(16)
O2F O 0.13436(11) 0.09336(14) -0.09752(16)
O2G O -0.13436(11) 0.09336(14) 0.59752(16)
O5D O 0.02042(10) -0.08825(13) -0.05266(16)
O5E O -0.02042(10) -0.08825(13) 0.55266(16)
N1B N -0.18448(12) -0.06761(17) 0.38783(19)
N1C N 0.18448(12) -0.06761(17) 0.11217(19)
loop_
_geom_bond_atom_site_label_1
_geom_bond_atom_site_label_2
_geom_bond_site_symmetry_1
_geom_bond_site_symmetry_2
Co1 O3 1_555 1_555
Co2 O4 1_555 1_555
O1 C6 1_555 1_555
O2 C6 1_555 1_555
O3 C7 1_555 1_555
O4 C7 1_555 1_555
O5 Co1 1_555 1_555
N1 C1 1_555 1_555
C1 C2 1_555 1_555
C2 C3 1_555 1_555
C3 C4 1_555 1_555
C4 C5 1_555 1_555
C5 N1 1_555 1_555
C6 C1 1_555 1_555
C7 C3 1_555 1_555
H1 C2 1_555 1_555
H2 C4 1_555 1_555
H3 C5 1_555 1_555
H4 O5 1_555 1_555
Co1A O3A 1_555 1_555
O1A C6A 1_555 1_555
O2A C6A 1_555 1_555
O3A C7A 1_555 1_555
O4A Co2 1_555 1_555
O5A Co2 1_555 1_555
N1A C1A 1_555 1_555
C1A C2A 1_555 1_555
C2A C3A 1_555 1_555
C3A C4A 1_555 1_555
C4A C5A 1_555 1_555
C5A N1A 1_555 1_555
C6A C1A 1_555 1_555
C7A O4A 1_555 1_555
H1A C2A 1_555 1_555
H2A C4A 1_555 1_555
H3A C5A 1_555 1_555
H4A O5A 1_555 1_555
Co1D O5 1_555 1_555
Co1E O5A 1_555 1_555
Co1B O1A 1_555 1_555
Co1C O1 1_555 1_555
Co1F O2 1_555 1_555
Co1G O2A 1_555 1_555
Co2B O1A 1_555 1_555
Co2B_2 O1 1_555 1_555
O1B Co2 1_555 1_555
O1C Co1 1_555 1_555
O2F Co1 1_555 1_555
O2G Co1A 1_555 1_555
O5D Co1 1_555 1_555
O5E Co1A 1_555 1_555
N1B Co1A 1_555 1_555
N1C Co1 1_555 1_555
Co2 O5 1_555 1_555
Co2 O1C 1_555 1_555
N1 Co1C 1_555 1_555
Co1A O5A 1_555 1_555
Co1A O1B 1_555 1_555
N1A Co1B 1_555 1_555
C3A C7A 1_555 1_555
Co1D O5D 1_555 1_555
Co1E O5E 1_555 1_555

#END
