
#######################################################################
#
#                 Cambridge Crystallographic Data Centre
#                                CCDC 
#
#######################################################################
#
# If this CIF has been generated from an entry in the Cambridge 
# Structural Database, then it will include bibliographic, chemical, 
# crystal, experimental, refinement or atomic coordinate data resulting 
# from the CCDC's data processing and validation procedures.
#
#######################################################################

data_NEVVIU01
_symmetry_cell_setting           monoclinic
_symmetry_space_group_name_H-M   'C 2/c'
_symmetry_Int_Tables_number      15
_space_group_name_Hall           '-C 2yn'
loop_
_symmetry_equiv_pos_site_id
_symmetry_equiv_pos_as_xyz
1 x,y,z
2 -x,y,1/2-z
3 1/2+x,1/2+y,z
4 1/2-x,1/2+y,1/2-z
5 -x,-y,-z
6 x,-y,1/2+z
7 1/2-x,1/2-y,-z
8 1/2+x,1/2-y,1/2+z
_cell_length_a                   18.217(13)
_cell_length_b                   12.610(9)
_cell_length_c                   10.976(8)
_cell_angle_alpha                90
_cell_angle_beta                 103.195(10)
_cell_angle_gamma                90
_cell_volume                     2454.8
loop_
_atom_site_label
_atom_site_type_symbol
_atom_site_fract_x
_atom_site_fract_y
_atom_site_fract_z
Co1 Co 0.087485(14) 0.03230(2) 0.04392(2)
Co2 Co 0.0000 0.09888(3) 0.2500
O1 O 0.42530(8) 0.47968(11) 0.27886(13)
O2 O 0.36597(8) 0.40566(11) 0.09799(13)
O3 O 0.14820(8) 0.16098(12) 0.13713(13)
O4 O 0.08265(8) 0.21320(11) 0.27794(14)
O5 O -0.02037(8) 0.08912(11) 0.05309(13)
N1 N 0.31636(9) 0.43147(14) 0.39006(16)
C1 C 0.31193(11) 0.38994(16) 0.27483(18)
C2 C 0.25529(12) 0.32089(16) 0.21838(19)
C3 C 0.19926(11) 0.29521(16) 0.28099(19)
C4 C 0.20193(12) 0.34119(17) 0.3972(2)
C5 C 0.26138(12) 0.40773(17) 0.4487(2)
C6 C 0.37289(11) 0.42720(15) 0.21051(19)
C7 C 0.13763(11) 0.21640(16) 0.22662(19)
H1 H 0.2531 0.2915 0.1392
H2 H 0.1672 0.3221 0.4456
H3 H 0.2680 0.4362 0.5313
H4 H -0.0368 0.1490 0.0302
Co1A Co -0.087485(14) 0.03230(2) 0.45608(2)
O1A O -0.42530(8) 0.47968(11) 0.22114(13)
O2A O -0.36597(8) 0.40566(11) 0.40201(13)
O3A O -0.14820(8) 0.16098(12) 0.36287(13)
O4A O -0.08265(8) 0.21320(11) 0.22206(14)
O5A O 0.02037(8) 0.08912(11) 0.44691(13)
N1A N -0.31636(9) 0.43147(14) 0.10994(16)
C1A C -0.31193(11) 0.38994(16) 0.22517(18)
C2A C -0.25529(12) 0.32089(16) 0.28162(19)
C3A C -0.19926(11) 0.29521(16) 0.21901(19)
C4A C -0.20193(12) 0.34119(17) 0.1028(2)
C5A C -0.26138(12) 0.40773(17) 0.0513(2)
C6A C -0.37289(11) 0.42720(15) 0.28949(19)
C7A C -0.13763(11) 0.21640(16) 0.27338(19)
H1A H -0.2531 0.2915 0.3608
H2A H -0.1672 0.3221 0.0544
H3A H -0.2680 0.4362 -0.0313
H4A H 0.0368 0.1490 0.4698
Co1D Co -0.087485(14) -0.03230(2) -0.04392(2)
Co1E Co 0.087485(14) -0.03230(2) 0.54392(2)
Co1B Co -0.412515(14) 0.53230(2) 0.04392(2)
Co1C Co 0.412515(14) 0.53230(2) 0.45608(2)
Co1F Co 0.412515(14) 0.46770(2) -0.04392(2)
Co1G Co -0.412515(14) 0.46770(2) 0.54392(2)
Co2B Co -0.5000 0.59888(3) 0.2500
Co2B_2 Co 0.5000 0.59888(3) 0.2500
O1B O -0.07470(8) -0.02032(11) 0.27886(13)
O1C O 0.07470(8) -0.02032(11) 0.22114(13)
O2F O 0.13403(8) 0.09434(11) -0.09799(13)
O2G O -0.13403(8) 0.09434(11) 0.59799(13)
O5D O 0.02037(8) -0.08912(11) -0.05309(13)
O5E O -0.02037(8) -0.08912(11) 0.55309(13)
N1B N -0.18364(9) -0.06853(14) 0.39006(16)
N1C N 0.18364(9) -0.06853(14) 0.10994(16)
loop_
_geom_bond_atom_site_label_1
_geom_bond_atom_site_label_2
_geom_bond_site_symmetry_1
_geom_bond_site_symmetry_2
Co1 O3 1_555 1_555
Co2 O4 1_555 1_555
O1 C6 1_555 1_555
O2 C6 1_555 1_555
O3 C7 1_555 1_555
O4 C7 1_555 1_555
O5 Co1 1_555 1_555
N1 C1 1_555 1_555
C1 C2 1_555 1_555
C2 C3 1_555 1_555
C3 C4 1_555 1_555
C4 C5 1_555 1_555
C5 N1 1_555 1_555
C6 C1 1_555 1_555
C7 C3 1_555 1_555
H1 C2 1_555 1_555
H2 C4 1_555 1_555
H3 C5 1_555 1_555
H4 O5 1_555 1_555
Co1A O3A 1_555 1_555
O1A C6A 1_555 1_555
O2A C6A 1_555 1_555
O3A C7A 1_555 1_555
O4A Co2 1_555 1_555
O5A Co2 1_555 1_555
N1A C1A 1_555 1_555
C1A C2A 1_555 1_555
C2A C3A 1_555 1_555
C3A C4A 1_555 1_555
C4A C5A 1_555 1_555
C5A N1A 1_555 1_555
C6A C1A 1_555 1_555
C7A O4A 1_555 1_555
H1A C2A 1_555 1_555
H2A C4A 1_555 1_555
H3A C5A 1_555 1_555
H4A O5A 1_555 1_555
Co1D O5 1_555 1_555
Co1E O5A 1_555 1_555
Co1B O1A 1_555 1_555
Co1C O1 1_555 1_555
Co1F O2 1_555 1_555
Co1G O2A 1_555 1_555
Co2B O1A 1_555 1_555
Co2B_2 O1 1_555 1_555
O1B Co2 1_555 1_555
O1C Co1 1_555 1_555
O2F Co1 1_555 1_555
O2G Co1A 1_555 1_555
O5D Co1 1_555 1_555
O5E Co1A 1_555 1_555
N1B Co1A 1_555 1_555
N1C Co1 1_555 1_555
Co2 O5 1_555 1_555
Co2 O1C 1_555 1_555
N1 Co1C 1_555 1_555
Co1A O5A 1_555 1_555
Co1A O1B 1_555 1_555
N1A Co1B 1_555 1_555
C3A C7A 1_555 1_555
Co1D O5D 1_555 1_555
Co1E O5E 1_555 1_555

#END
