
#######################################################################
#
#                 Cambridge Crystallographic Data Centre
#                                CCDC 
#
#######################################################################
#
# If this CIF has been generated from an entry in the Cambridge 
# Structural Database, then it will include bibliographic, chemical, 
# crystal, experimental, refinement or atomic coordinate data resulting 
# from the CCDC's data processing and validation procedures.
#
#######################################################################

data_NEYJOS
_symmetry_cell_setting           cubic
_symmetry_space_group_name_H-M   'I a -3 d'
_symmetry_Int_Tables_number      230
_space_group_name_Hall           '-I 4bd 2c 3'
loop_
_symmetry_equiv_pos_site_id
_symmetry_equiv_pos_as_xyz
1 x,y,z
2 1/2-x,-y,1/2+z
3 -x,1/2+y,1/2-z
4 1/2+x,1/2-y,-z
5 z,x,y
6 1/2+z,1/2-x,-y
7 1/2-z,-x,1/2+y
8 -z,1/2+x,1/2-y
9 y,z,x
10 -y,1/2+z,1/2-x
11 1/2+y,1/2-z,-x
12 1/2-y,-z,1/2+x
13 3/4+y,1/4+x,1/4-z
14 3/4-y,3/4-x,3/4-z
15 1/4+y,1/4-x,3/4+z
16 1/4-y,3/4+x,1/4+z
17 3/4+x,1/4+z,1/4-y
18 1/4-x,3/4+z,1/4+y
19 3/4-x,3/4-z,3/4-y
20 1/4+x,1/4-z,3/4+y
21 3/4+z,1/4+y,1/4-x
22 1/4+z,1/4-y,3/4+x
23 1/4-z,3/4+y,1/4+x
24 3/4-z,3/4-y,3/4-x
25 1/2+x,1/2+y,1/2+z
26 -x,1/2-y,z
27 1/2-x,y,-z
28 x,-y,1/2-z
29 1/2+z,1/2+x,1/2+y
30 z,-x,1/2-y
31 -z,1/2-x,y
32 1/2-z,x,-y
33 1/2+y,1/2+z,1/2+x
34 1/2-y,z,-x
35 y,-z,1/2-x
36 -y,1/2-z,x
37 1/4+y,3/4+x,3/4-z
38 1/4-y,1/4-x,1/4-z
39 3/4+y,3/4-x,1/4+z
40 3/4-y,1/4+x,3/4+z
41 1/4+x,3/4+z,3/4-y
42 3/4-x,1/4+z,3/4+y
43 1/4-x,1/4-z,1/4-y
44 3/4+x,3/4-z,1/4+y
45 1/4+z,3/4+y,3/4-x
46 3/4+z,3/4-y,1/4+x
47 3/4-z,1/4+y,3/4+x
48 1/4-z,1/4-y,1/4-x
49 -x,-y,-z
50 1/2+x,y,1/2-z
51 x,1/2-y,1/2+z
52 1/2-x,1/2+y,z
53 -z,-x,-y
54 1/2-z,1/2+x,y
55 1/2+z,x,1/2-y
56 z,1/2-x,1/2+y
57 -y,-z,-x
58 y,1/2-z,1/2+x
59 1/2-y,1/2+z,x
60 1/2+y,z,1/2-x
61 1/4-y,3/4-x,3/4+z
62 1/4+y,1/4+x,1/4+z
63 3/4-y,3/4+x,1/4-z
64 3/4+y,1/4-x,3/4-z
65 1/4-x,3/4-z,3/4+y
66 3/4+x,1/4-z,3/4-y
67 1/4+x,1/4+z,1/4+y
68 3/4-x,3/4+z,1/4-y
69 1/4-z,3/4-y,3/4+x
70 3/4-z,3/4+y,1/4-x
71 3/4+z,1/4-y,3/4-x
72 1/4+z,1/4+y,1/4+x
73 1/2-x,1/2-y,1/2-z
74 x,1/2+y,-z
75 1/2+x,-y,z
76 -x,y,1/2+z
77 1/2-z,1/2-x,1/2-y
78 -z,x,1/2+y
79 z,1/2+x,-y
80 1/2+z,-x,y
81 1/2-y,1/2-z,1/2-x
82 1/2+y,-z,x
83 -y,z,1/2+x
84 y,1/2+z,-x
85 3/4-y,1/4-x,1/4+z
86 3/4+y,3/4+x,3/4+z
87 1/4-y,1/4+x,3/4-z
88 1/4+y,3/4-x,1/4-z
89 3/4-x,1/4-z,1/4+y
90 1/4+x,3/4-z,1/4-y
91 3/4+x,3/4+z,3/4+y
92 1/4-x,1/4+z,3/4-y
93 3/4-z,1/4-y,1/4+x
94 1/4-z,1/4+y,3/4-x
95 1/4+z,3/4-y,1/4-x
96 3/4+z,3/4+y,3/4+x
_cell_length_a                   26.0634(5)
_cell_length_b                   26.0634(5)
_cell_length_c                   26.0634(5)
_cell_angle_alpha                90
_cell_angle_beta                 90
_cell_angle_gamma                90
_cell_volume                     17704.9
loop_
_atom_site_label
_atom_site_type_symbol
_atom_site_fract_x
_atom_site_fract_y
_atom_site_fract_z
Cu1 Cu 0.2500 1.01006(16) 0.0000
N1 N 0.2464(4) 1.0079(4) 0.0728(3)
C1 C 0.2754(5) 1.0384(5) 0.1011(4)
H1 H 0.2969 1.0621 0.0854
C2 C 0.2739(5) 1.0351(5) 0.1550(4)
H2 H 0.2957 1.0553 0.1747
N1KA N 0.2421(4) 1.0036(4) 0.1772(3)
C1KA C 0.2116(5) 0.9746(5) 0.1489(4)
H1KA H 0.1879 0.9531 0.1646
C2KA C 0.2149(5) 0.9761(5) 0.0950(4)
H2KA H 0.1947 0.9543 0.0753
Cu1O Cu 0.23994(16) 1.0000 0.2500
N1Z N 0.2536(4) 1.0079(4) -0.0728(3)
O1 O 0.3988(4) 0.9027(4) -0.0150(3)
O2 O 0.4407(4) 0.8974(4) 0.0751(3)
O3 O 0.4232(5) 1.1150(5) -0.0326(5)
O4 O 0.3593(4) 0.9949(3) 0.0106(4)
O5 O 0.4639(4) 1.0361(4) -0.0361(4)
O6 O 0.3342(3) 0.9089(4) 0.0670(3)
Mo1 Mo 0.38599(3) 0.93808(3) 0.04423(3)
Mo2 Mo 0.38037(3) 1.06462(3) -0.00861(4)
P1 P 0.5000 1.0000 0.0000
O7 O 0.3225(3) 1.0911(3) -0.0111(3)
O8 O 0.5283(5) 1.0511(5) -0.0061(5)
O8E O 0.4939(5) 0.9717(5) -0.0511(5)
O8K O 0.4489(5) 1.0061(5) 0.0283(5)
O5VA O 0.5361(4) 0.9639(4) 0.0361(4)
O8VA O 0.4717(5) 0.9489(5) 0.0061(5)
O8AB O 0.5061(5) 1.0283(5) 0.0511(5)
O8GB O 0.5511(5) 0.9939(5) -0.0283(5)
O1E O 0.4850(3) 1.1012(4) 0.0973(4)
O2E O 0.5751(3) 1.0593(4) 0.1026(4)
O3E O 0.4674(5) 1.0768(5) -0.1150(5)
O4E O 0.5106(4) 1.1407(4) 0.0051(3)
O6E O 0.5670(3) 1.1658(3) 0.0911(4)
Mo1E Mo 0.54423(3) 1.11401(3) 0.06192(3)
Mo2E Mo 0.49139(4) 1.11963(3) -0.06462(3)
O7E O 0.4889(3) 1.1775(3) -0.0911(3)
O1K O 0.5973(4) 1.0150(3) -0.1012(4)
O2K O 0.6026(4) 0.9249(3) -0.0593(4)
O3K O 0.3850(5) 1.0326(5) -0.0768(5)
O4K O 0.5051(3) 0.9894(4) -0.1407(4)
O6K O 0.5911(4) 0.9330(3) -0.1658(3)
Mo1K Mo 0.56192(3) 0.95577(3) -0.11401(3)
Mo2K Mo 0.43538(3) 1.00861(4) -0.11963(3)
O7K O 0.4089(3) 1.0111(3) -0.1775(3)
O1VA O 0.6012(4) 1.0973(4) 0.0150(3)
O2VA O 0.5593(4) 1.1026(4) -0.0751(3)
O3VA O 0.5768(5) 0.8850(5) 0.0326(5)
O4VA O 0.6407(4) 1.0051(3) -0.0106(4)
O6VA O 0.6658(3) 1.0911(4) -0.0670(3)
Mo1VA Mo 0.61401(3) 1.06192(3) -0.04423(3)
Mo2VA Mo 0.61963(3) 0.93538(3) 0.00861(4)
O7VA O 0.6775(3) 0.9089(3) 0.0111(3)
O1AB O 0.5150(3) 0.8988(4) -0.0973(4)
O2AB O 0.4249(3) 0.9407(4) -0.1026(4)
O3AB O 0.5326(5) 0.9232(5) 0.1150(5)
O4AB O 0.4894(4) 0.8593(4) -0.0051(3)
O6AB O 0.4330(3) 0.8342(3) -0.0911(4)
Mo1AB Mo 0.45577(3) 0.88599(3) -0.06192(3)
Mo2AB Mo 0.50861(4) 0.88037(3) 0.06462(3)
O7AB O 0.5111(3) 0.8225(3) 0.0911(3)
O1GB O 0.4027(4) 0.9850(3) 0.1012(4)
O2GB O 0.3974(4) 1.0751(3) 0.0593(4)
O3GB O 0.6150(5) 0.9674(5) 0.0768(5)
O4GB O 0.4949(3) 1.0106(4) 0.1407(4)
O6GB O 0.4089(4) 1.0670(3) 0.1658(3)
Mo1GB Mo 0.43808(3) 1.04423(3) 0.11401(3)
Mo2GB Mo 0.56462(3) 0.99139(4) 0.11963(3)
O7GB O 0.5911(3) 0.9889(3) 0.1775(3)
loop_
_geom_bond_atom_site_label_1
_geom_bond_atom_site_label_2
_geom_bond_site_symmetry_1
_geom_bond_site_symmetry_2
O1 Mo1 1_555 1_555
O2 Mo1 1_555 1_555
O3 Mo2 1_555 1_555
O4 Mo1 1_555 1_555
O5 Mo2 1_555 1_555
O6 Mo1 1_555 1_555
Mo1 O8K 1_555 1_555
Mo2 O4 1_555 1_555
P1 O5 1_555 1_555
O7 Mo2 1_555 1_555
O8 P1 1_555 1_555
Cu1 N1 1_555 1_555
N1 C1 1_555 1_555
C1 H1 1_555 1_555
C2 C1 1_555 1_555
H2 C2 1_555 1_555
O8E P1 1_555 1_555
O8K Mo2 1_555 1_555
O5VA P1 1_555 1_555
O8VA Mo1 1_555 1_555
O8AB P1 1_555 1_555
O8GB P1 1_555 1_555
O1E Mo1E 1_555 1_555
O2E Mo1E 1_555 1_555
O3E Mo2E 1_555 1_555
O4E Mo1E 1_555 1_555
O6E Mo1E 1_555 1_555
Mo1E O8 1_555 1_555
Mo2E O3 1_555 1_555
O7E Mo2E 1_555 1_555
O1K Mo1K 1_555 1_555
O2K Mo1K 1_555 1_555
O3K Mo2 1_555 1_555
O4K Mo1K 1_555 1_555
O6K Mo1K 1_555 1_555
Mo1K O8E 1_555 1_555
Mo2K O5 1_555 1_555
O7K Mo2K 1_555 1_555
O1VA Mo1E 1_555 1_555
O2VA Mo2E 1_555 1_555
O3VA Mo2VA 1_555 1_555
O4VA Mo1VA 1_555 1_555
O6VA Mo1VA 1_555 1_555
Mo1VA O8 1_555 1_555
Mo2VA O5VA 1_555 1_555
O7VA Mo2VA 1_555 1_555
O1AB Mo1K 1_555 1_555
O2AB Mo2K 1_555 1_555
O3AB Mo2AB 1_555 1_555
O4AB Mo1AB 1_555 1_555
O6AB Mo1AB 1_555 1_555
Mo1AB O1 1_555 1_555
Mo2AB O2 1_555 1_555
O7AB Mo2AB 1_555 1_555
O1GB Mo1 1_555 1_555
O2GB Mo2 1_555 1_555
O3GB Mo2VA 1_555 1_555
O4GB Mo1GB 1_555 1_555
O6GB Mo1GB 1_555 1_555
Mo1GB O8K 1_555 1_555
Mo2GB O5VA 1_555 1_555
O7GB Mo2GB 1_555 1_555
N1KA C2 1_555 1_555
C1KA N1KA 1_555 1_555
H1KA C1KA 1_555 1_555
C2KA N1 1_555 1_555
H2KA C2KA 1_555 1_555
Cu1O N1KA 1_555 1_555
N1Z Cu1 1_555 1_555
O5 Mo2E 1_555 1_555
P1 O8K 1_555 1_555
P1 O8VA 1_555 1_555
O8 O8AB 1_555 1_555
O8 O8GB 1_555 1_555
O8 Mo2E 1_555 1_555
O8E O8VA 1_555 1_555
O8E O8GB 1_555 1_555
O8E Mo2K 1_555 1_555
O8E Mo1AB 1_555 1_555
O8K O8VA 1_555 1_555
O8K O8AB 1_555 1_555
O5VA Mo2AB 1_555 1_555
O8VA Mo1AB 1_555 1_555
O8VA Mo2AB 1_555 1_555
O8AB Mo1E 1_555 1_555
O8AB Mo1GB 1_555 1_555
O8AB Mo2GB 1_555 1_555
O8GB Mo1K 1_555 1_555
O8GB Mo1VA 1_555 1_555
O8GB Mo2VA 1_555 1_555
O1E Mo1GB 1_555 1_555
O2E Mo2GB 1_555 1_555
O3E Mo2K 1_555 1_555
O4E Mo2E 1_555 1_555
O1K Mo1VA 1_555 1_555
O2K Mo2VA 1_555 1_555
O3K Mo2K 1_555 1_555
O4K Mo2K 1_555 1_555
O1VA Mo1VA 1_555 1_555
O2VA Mo1VA 1_555 1_555
O3VA Mo2AB 1_555 1_555
O4VA Mo2VA 1_555 1_555
O1AB Mo1AB 1_555 1_555
O2AB Mo1AB 1_555 1_555
O3AB Mo2GB 1_555 1_555
O4AB Mo2AB 1_555 1_555
O1GB Mo1GB 1_555 1_555
O2GB Mo1GB 1_555 1_555
O3GB Mo2GB 1_555 1_555
O4GB Mo2GB 1_555 1_555
C1KA C2KA 1_555 1_555

#END
