
#######################################################################
#
#                 Cambridge Crystallographic Data Centre
#                                CCDC 
#
#######################################################################
#
# If this CIF has been generated from an entry in the Cambridge 
# Structural Database, then it will include bibliographic, chemical, 
# crystal, experimental, refinement or atomic coordinate data resulting 
# from the CCDC's data processing and validation procedures.
#
#######################################################################

data_NEZBOK
_symmetry_cell_setting           monoclinic
_symmetry_space_group_name_H-M   'P 21/c'
_symmetry_Int_Tables_number      14
_space_group_name_Hall           '-P 2ybc'
loop_
_symmetry_equiv_pos_site_id
_symmetry_equiv_pos_as_xyz
1 x,y,z
2 -x,1/2+y,1/2-z
3 -x,-y,-z
4 x,1/2-y,1/2+z
_cell_length_a                   6.0627(8)
_cell_length_b                   10.7122(15)
_cell_length_c                   10.3872(14)
_cell_angle_alpha                90
_cell_angle_beta                 97.956(2)
_cell_angle_gamma                90
_cell_volume                     668.102
loop_
_atom_site_label
_atom_site_type_symbol
_atom_site_fract_x
_atom_site_fract_y
_atom_site_fract_z
Mn1 Mn -0.11358(4) -0.38705(3) 1.40845(3)
P1 P 0.03461(8) -0.15644(5) 1.22871(5)
H1 H 0.1781 -0.1989 1.2300
O1 O -0.0672(3) -0.20650(13) 1.34478(14)
O2 O -0.1015(3) -0.18927(14) 1.10090(14)
O3 O 0.0874(2) -0.01696(13) 1.24742(13)
O4 O -0.2308(2) 0.05855(14) 1.01646(14)
O5 O -0.4822(2) -0.11665(13) 0.88402(15)
C1 C -0.4280(3) 0.05091(17) 1.03926(18)
Mn1C Mn -0.11358(4) -0.11295(3) 0.90845(3)
Mn1A Mn 0.11358(4) 0.11295(3) 1.09155(3)
Mn1A_2 Mn -0.88642(4) 0.11295(3) 1.09155(3)
Mn1B Mn 0.11358(4) 0.38705(3) 1.59155(3)
Mn1_2 Mn -0.11358(4) 0.61295(3) 1.40845(3)
Mn1C_2 Mn -1.11358(4) -0.11295(3) 0.90845(3)
P1A P -0.03461(8) 0.34356(5) 1.27129(5)
H1A H -0.1781 0.3011 1.2700
O1A O 0.0672(3) 0.29350(13) 1.15522(14)
O2C O -0.1015(3) -0.31073(14) 1.60090(14)
O2B O 0.1015(3) 0.18927(14) 0.89910(14)
O2A O 0.1015(3) 0.31073(14) 1.39910(14)
O3A O -0.0874(2) -0.51696(13) 1.25258(13)
O3A_2 O -0.0874(2) 0.48304(13) 1.25258(13)
O4A O 0.2308(2) -0.44145(14) 1.48354(14)
O4C O -0.2308(2) -0.55855(14) 1.51646(14)
O4B O 0.2308(2) -0.05855(14) 0.98354(14)
O4B_2 O -0.7692(2) -0.05855(14) 0.98354(14)
O5C O -0.4822(2) -0.38335(13) 1.38402(15)
O5B O 0.4822(2) 0.11665(13) 1.11598(15)
O5B_2 O -0.5178(2) 0.11665(13) 1.11598(15)
C1B C -0.5720(3) -0.05091(17) 0.96074(18)
C2 C 0.5003(4) -0.3728(2) -0.9547(2)
H2 H 0.4273 -0.3289 -1.0306
H3 H 0.5377 -0.3123 -0.8856
C3 C 0.3451(4) -0.4696(2) -0.9125(2)
H4 H 0.4135 -0.5082 -0.8324
H5 H 0.2081 -0.4298 -0.8960
N1 N 0.7064(3) -0.43314(17) -0.98614(17)
H6 H 0.7956 -0.3750 -1.0143
H7 H 0.7798 -0.4680 -0.9138
C2B C 0.4997(4) -0.6272(2) -1.0453(2)
H2B H 0.5727 -0.6711 -0.9694
H3B H 0.4623 -0.6877 -1.1144
C3B C 0.6549(4) -0.5304(2) -1.0875(2)
H4B H 0.5865 -0.4918 -1.1676
H5B H 0.7919 -0.5702 -1.1040
N1B N 0.2936(3) -0.56686(17) -1.01386(17)
H6B H 0.2044 -0.6250 -0.9857
H7B H 0.2202 -0.5320 -1.0862
loop_
_geom_bond_atom_site_label_1
_geom_bond_atom_site_label_2
_geom_bond_site_symmetry_1
_geom_bond_site_symmetry_2
Mn1 O1 1_555 1_555
P1 H1 1_555 1_555
O1 P1 1_555 1_555
O2 P1 1_555 1_555
O3 P1 1_555 1_555
O4 C1 1_555 1_555
O5 Mn1C 1_555 1_555
C1 O5B_2 1_555 1_555
C2 H2 1_555 1_555
H3 C2 1_555 1_555
C3 C2 1_555 1_555
H4 C3 1_555 1_555
H5 C3 1_555 1_555
N1 C2 1_555 1_555
H6 N1 1_555 1_555
H7 N1 1_555 1_555
Mn1C O2 1_555 1_555
Mn1A O3 1_555 1_555
Mn1A_2 O4B_2 1_555 1_555
Mn1B O2A 1_555 1_555
Mn1_2 O3A_2 1_555 1_555
Mn1C_2 O4B_2 1_555 1_555
P1A H1A 1_555 1_555
O1A Mn1A 1_555 1_555
O2C Mn1 1_555 1_555
O2B Mn1A 1_555 1_555
O2A P1A 1_555 1_555
O3A Mn1 1_555 1_555
O3A_2 P1A 1_555 1_555
O4A Mn1 1_555 1_555
O4C Mn1 1_555 1_555
O4B Mn1C 1_555 1_555
O4B_2 C1B 1_555 1_555
O5C Mn1 1_555 1_555
O5B Mn1A 1_555 1_555
O5B_2 Mn1A_2 1_555 1_555
C1B O5 1_555 1_555
C2B H2B 1_555 1_555
H3B C2B 1_555 1_555
C3B N1 1_555 1_555
H4B C3B 1_555 1_555
H5B C3B 1_555 1_555
N1B C3 1_555 1_555
H6B N1B 1_555 1_555
H7B N1B 1_555 1_555
O4 Mn1C 1_555 1_555
O4 Mn1A 1_555 1_555
C1 C1B 1_555 1_555
Mn1A O4B 1_555 1_555
P1A O1A 1_555 1_555
C2B C3B 1_555 1_555
C2B N1B 1_555 1_555

#END
