
#######################################################################
#
#                 Cambridge Crystallographic Data Centre
#                                CCDC 
#
#######################################################################
#
# If this CIF has been generated from an entry in the Cambridge 
# Structural Database, then it will include bibliographic, chemical, 
# crystal, experimental, refinement or atomic coordinate data resulting 
# from the CCDC's data processing and validation procedures.
#
#######################################################################

data_NIGPAW
_symmetry_cell_setting           cubic
_symmetry_space_group_name_H-M   'I m -3 m'
_symmetry_Int_Tables_number      229
_space_group_name_Hall           '-I 4 2 3'
loop_
_symmetry_equiv_pos_site_id
_symmetry_equiv_pos_as_xyz
1 x,y,z
2 -x,-y,z
3 -x,y,-z
4 x,-y,-z
5 z,x,y
6 z,-x,-y
7 -z,-x,y
8 -z,x,-y
9 y,z,x
10 -y,z,-x
11 y,-z,-x
12 -y,-z,x
13 y,x,-z
14 -y,-x,-z
15 y,-x,z
16 -y,x,z
17 x,z,-y
18 -x,z,y
19 -x,-z,-y
20 x,-z,y
21 z,y,-x
22 z,-y,x
23 -z,y,x
24 -z,-y,-x
25 1/2+x,1/2+y,1/2+z
26 1/2-x,1/2-y,1/2+z
27 1/2-x,1/2+y,1/2-z
28 1/2+x,1/2-y,1/2-z
29 1/2+z,1/2+x,1/2+y
30 1/2+z,1/2-x,1/2-y
31 1/2-z,1/2-x,1/2+y
32 1/2-z,1/2+x,1/2-y
33 1/2+y,1/2+z,1/2+x
34 1/2-y,1/2+z,1/2-x
35 1/2+y,1/2-z,1/2-x
36 1/2-y,1/2-z,1/2+x
37 1/2+y,1/2+x,1/2-z
38 1/2-y,1/2-x,1/2-z
39 1/2+y,1/2-x,1/2+z
40 1/2-y,1/2+x,1/2+z
41 1/2+x,1/2+z,1/2-y
42 1/2-x,1/2+z,1/2+y
43 1/2-x,1/2-z,1/2-y
44 1/2+x,1/2-z,1/2+y
45 1/2+z,1/2+y,1/2-x
46 1/2+z,1/2-y,1/2+x
47 1/2-z,1/2+y,1/2+x
48 1/2-z,1/2-y,1/2-x
49 -x,-y,-z
50 x,y,-z
51 x,-y,z
52 -x,y,z
53 -z,-x,-y
54 -z,x,y
55 z,x,-y
56 z,-x,y
57 -y,-z,-x
58 y,-z,x
59 -y,z,x
60 y,z,-x
61 -y,-x,z
62 y,x,z
63 -y,x,-z
64 y,-x,-z
65 -x,-z,y
66 x,-z,-y
67 x,z,y
68 -x,z,-y
69 -z,-y,x
70 -z,y,-x
71 z,-y,-x
72 z,y,x
73 1/2-x,1/2-y,1/2-z
74 1/2+x,1/2+y,1/2-z
75 1/2+x,1/2-y,1/2+z
76 1/2-x,1/2+y,1/2+z
77 1/2-z,1/2-x,1/2-y
78 1/2-z,1/2+x,1/2+y
79 1/2+z,1/2+x,1/2-y
80 1/2+z,1/2-x,1/2+y
81 1/2-y,1/2-z,1/2-x
82 1/2+y,1/2-z,1/2+x
83 1/2-y,1/2+z,1/2+x
84 1/2+y,1/2+z,1/2-x
85 1/2-y,1/2-x,1/2+z
86 1/2+y,1/2+x,1/2+z
87 1/2-y,1/2+x,1/2-z
88 1/2+y,1/2-x,1/2-z
89 1/2-x,1/2-z,1/2+y
90 1/2+x,1/2-z,1/2-y
91 1/2+x,1/2+z,1/2+y
92 1/2-x,1/2+z,1/2-y
93 1/2-z,1/2-y,1/2+x
94 1/2-z,1/2+y,1/2-x
95 1/2+z,1/2-y,1/2-x
96 1/2+z,1/2+y,1/2+x
_cell_length_a                   25.6339(6)
_cell_length_b                   25.6339(6)
_cell_length_c                   25.6339(6)
_cell_angle_alpha                90
_cell_angle_beta                 90
_cell_angle_gamma                90
_cell_volume                     16844
loop_
_atom_site_label
_atom_site_type_symbol
_atom_site_fract_x
_atom_site_fract_y
_atom_site_fract_z
C1 C 0.22870(10) 0.22870(10) 0.16541(13)
H1 H 0.2430 0.2430 0.1353
C2 C 0.25405(14) 0.18491(10) 0.18491(10)
C3 C 0.30051(14) 0.16175(10) 0.16175(10)
C4 C 0.32097(10) 0.17656(10) 0.11370(9)
H2 H 0.3024 0.2006 0.0938
C5 C 0.36727(9) 0.15748(9) 0.09399(9)
H3 H 0.3848 0.1747 0.0673
C6 C 0.38581(11) 0.11416(8) 0.11416(8)
C7 C 0.43098(12) 0.09241(9) 0.09241(9)
Co1 Co 0.5000 0.0000 0.08358(2)
O1 O 0.45110(6) 0.05218(6) 0.11583(6)
O2 O 0.5000 0.0000 0.0000
C1D C 0.16541(13) 0.22870(10) 0.22870(10)
H1D H 0.1353 0.2430 0.2430
C2D C 0.18491(10) 0.25405(14) 0.18491(10)
C3D C 0.16175(10) 0.30051(14) 0.16175(10)
C4D C 0.11370(9) 0.32097(10) 0.17656(10)
H2D H 0.0938 0.3024 0.2006
C5D C 0.09399(9) 0.36727(9) 0.15748(9)
H3D H 0.0673 0.3848 0.1747
C6D C 0.11416(8) 0.38581(11) 0.11416(8)
C7D C 0.09241(9) 0.43098(12) 0.09241(9)
O1D O 0.11583(6) 0.45110(6) 0.05218(6)
C1H C 0.22870(10) 0.16541(13) 0.22870(10)
H1H H 0.2430 0.1353 0.2430
C2H C 0.18491(10) 0.18491(10) 0.25405(14)
C3H C 0.16175(10) 0.16175(10) 0.30051(14)
C4H C 0.17656(10) 0.11370(9) 0.32097(10)
H2H H 0.2006 0.0938 0.3024
C5H C 0.15748(9) 0.09399(9) 0.36727(9)
H3H H 0.1747 0.0673 0.3848
C6H C 0.11416(8) 0.11416(8) 0.38581(11)
C7H C 0.09241(9) 0.09241(9) 0.43098(12)
O1H O 0.05218(6) 0.11583(6) 0.45110(6)
C4IB C 0.17656(10) 0.32097(10) 0.11370(9)
H2IB H 0.2006 0.3024 0.0938
C5IB C 0.15748(9) 0.36727(9) 0.09399(9)
H3IB H 0.1747 0.3848 0.0673
O1IB O 0.05218(6) 0.45110(6) 0.11583(6)
C4NB C 0.32097(10) 0.11370(9) 0.17656(10)
H2NB H 0.3024 0.0938 0.2006
C5NB C 0.36727(9) 0.09399(9) 0.15748(9)
H3NB H 0.3848 0.0673 0.1747
O1NB O 0.45110(6) 0.11583(6) 0.05218(6)
C4SB C 0.11370(9) 0.17656(10) 0.32097(10)
H2SB H 0.0938 0.2006 0.3024
C5SB C 0.09399(9) 0.15748(9) 0.36727(9)
H3SB H 0.0673 0.1747 0.3848
O1SB O 0.11583(6) 0.05218(6) 0.45110(6)
Co1B Co 0.5000 0.0000 -0.08358(2)
C1C C 0.22870(10) -0.22870(10) -0.16541(13)
H1C H 0.2430 -0.2430 -0.1353
C2C C 0.25405(14) -0.18491(10) -0.18491(10)
C3C C 0.30051(14) -0.16175(10) -0.16175(10)
C4C C 0.32097(10) -0.17656(10) -0.11370(9)
H2C H 0.3024 -0.2006 -0.0938
C5C C 0.36727(9) -0.15748(9) -0.09399(9)
H3C H 0.3848 -0.1747 -0.0673
C6C C 0.38581(11) -0.11416(8) -0.11416(8)
C7C C 0.43098(12) -0.09241(9) -0.09241(9)
O1C O 0.45110(6) -0.05218(6) -0.11583(6)
C1E C 0.16541(13) -0.22870(10) -0.22870(10)
H1E H 0.1353 -0.2430 -0.2430
C2E C 0.18491(10) -0.25405(14) -0.18491(10)
C3E C 0.16175(10) -0.30051(14) -0.16175(10)
C4E C 0.11370(9) -0.32097(10) -0.17656(10)
H2E H 0.0938 -0.3024 -0.2006
C5E C 0.09399(9) -0.36727(9) -0.15748(9)
H3E H 0.0673 -0.3848 -0.1747
C6E C 0.11416(8) -0.38581(11) -0.11416(8)
C7E C 0.09241(9) -0.43098(12) -0.09241(9)
O1E O 0.11583(6) -0.45110(6) -0.05218(6)
C1J C 0.22870(10) -0.16541(13) -0.22870(10)
H1J H 0.2430 -0.1353 -0.2430
C2J C 0.18491(10) -0.18491(10) -0.25405(14)
C3J C 0.16175(10) -0.16175(10) -0.30051(14)
C4J C 0.17656(10) -0.11370(9) -0.32097(10)
H2J H 0.2006 -0.0938 -0.3024
C5J C 0.15748(9) -0.09399(9) -0.36727(9)
H3J H 0.1747 -0.0673 -0.3848
C6J C 0.11416(8) -0.11416(8) -0.38581(11)
C7J C 0.09241(9) -0.09241(9) -0.43098(12)
O1J O 0.05218(6) -0.11583(6) -0.45110(6)
C4KB C 0.17656(10) -0.32097(10) -0.11370(9)
H2KB H 0.2006 -0.3024 -0.0938
C5KB C 0.15748(9) -0.36727(9) -0.09399(9)
H3KB H 0.1747 -0.3848 -0.0673
O1KB O 0.05218(6) -0.45110(6) -0.11583(6)
C4MB C 0.32097(10) -0.11370(9) -0.17656(10)
H2MB H 0.3024 -0.0938 -0.2006
C5MB C 0.36727(9) -0.09399(9) -0.15748(9)
H3MB H 0.3848 -0.0673 -0.1747
O1MB O 0.45110(6) -0.11583(6) -0.05218(6)
C4RB C 0.11370(9) -0.17656(10) -0.32097(10)
H2RB H 0.0938 -0.2006 -0.3024
C5RB C 0.09399(9) -0.15748(9) -0.36727(9)
H3RB H 0.0673 -0.1747 -0.3848
O1RB O 0.11583(6) -0.05218(6) -0.45110(6)
Co1D Co 0.08358(2) 0.5000 0.0000
O2D O 0.0000 0.5000 0.0000
Co1D_2 Co 0.08358(2) -0.5000 0.0000
O2D_2 O 0.0000 -0.5000 0.0000
C1G C -0.16541(13) 0.22870(10) -0.22870(10)
H1G H -0.1353 0.2430 -0.2430
C2G C -0.18491(10) 0.25405(14) -0.18491(10)
C3G C -0.16175(10) 0.30051(14) -0.16175(10)
C4G C -0.11370(9) 0.32097(10) -0.17656(10)
H2G H -0.0938 0.3024 -0.2006
C5G C -0.09399(9) 0.36727(9) -0.15748(9)
H3G H -0.0673 0.3848 -0.1747
C6G C -0.11416(8) 0.38581(11) -0.11416(8)
C7G C -0.09241(9) 0.43098(12) -0.09241(9)
Co1F Co -0.08358(2) 0.5000 0.0000
O1G O -0.11583(6) 0.45110(6) -0.05218(6)
C1I C -0.22870(10) 0.16541(13) -0.22870(10)
H1I H -0.2430 0.1353 -0.2430
C2I C -0.18491(10) 0.18491(10) -0.25405(14)
C3I C -0.16175(10) 0.16175(10) -0.30051(14)
C4I C -0.17656(10) 0.11370(9) -0.32097(10)
H2I H -0.2006 0.0938 -0.3024
C5I C -0.15748(9) 0.09399(9) -0.36727(9)
H3I H -0.1747 0.0673 -0.3848
C6I C -0.11416(8) 0.11416(8) -0.38581(11)
C7I C -0.09241(9) 0.09241(9) -0.43098(12)
O1I O -0.05218(6) 0.11583(6) -0.45110(6)
C1B C -0.22870(10) 0.22870(10) -0.16541(13)
H1B H -0.2430 0.2430 -0.1353
C2B C -0.25405(14) 0.18491(10) -0.18491(10)
C3B C -0.30051(14) 0.16175(10) -0.16175(10)
C4B C -0.32097(10) 0.17656(10) -0.11370(9)
H2B H -0.3024 0.2006 -0.0938
C5B C -0.36727(9) 0.15748(9) -0.09399(9)
H3B H -0.3848 0.1747 -0.0673
C6B C -0.38581(11) 0.11416(8) -0.11416(8)
C7B C -0.43098(12) 0.09241(9) -0.09241(9)
O1B O -0.45110(6) 0.05218(6) -0.11583(6)
C4QB C -0.11370(9) 0.17656(10) -0.32097(10)
H2QB H -0.0938 0.2006 -0.3024
C5QB C -0.09399(9) 0.15748(9) -0.36727(9)
H3QB H -0.0673 0.1747 -0.3848
O1QB O -0.11583(6) 0.05218(6) -0.45110(6)
C4JB C -0.17656(10) 0.32097(10) -0.11370(9)
H2JB H -0.2006 0.3024 -0.0938
C5JB C -0.15748(9) 0.36727(9) -0.09399(9)
H3JB H -0.1747 0.3848 -0.0673
O1JB O -0.05218(6) 0.45110(6) -0.11583(6)
C4OB C -0.32097(10) 0.11370(9) -0.17656(10)
H2OB H -0.3024 0.0938 -0.2006
C5OB C -0.36727(9) 0.09399(9) -0.15748(9)
H3OB H -0.3848 0.0673 -0.1747
O1OB O -0.45110(6) 0.11583(6) -0.05218(6)
Co1H Co 0.0000 0.08358(2) 0.5000
Co1J Co 0.0000 -0.08358(2) -0.5000
C1K C -0.22870(10) -0.16541(13) 0.22870(10)
H1K H -0.2430 -0.1353 0.2430
C2K C -0.18491(10) -0.18491(10) 0.25405(14)
C3K C -0.16175(10) -0.16175(10) 0.30051(14)
C4K C -0.17656(10) -0.11370(9) 0.32097(10)
H2K H -0.2006 -0.0938 0.3024
C5K C -0.15748(9) -0.09399(9) 0.36727(9)
H3K H -0.1747 -0.0673 0.3848
C6K C -0.11416(8) -0.11416(8) 0.38581(11)
C7K C -0.09241(9) -0.09241(9) 0.43098(12)
Co1J_2 Co 0.0000 -0.08358(2) 0.5000
O1K O -0.05218(6) -0.11583(6) 0.45110(6)
C1A C -0.22870(10) -0.22870(10) 0.16541(13)
H1A H -0.2430 -0.2430 0.1353
C2A C -0.25405(14) -0.18491(10) 0.18491(10)
C3A C -0.30051(14) -0.16175(10) 0.16175(10)
C4A C -0.32097(10) -0.17656(10) 0.11370(9)
H2A H -0.3024 -0.2006 0.0938
C5A C -0.36727(9) -0.15748(9) 0.09399(9)
H3A H -0.3848 -0.1747 0.0673
C6A C -0.38581(11) -0.11416(8) 0.11416(8)
C7A C -0.43098(12) -0.09241(9) 0.09241(9)
O1A O -0.45110(6) -0.05218(6) 0.11583(6)
C1F C -0.16541(13) -0.22870(10) 0.22870(10)
H1F H -0.1353 -0.2430 0.2430
C2F C -0.18491(10) -0.25405(14) 0.18491(10)
C3F C -0.16175(10) -0.30051(14) 0.16175(10)
C4F C -0.11370(9) -0.32097(10) 0.17656(10)
H2F H -0.0938 -0.3024 0.2006
C5F C -0.09399(9) -0.36727(9) 0.15748(9)
H3F H -0.0673 -0.3848 0.1747
C6F C -0.11416(8) -0.38581(11) 0.11416(8)
C7F C -0.09241(9) -0.43098(12) 0.09241(9)
O1F O -0.11583(6) -0.45110(6) 0.05218(6)
C4LB C -0.32097(10) -0.11370(9) 0.17656(10)
H2LB H -0.3024 -0.0938 0.2006
C5LB C -0.36727(9) -0.09399(9) 0.15748(9)
H3LB H -0.3848 -0.0673 0.1747
O1LB O -0.45110(6) -0.11583(6) 0.05218(6)
C4PB C -0.11370(9) -0.17656(10) 0.32097(10)
H2PB H -0.0938 -0.2006 0.3024
C5PB C -0.09399(9) -0.15748(9) 0.36727(9)
H3PB H -0.0673 -0.1747 0.3848
O1PB O -0.11583(6) -0.05218(6) 0.45110(6)
C4HB C -0.17656(10) -0.32097(10) 0.11370(9)
H2HB H -0.2006 -0.3024 0.0938
C5HB C -0.15748(9) -0.36727(9) 0.09399(9)
H3HB H -0.1747 -0.3848 0.0673
O1HB O -0.05218(6) -0.45110(6) 0.11583(6)
C1L C 0.22870(10) 0.22870(10) -0.16541(13)
H1L H 0.2430 0.2430 -0.1353
C2L C 0.18491(10) 0.25405(14) -0.18491(10)
C3L C 0.16175(10) 0.30051(14) -0.16175(10)
C4L C 0.17656(10) 0.32097(10) -0.11370(9)
H2L H 0.2006 0.3024 -0.0938
C5L C 0.15748(9) 0.36727(9) -0.09399(9)
H3L H 0.1747 0.3848 -0.0673
C6L C 0.11416(8) 0.38581(11) -0.11416(8)
C7L C 0.09241(9) 0.43098(12) -0.09241(9)
O1L O 0.05218(6) 0.45110(6) -0.11583(6)
C1P C 0.22870(10) 0.16541(13) -0.22870(10)
H1P H 0.2430 0.1353 -0.2430
C2P C 0.25405(14) 0.18491(10) -0.18491(10)
C3P C 0.30051(14) 0.16175(10) -0.16175(10)
C4P C 0.32097(10) 0.11370(9) -0.17656(10)
H2P H 0.3024 0.0938 -0.2006
C5P C 0.36727(9) 0.09399(9) -0.15748(9)
H3P H 0.3848 0.0673 -0.1747
C6P C 0.38581(11) 0.11416(8) -0.11416(8)
C7P C 0.43098(12) 0.09241(9) -0.09241(9)
O1P O 0.45110(6) 0.11583(6) -0.05218(6)
C1T C 0.16541(13) 0.22870(10) -0.22870(10)
H1T H 0.1353 0.2430 -0.2430
C2T C 0.18491(10) 0.18491(10) -0.25405(14)
C3T C 0.16175(10) 0.16175(10) -0.30051(14)
C4T C 0.11370(9) 0.17656(10) -0.32097(10)
H2T H 0.0938 0.2006 -0.3024
C5T C 0.09399(9) 0.15748(9) -0.36727(9)
H3T H 0.0673 0.1747 -0.3848
C6T C 0.11416(8) 0.11416(8) -0.38581(11)
C7T C 0.09241(9) 0.09241(9) -0.43098(12)
O1T O 0.11583(6) 0.05218(6) -0.45110(6)
C4WA C 0.32097(10) 0.17656(10) -0.11370(9)
H2WA H 0.3024 0.2006 -0.0938
C5WA C 0.36727(9) 0.15748(9) -0.09399(9)
H3WA H 0.3848 0.1747 -0.0673
O1WA O 0.45110(6) 0.05218(6) -0.11583(6)
C4BB C 0.11370(9) 0.32097(10) -0.17656(10)
H2BB H 0.0938 0.3024 -0.2006
C5BB C 0.09399(9) 0.36727(9) -0.15748(9)
H3BB H 0.0673 0.3848 -0.1747
O1BB O 0.11583(6) 0.45110(6) -0.05218(6)
C4GB C 0.17656(10) 0.11370(9) -0.32097(10)
H2GB H 0.2006 0.0938 -0.3024
C5GB C 0.15748(9) 0.09399(9) -0.36727(9)
H3GB H 0.1747 0.0673 -0.3848
O1GB O 0.05218(6) 0.11583(6) -0.45110(6)
C1N C 0.22870(10) -0.22870(10) 0.16541(13)
H1N H 0.2430 -0.2430 0.1353
C2N C 0.18491(10) -0.25405(14) 0.18491(10)
C3N C 0.16175(10) -0.30051(14) 0.16175(10)
C4N C 0.17656(10) -0.32097(10) 0.11370(9)
H2N H 0.2006 -0.3024 0.0938
C5N C 0.15748(9) -0.36727(9) 0.09399(9)
H3N H 0.1747 -0.3848 0.0673
C6N C 0.11416(8) -0.38581(11) 0.11416(8)
C7N C 0.09241(9) -0.43098(12) 0.09241(9)
O1N O 0.05218(6) -0.45110(6) 0.11583(6)
C1S C 0.22870(10) -0.16541(13) 0.22870(10)
H1S H 0.2430 -0.1353 0.2430
C2S C 0.25405(14) -0.18491(10) 0.18491(10)
C3S C 0.30051(14) -0.16175(10) 0.16175(10)
C4S C 0.32097(10) -0.11370(9) 0.17656(10)
H2S H 0.3024 -0.0938 0.2006
C5S C 0.36727(9) -0.09399(9) 0.15748(9)
H3S H 0.3848 -0.0673 0.1747
C6S C 0.38581(11) -0.11416(8) 0.11416(8)
C7S C 0.43098(12) -0.09241(9) 0.09241(9)
O1S O 0.45110(6) -0.11583(6) 0.05218(6)
C1U C 0.16541(13) -0.22870(10) 0.22870(10)
H1U H 0.1353 -0.2430 0.2430
C2U C 0.18491(10) -0.18491(10) 0.25405(14)
C3U C 0.16175(10) -0.16175(10) 0.30051(14)
C4U C 0.11370(9) -0.17656(10) 0.32097(10)
H2U H 0.0938 -0.2006 0.3024
C5U C 0.09399(9) -0.15748(9) 0.36727(9)
H3U H 0.0673 -0.1747 0.3848
C6U C 0.11416(8) -0.11416(8) 0.38581(11)
C7U C 0.09241(9) -0.09241(9) 0.43098(12)
O1U O 0.11583(6) -0.05218(6) 0.45110(6)
C4XA C 0.32097(10) -0.17656(10) 0.11370(9)
H2XA H 0.3024 -0.2006 0.0938
C5XA C 0.36727(9) -0.15748(9) 0.09399(9)
H3XA H 0.3848 -0.1747 0.0673
O1XA O 0.45110(6) -0.05218(6) 0.11583(6)
C4CB C 0.11370(9) -0.32097(10) 0.17656(10)
H2CB H 0.0938 -0.3024 0.2006
C5CB C 0.09399(9) -0.36727(9) 0.15748(9)
H3CB H 0.0673 -0.3848 0.1747
O1CB O 0.11583(6) -0.45110(6) 0.05218(6)
C4EB C 0.17656(10) -0.11370(9) 0.32097(10)
H2EB H 0.2006 -0.0938 0.3024
C5EB C 0.15748(9) -0.09399(9) 0.36727(9)
H3EB H 0.1747 -0.0673 0.3848
O1EB O 0.05218(6) -0.11583(6) 0.45110(6)
C1N_2 C 0.22870(10) 0.77130(10) 0.16541(13)
H1N_2 H 0.2430 0.7570 0.1353
C2N_2 C 0.18491(10) 0.74595(14) 0.18491(10)
C3N_2 C 0.16175(10) 0.69949(14) 0.16175(10)
C4N_2 C 0.17656(10) 0.67903(10) 0.11370(9)
H2N_2 H 0.2006 0.6976 0.0938
C5N_2 C 0.15748(9) 0.63273(9) 0.09399(9)
H3N_2 H 0.1747 0.6152 0.0673
C6N_2 C 0.11416(8) 0.61419(11) 0.11416(8)
C7N_2 C 0.09241(9) 0.56902(12) 0.09241(9)
O1N_2 O 0.05218(6) 0.54890(6) 0.11583(6)
C1S_2 C 0.22870(10) 0.83459(13) 0.22870(10)
H1S_2 H 0.2430 0.8647 0.2430
C2S_2 C 0.25405(14) 0.81509(10) 0.18491(10)
C3S_2 C 0.30051(14) 0.83825(10) 0.16175(10)
C4S_2 C 0.32097(10) 0.88630(9) 0.17656(10)
H2S_2 H 0.3024 0.9062 0.2006
C5S_2 C 0.36727(9) 0.90601(9) 0.15748(9)
H3S_2 H 0.3848 0.9327 0.1747
C6S_2 C 0.38581(11) 0.88584(8) 0.11416(8)
C7S_2 C 0.43098(12) 0.90759(9) 0.09241(9)
O1S_2 O 0.45110(6) 0.88417(6) 0.05218(6)
C1U_2 C 0.16541(13) 0.77130(10) 0.22870(10)
H1U_2 H 0.1353 0.7570 0.2430
C2U_2 C 0.18491(10) 0.81509(10) 0.25405(14)
C3U_2 C 0.16175(10) 0.83825(10) 0.30051(14)
C4U_2 C 0.11370(9) 0.82344(10) 0.32097(10)
H2U_2 H 0.0938 0.7994 0.3024
C5U_2 C 0.09399(9) 0.84252(9) 0.36727(9)
H3U_2 H 0.0673 0.8253 0.3848
C6U_2 C 0.11416(8) 0.88584(8) 0.38581(11)
C7U_2 C 0.09241(9) 0.90759(9) 0.43098(12)
O1U_2 O 0.11583(6) 0.94782(6) 0.45110(6)
C4XA_2 C 0.32097(10) 0.82344(10) 0.11370(9)
H2XA_2 H 0.3024 0.7994 0.0938
C5XA_2 C 0.36727(9) 0.84252(9) 0.09399(9)
H3XA_2 H 0.3848 0.8253 0.0673
O1XA_2 O 0.45110(6) 0.94782(6) 0.11583(6)
C4CB_2 C 0.11370(9) 0.67903(10) 0.17656(10)
H2CB_2 H 0.0938 0.6976 0.2006
C5CB_2 C 0.09399(9) 0.63273(9) 0.15748(9)
H3CB_2 H 0.0673 0.6152 0.1747
O1CB_2 O 0.11583(6) 0.54890(6) 0.05218(6)
C4EB_2 C 0.17656(10) 0.88630(9) 0.32097(10)
H2EB_2 H 0.2006 0.9062 0.3024
C5EB_2 C 0.15748(9) 0.90601(9) 0.36727(9)
H3EB_2 H 0.1747 0.9327 0.3848
O1EB_2 O 0.05218(6) 0.88417(6) 0.45110(6)
C1O C -0.22870(10) 0.22870(10) 0.16541(13)
H1O H -0.2430 0.2430 0.1353
C2O C -0.18491(10) 0.25405(14) 0.18491(10)
C3O C -0.16175(10) 0.30051(14) 0.16175(10)
C4O C -0.17656(10) 0.32097(10) 0.11370(9)
H2O H -0.2006 0.3024 0.0938
C5O C -0.15748(9) 0.36727(9) 0.09399(9)
H3O H -0.1747 0.3848 0.0673
C6O C -0.11416(8) 0.38581(11) 0.11416(8)
C7O C -0.09241(9) 0.43098(12) 0.09241(9)
O1O O -0.05218(6) 0.45110(6) 0.11583(6)
C1Q C -0.22870(10) 0.16541(13) 0.22870(10)
H1Q H -0.2430 0.1353 0.2430
C2Q C -0.25405(14) 0.18491(10) 0.18491(10)
C3Q C -0.30051(14) 0.16175(10) 0.16175(10)
C4Q C -0.32097(10) 0.11370(9) 0.17656(10)
H2Q H -0.3024 0.0938 0.2006
C5Q C -0.36727(9) 0.09399(9) 0.15748(9)
H3Q H -0.3848 0.0673 0.1747
C6Q C -0.38581(11) 0.11416(8) 0.11416(8)
C7Q C -0.43098(12) 0.09241(9) 0.09241(9)
O1Q O -0.45110(6) 0.11583(6) 0.05218(6)
C1V C -0.16541(13) 0.22870(10) 0.22870(10)
H1V H -0.1353 0.2430 0.2430
C2V C -0.18491(10) 0.18491(10) 0.25405(14)
C3V C -0.16175(10) 0.16175(10) 0.30051(14)
C4V C -0.11370(9) 0.17656(10) 0.32097(10)
H2V H -0.0938 0.2006 0.3024
C5V C -0.09399(9) 0.15748(9) 0.36727(9)
H3V H -0.0673 0.1747 0.3848
C6V C -0.11416(8) 0.11416(8) 0.38581(11)
C7V C -0.09241(9) 0.09241(9) 0.43098(12)
O1V O -0.11583(6) 0.05218(6) 0.45110(6)
C4YA C -0.32097(10) 0.17656(10) 0.11370(9)
H2YA H -0.3024 0.2006 0.0938
C5YA C -0.36727(9) 0.15748(9) 0.09399(9)
H3YA H -0.3848 0.1747 0.0673
O1YA O -0.45110(6) 0.05218(6) 0.11583(6)
C4AB C -0.11370(9) 0.32097(10) 0.17656(10)
H2AB H -0.0938 0.3024 0.2006
C5AB C -0.09399(9) 0.36727(9) 0.15748(9)
H3AB H -0.0673 0.3848 0.1747
O1AB O -0.11583(6) 0.45110(6) 0.05218(6)
C4FB C -0.17656(10) 0.11370(9) 0.32097(10)
H2FB H -0.2006 0.0938 0.3024
C5FB C -0.15748(9) 0.09399(9) 0.36727(9)
H3FB H -0.1747 0.0673 0.3848
O1FB O -0.05218(6) 0.11583(6) 0.45110(6)
Co1P Co 0.5000 0.08358(2) 0.0000
Co1R Co 0.5000 -0.08358(2) 0.0000
Co1T Co 0.08358(2) 0.0000 0.5000
Co1N Co 0.0000 0.5000 0.08358(2)
Co1_2 Co -0.5000 0.0000 0.08358(2)
Co1_3 Co 0.5000 1.0000 0.08358(2)
Co1B_2 Co -0.5000 0.0000 -0.08358(2)
Co1F_2 Co -0.08358(2) -0.5000 0.0000
Co1H_2 Co 0.0000 0.08358(2) -0.5000
Co1J_3 Co 0.0000 0.91642(2) 0.5000
Co1L Co 0.0000 -0.5000 -0.08358(2)
Co1L_2 Co 0.0000 0.5000 -0.08358(2)
Co1N_2 Co 0.0000 -0.5000 0.08358(2)
Co1P_2 Co -0.5000 0.08358(2) 0.0000
Co1R_2 Co -0.5000 -0.08358(2) 0.0000
Co1R_3 Co 0.5000 0.91642(2) 0.0000
Co1T_2 Co 0.08358(2) 0.0000 -0.5000
Co1T_3 Co 0.08358(2) 1.0000 0.5000
Co1V Co -0.08358(2) 0.0000 -0.5000
Co1V_2 Co -0.08358(2) 0.0000 0.5000
O1A_2 O 0.54890(6) -0.05218(6) 0.11583(6)
O1B_2 O 0.54890(6) 0.05218(6) -0.11583(6)
O1D_2 O 0.11583(6) -0.54890(6) 0.05218(6)
O1E_2 O 0.11583(6) 0.54890(6) -0.05218(6)
O1F_2 O -0.11583(6) 0.54890(6) 0.05218(6)
O1I_2 O -0.05218(6) 0.11583(6) 0.54890(6)
O1J_2 O 0.05218(6) -0.11583(6) 0.54890(6)
O1K_2 O -0.05218(6) -0.11583(6) -0.54890(6)
O1Q_2 O 0.54890(6) 0.11583(6) 0.05218(6)
O1R O 0.54890(6) -0.11583(6) -0.05218(6)
O1T_2 O 0.11583(6) 0.05218(6) 0.54890(6)
O1VA O 0.54890(6) -0.05218(6) -0.11583(6)
O1YA_2 O 0.54890(6) 0.05218(6) 0.11583(6)
O1ZA O -0.11583(6) 0.54890(6) -0.05218(6)
O1BB_2 O 0.11583(6) -0.54890(6) -0.05218(6)
O1DB O -0.05218(6) -0.11583(6) -0.45110(6)
O1DB_2 O -0.05218(6) -0.11583(6) 0.54890(6)
O1EB_3 O 0.05218(6) -0.11583(6) -0.54890(6)
O1GB_2 O 0.05218(6) 0.11583(6) 0.54890(6)
O1HB_2 O -0.05218(6) 0.54890(6) 0.11583(6)
O1LB_2 O 0.54890(6) -0.11583(6) 0.05218(6)
O1OB_2 O 0.54890(6) 0.11583(6) -0.05218(6)
O1RB_2 O 0.11583(6) -0.05218(6) 0.54890(6)
O2H O 0.0000 0.0000 -0.5000
O2H_2 O 0.0000 0.0000 0.5000
loop_
_geom_bond_atom_site_label_1
_geom_bond_atom_site_label_2
_geom_bond_site_symmetry_1
_geom_bond_site_symmetry_2
C1 H1 1_555 1_555
C2 C1 1_555 1_555
C3 C2 1_555 1_555
C4 C3 1_555 1_555
H2 C4 1_555 1_555
C5 C4 1_555 1_555
H3 C5 1_555 1_555
C6 C5 1_555 1_555
C7 C6 1_555 1_555
Co1 O1 1_555 1_555
O1 C7 1_555 1_555
O2 Co1 1_555 1_555
C1D H1D 1_555 1_555
C2D C1 1_555 1_555
C3D C2D 1_555 1_555
C4D C3D 1_555 1_555
H2D C4D 1_555 1_555
C5D C4D 1_555 1_555
H3D C5D 1_555 1_555
C6D C5D 1_555 1_555
C7D C6D 1_555 1_555
O1D C7D 1_555 1_555
C1H C2 1_555 1_555
H1H C1H 1_555 1_555
C2H C1D 1_555 1_555
C3H C2H 1_555 1_555
C4H C3H 1_555 1_555
H2H C4H 1_555 1_555
C5H C4H 1_555 1_555
H3H C5H 1_555 1_555
C6H C5H 1_555 1_555
C7H C6H 1_555 1_555
O1H C7H 1_555 1_555
C4IB C3D 1_555 1_555
H2IB C4IB 1_555 1_555
C5IB C6D 1_555 1_555
H3IB C5IB 1_555 1_555
O1IB C7D 1_555 1_555
C4NB C3 1_555 1_555
H2NB C4NB 1_555 1_555
C5NB C6 1_555 1_555
H3NB C5NB 1_555 1_555
O1NB C7 1_555 1_555
C4SB C3H 1_555 1_555
H2SB C4SB 1_555 1_555
C5SB C6H 1_555 1_555
H3SB C5SB 1_555 1_555
O1SB C7H 1_555 1_555
Co1B O2 1_555 1_555
C1C H1C 1_555 1_555
C2C C1C 1_555 1_555
C3C C2C 1_555 1_555
C4C C3C 1_555 1_555
H2C C4C 1_555 1_555
C5C C4C 1_555 1_555
H3C C5C 1_555 1_555
C6C C5C 1_555 1_555
C7C C6C 1_555 1_555
O1C Co1B 1_555 1_555
C1E H1E 1_555 1_555
C2E C1C 1_555 1_555
C3E C2E 1_555 1_555
C4E C3E 1_555 1_555
H2E C4E 1_555 1_555
C5E C4E 1_555 1_555
H3E C5E 1_555 1_555
C6E C5E 1_555 1_555
C7E C6E 1_555 1_555
O1E C7E 1_555 1_555
C1J C2C 1_555 1_555
H1J C1J 1_555 1_555
C2J C1E 1_555 1_555
C3J C2J 1_555 1_555
C4J C3J 1_555 1_555
H2J C4J 1_555 1_555
C5J C4J 1_555 1_555
H3J C5J 1_555 1_555
C6J C5J 1_555 1_555
C7J C6J 1_555 1_555
O1J C7J 1_555 1_555
C4KB C3E 1_555 1_555
H2KB C4KB 1_555 1_555
C5KB C6E 1_555 1_555
H3KB C5KB 1_555 1_555
O1KB C7E 1_555 1_555
C4MB C3C 1_555 1_555
H2MB C4MB 1_555 1_555
C5MB C6C 1_555 1_555
H3MB C5MB 1_555 1_555
O1MB C7C 1_555 1_555
C4RB C3J 1_555 1_555
H2RB C4RB 1_555 1_555
C5RB C6J 1_555 1_555
H3RB C5RB 1_555 1_555
O1RB C7J 1_555 1_555
Co1D O1D 1_555 1_555
O2D Co1D 1_555 1_555
Co1D_2 O1E 1_555 1_555
O2D_2 Co1D_2 1_555 1_555
C1G H1G 1_555 1_555
C2G C1G 1_555 1_555
C3G C2G 1_555 1_555
C4G C3G 1_555 1_555
H2G C4G 1_555 1_555
C5G C4G 1_555 1_555
H3G C5G 1_555 1_555
C6G C5G 1_555 1_555
C7G C6G 1_555 1_555
Co1F O2D 1_555 1_555
O1G C7G 1_555 1_555
C1I H1I 1_555 1_555
C2I C1G 1_555 1_555
C3I C2I 1_555 1_555
C4I C3I 1_555 1_555
H2I C4I 1_555 1_555
C5I C4I 1_555 1_555
H3I C5I 1_555 1_555
C6I C5I 1_555 1_555
C7I C6I 1_555 1_555
O1I C7I 1_555 1_555
C1B C2G 1_555 1_555
H1B C1B 1_555 1_555
C2B C1I 1_555 1_555
C3B C2B 1_555 1_555
C4B C3B 1_555 1_555
H2B C4B 1_555 1_555
C5B C4B 1_555 1_555
H3B C5B 1_555 1_555
C6B C5B 1_555 1_555
C7B C6B 1_555 1_555
O1B C7B 1_555 1_555
C4QB C3I 1_555 1_555
H2QB C4QB 1_555 1_555
C5QB C6I 1_555 1_555
H3QB C5QB 1_555 1_555
O1QB C7I 1_555 1_555
C4JB C3G 1_555 1_555
H2JB C4JB 1_555 1_555
C5JB C6G 1_555 1_555
H3JB C5JB 1_555 1_555
O1JB C7G 1_555 1_555
C4OB C3B 1_555 1_555
H2OB C4OB 1_555 1_555
C5OB C6B 1_555 1_555
H3OB C5OB 1_555 1_555
O1OB C7B 1_555 1_555
Co1H O1H 1_555 1_555
Co1J O1J 1_555 1_555
C1K H1K 1_555 1_555
C2K C1K 1_555 1_555
C3K C2K 1_555 1_555
C4K C3K 1_555 1_555
H2K C4K 1_555 1_555
C5K C4K 1_555 1_555
H3K C5K 1_555 1_555
C6K C5K 1_555 1_555
C7K C6K 1_555 1_555
Co1J_2 O1K 1_555 1_555
O1K C7K 1_555 1_555
C1A H1A 1_555 1_555
C2A C1K 1_555 1_555
C3A C2A 1_555 1_555
C4A C3A 1_555 1_555
H2A C4A 1_555 1_555
C5A C4A 1_555 1_555
H3A C5A 1_555 1_555
C6A C5A 1_555 1_555
C7A C6A 1_555 1_555
O1A C7A 1_555 1_555
C1F C2K 1_555 1_555
H1F C1F 1_555 1_555
C2F C1A 1_555 1_555
C3F C2F 1_555 1_555
C4F C3F 1_555 1_555
H2F C4F 1_555 1_555
C5F C4F 1_555 1_555
H3F C5F 1_555 1_555
C6F C5F 1_555 1_555
C7F C6F 1_555 1_555
O1F C7F 1_555 1_555
C4LB C3A 1_555 1_555
H2LB C4LB 1_555 1_555
C5LB C6A 1_555 1_555
H3LB C5LB 1_555 1_555
O1LB C7A 1_555 1_555
C4PB C3K 1_555 1_555
H2PB C4PB 1_555 1_555
C5PB C6K 1_555 1_555
H3PB C5PB 1_555 1_555
O1PB C7K 1_555 1_555
C4HB C3F 1_555 1_555
H2HB C4HB 1_555 1_555
C5HB C6F 1_555 1_555
H3HB C5HB 1_555 1_555
O1HB C7F 1_555 1_555
C1L H1L 1_555 1_555
C2L C1L 1_555 1_555
C3L C2L 1_555 1_555
C4L C3L 1_555 1_555
H2L C4L 1_555 1_555
C5L C4L 1_555 1_555
H3L C5L 1_555 1_555
C6L C5L 1_555 1_555
C7L C6L 1_555 1_555
O1L C7L 1_555 1_555
C1P H1P 1_555 1_555
C2P C1L 1_555 1_555
C3P C2P 1_555 1_555
C4P C3P 1_555 1_555
H2P C4P 1_555 1_555
C5P C4P 1_555 1_555
H3P C5P 1_555 1_555
C6P C5P 1_555 1_555
C7P C6P 1_555 1_555
O1P C7P 1_555 1_555
C1T C2L 1_555 1_555
H1T C1T 1_555 1_555
C2T C1P 1_555 1_555
C3T C2T 1_555 1_555
C4T C3T 1_555 1_555
H2T C4T 1_555 1_555
C5T C4T 1_555 1_555
H3T C5T 1_555 1_555
C6T C5T 1_555 1_555
C7T C6T 1_555 1_555
O1T C7T 1_555 1_555
C4WA C3P 1_555 1_555
H2WA C4WA 1_555 1_555
C5WA C6P 1_555 1_555
H3WA C5WA 1_555 1_555
O1WA Co1B 1_555 1_555
C4BB C3L 1_555 1_555
H2BB C4BB 1_555 1_555
C5BB C6L 1_555 1_555
H3BB C5BB 1_555 1_555
O1BB Co1D 1_555 1_555
C4GB C3T 1_555 1_555
H2GB C4GB 1_555 1_555
C5GB C6T 1_555 1_555
H3GB C5GB 1_555 1_555
O1GB C7T 1_555 1_555
C1N H1N 1_555 1_555
C2N C1N 1_555 1_555
C3N C2N 1_555 1_555
C4N C3N 1_555 1_555
H2N C4N 1_555 1_555
C5N C4N 1_555 1_555
H3N C5N 1_555 1_555
C6N C5N 1_555 1_555
C7N C6N 1_555 1_555
O1N C7N 1_555 1_555
C1S H1S 1_555 1_555
C2S C1N 1_555 1_555
C3S C2S 1_555 1_555
C4S C3S 1_555 1_555
H2S C4S 1_555 1_555
C5S C4S 1_555 1_555
H3S C5S 1_555 1_555
C6S C5S 1_555 1_555
C7S C6S 1_555 1_555
O1S C7S 1_555 1_555
C1U C2N 1_555 1_555
H1U C1U 1_555 1_555
C2U C1S 1_555 1_555
C3U C2U 1_555 1_555
C4U C3U 1_555 1_555
H2U C4U 1_555 1_555
C5U C4U 1_555 1_555
H3U C5U 1_555 1_555
C6U C5U 1_555 1_555
C7U C6U 1_555 1_555
O1U C7U 1_555 1_555
C4XA C3S 1_555 1_555
H2XA C4XA 1_555 1_555
C5XA C6S 1_555 1_555
H3XA C5XA 1_555 1_555
O1XA Co1 1_555 1_555
C4CB C3N 1_555 1_555
H2CB C4CB 1_555 1_555
C5CB C6N 1_555 1_555
H3CB C5CB 1_555 1_555
O1CB Co1D_2 1_555 1_555
C4EB C3U 1_555 1_555
H2EB C4EB 1_555 1_555
C5EB C6U 1_555 1_555
H3EB C5EB 1_555 1_555
O1EB Co1J_2 1_555 1_555
C1N_2 H1N_2 1_555 1_555
C2N_2 C1N_2 1_555 1_555
C3N_2 C2N_2 1_555 1_555
C4N_2 C3N_2 1_555 1_555
H2N_2 C4N_2 1_555 1_555
C5N_2 C4N_2 1_555 1_555
H3N_2 C5N_2 1_555 1_555
C6N_2 C5N_2 1_555 1_555
C7N_2 C6N_2 1_555 1_555
O1N_2 C7N_2 1_555 1_555
C1S_2 H1S_2 1_555 1_555
C2S_2 C1N_2 1_555 1_555
C3S_2 C2S_2 1_555 1_555
C4S_2 C3S_2 1_555 1_555
H2S_2 C4S_2 1_555 1_555
C5S_2 C4S_2 1_555 1_555
H3S_2 C5S_2 1_555 1_555
C6S_2 C5S_2 1_555 1_555
C7S_2 C6S_2 1_555 1_555
O1S_2 C7S_2 1_555 1_555
C1U_2 C2N_2 1_555 1_555
H1U_2 C1U_2 1_555 1_555
C2U_2 C1S_2 1_555 1_555
C3U_2 C2U_2 1_555 1_555
C4U_2 C3U_2 1_555 1_555
H2U_2 C4U_2 1_555 1_555
C5U_2 C4U_2 1_555 1_555
H3U_2 C5U_2 1_555 1_555
C6U_2 C5U_2 1_555 1_555
C7U_2 C6U_2 1_555 1_555
O1U_2 C7U_2 1_555 1_555
C4XA_2 C3S_2 1_555 1_555
H2XA_2 C4XA_2 1_555 1_555
C5XA_2 C6S_2 1_555 1_555
H3XA_2 C5XA_2 1_555 1_555
O1XA_2 C7S_2 1_555 1_555
C4CB_2 C3N_2 1_555 1_555
H2CB_2 C4CB_2 1_555 1_555
C5CB_2 C6N_2 1_555 1_555
H3CB_2 C5CB_2 1_555 1_555
O1CB_2 Co1D 1_555 1_555
C4EB_2 C3U_2 1_555 1_555
H2EB_2 C4EB_2 1_555 1_555
C5EB_2 C6U_2 1_555 1_555
H3EB_2 C5EB_2 1_555 1_555
O1EB_2 C7U_2 1_555 1_555
C1O H1O 1_555 1_555
C2O C1O 1_555 1_555
C3O C2O 1_555 1_555
C4O C3O 1_555 1_555
H2O C4O 1_555 1_555
C5O C4O 1_555 1_555
H3O C5O 1_555 1_555
C6O C5O 1_555 1_555
C7O C6O 1_555 1_555
O1O C7O 1_555 1_555
C1Q H1Q 1_555 1_555
C2Q C1O 1_555 1_555
C3Q C2Q 1_555 1_555
C4Q C3Q 1_555 1_555
H2Q C4Q 1_555 1_555
C5Q C4Q 1_555 1_555
H3Q C5Q 1_555 1_555
C6Q C5Q 1_555 1_555
C7Q C6Q 1_555 1_555
O1Q C7Q 1_555 1_555
C1V C2O 1_555 1_555
H1V C1V 1_555 1_555
C2V C1Q 1_555 1_555
C3V C2V 1_555 1_555
C4V C3V 1_555 1_555
H2V C4V 1_555 1_555
C5V C4V 1_555 1_555
H3V C5V 1_555 1_555
C6V C5V 1_555 1_555
C7V C6V 1_555 1_555
O1V C7V 1_555 1_555
C4YA C3Q 1_555 1_555
H2YA C4YA 1_555 1_555
C5YA C6Q 1_555 1_555
H3YA C5YA 1_555 1_555
O1YA C7Q 1_555 1_555
C4AB C3O 1_555 1_555
H2AB C4AB 1_555 1_555
C5AB C6O 1_555 1_555
H3AB C5AB 1_555 1_555
O1AB Co1F 1_555 1_555
C4FB C3V 1_555 1_555
H2FB C4FB 1_555 1_555
C5FB C6V 1_555 1_555
H3FB C5FB 1_555 1_555
O1FB Co1H 1_555 1_555
Co1P O2 1_555 1_555
Co1R O2 1_555 1_555
Co1T O1SB 1_555 1_555
Co1N O1IB 1_555 1_555
Co1_2 O1A 1_555 1_555
Co1_3 O1XA_2 1_555 1_555
Co1B_2 O1B 1_555 1_555
Co1F_2 O2D_2 1_555 1_555
Co1H_2 O1I 1_555 1_555
Co1J_3 O1EB_2 1_555 1_555
Co1L O1KB 1_555 1_555
Co1L_2 O2D 1_555 1_555
Co1N_2 O2D_2 1_555 1_555
Co1P_2 O1OB 1_555 1_555
Co1R_2 O1LB 1_555 1_555
Co1R_3 O1S_2 1_555 1_555
Co1T_2 O1RB 1_555 1_555
Co1T_3 O1U_2 1_555 1_555
Co1V O1QB 1_555 1_555
Co1V_2 O1PB 1_555 1_555
O1A_2 Co1 1_555 1_555
O1B_2 Co1B 1_555 1_555
O1D_2 Co1D_2 1_555 1_555
O1E_2 Co1D 1_555 1_555
O1F_2 Co1F 1_555 1_555
O1I_2 Co1H 1_555 1_555
O1J_2 Co1J_2 1_555 1_555
O1K_2 Co1J 1_555 1_555
O1Q_2 Co1P 1_555 1_555
O1R Co1R 1_555 1_555
O1T_2 Co1T 1_555 1_555
O1VA Co1B 1_555 1_555
O1YA_2 Co1 1_555 1_555
O1ZA Co1F 1_555 1_555
O1BB_2 Co1D_2 1_555 1_555
O1DB Co1J 1_555 1_555
O1DB_2 Co1J_2 1_555 1_555
O1EB_3 Co1J 1_555 1_555
O1GB_2 Co1H 1_555 1_555
O1HB_2 Co1N 1_555 1_555
O1LB_2 Co1R 1_555 1_555
O1OB_2 Co1P 1_555 1_555
O1RB_2 Co1T 1_555 1_555
O2H Co1J 1_555 1_555
O2H_2 Co1H 1_555 1_555
C1D C2D 1_555 1_555
C1H C2H 1_555 1_555
C4IB C5IB 1_555 1_555
C4NB C5NB 1_555 1_555
O1NB Co1P 1_555 1_555
C4SB C5SB 1_555 1_555
C7C O1C 1_555 1_555
C1E C2E 1_555 1_555
C1J C2J 1_555 1_555
C4KB C5KB 1_555 1_555
C4MB C5MB 1_555 1_555
O1MB Co1R 1_555 1_555
C4RB C5RB 1_555 1_555
O2D Co1N 1_555 1_555
O2D_2 Co1L 1_555 1_555
Co1F O1G 1_555 1_555
C1I C2I 1_555 1_555
C1B C2B 1_555 1_555
C4QB C5QB 1_555 1_555
C4JB C5JB 1_555 1_555
O1JB Co1L_2 1_555 1_555
C4OB C5OB 1_555 1_555
Co1J_2 O2H_2 1_555 1_555
C1A C2A 1_555 1_555
C1F C2F 1_555 1_555
O1F Co1F_2 1_555 1_555
C4LB C5LB 1_555 1_555
C4PB C5PB 1_555 1_555
C4HB C5HB 1_555 1_555
O1HB Co1N_2 1_555 1_555
C7L O1BB 1_555 1_555
O1L Co1L_2 1_555 1_555
C1P C2P 1_555 1_555
C7P O1WA 1_555 1_555
O1P Co1P 1_555 1_555
C1T C2T 1_555 1_555
O1T Co1T_2 1_555 1_555
C4WA C5WA 1_555 1_555
C4BB C5BB 1_555 1_555
C4GB C5GB 1_555 1_555
O1GB Co1H_2 1_555 1_555
C7N O1CB 1_555 1_555
O1N Co1N_2 1_555 1_555
C1S C2S 1_555 1_555
C7S O1XA 1_555 1_555
O1S Co1R 1_555 1_555
C1U C2U 1_555 1_555
C7U O1EB 1_555 1_555
O1U Co1T 1_555 1_555
C4XA C5XA 1_555 1_555
C4CB C5CB 1_555 1_555
C4EB C5EB 1_555 1_555
C7N_2 O1CB_2 1_555 1_555
O1N_2 Co1N 1_555 1_555
C1S_2 C2S_2 1_555 1_555
C1U_2 C2U_2 1_555 1_555
C4XA_2 C5XA_2 1_555 1_555
C4CB_2 C5CB_2 1_555 1_555
C4EB_2 C5EB_2 1_555 1_555
C7O O1AB 1_555 1_555
O1O Co1N 1_555 1_555
C1Q C2Q 1_555 1_555
O1Q Co1P_2 1_555 1_555
C1V C2V 1_555 1_555
C7V O1FB 1_555 1_555
O1V Co1V_2 1_555 1_555
C4YA C5YA 1_555 1_555
O1YA Co1_2 1_555 1_555
C4AB C5AB 1_555 1_555
C4FB C5FB 1_555 1_555
Co1T O2H_2 1_555 1_555
Co1H_2 O2H 1_555 1_555
Co1T_2 O2H 1_555 1_555
Co1V O2H 1_555 1_555
Co1V_2 O2H_2 1_555 1_555

#END
