
#######################################################################
#
#                 Cambridge Crystallographic Data Centre
#                                CCDC 
#
#######################################################################
#
# If this CIF has been generated from an entry in the Cambridge 
# Structural Database, then it will include bibliographic, chemical, 
# crystal, experimental, refinement or atomic coordinate data resulting 
# from the CCDC's data processing and validation procedures.
#
#######################################################################

data_NIHBAI01
_symmetry_cell_setting           monoclinic
_symmetry_space_group_name_H-M   'P 21/c'
_symmetry_Int_Tables_number      14
_space_group_name_Hall           '-P 2ybc'
loop_
_symmetry_equiv_pos_site_id
_symmetry_equiv_pos_as_xyz
1 x,y,z
2 -x,1/2+y,1/2-z
3 -x,-y,-z
4 x,1/2-y,1/2+z
_cell_length_a                   11.3806(2)
_cell_length_b                   9.8451(2)
_cell_length_c                   18.3883(4)
_cell_angle_alpha                90
_cell_angle_beta                 126.9090(10)
_cell_angle_gamma                90
_cell_volume                     1647.38
loop_
_atom_site_label
_atom_site_type_symbol
_atom_site_fract_x
_atom_site_fract_y
_atom_site_fract_z
Fe1 Fe 0.37754(6) 0.08403(5) 0.13308(3)
Fe2 Fe 0.42651(6) 0.10380(5) -0.31262(3)
Fe3 Fe 0.5000 0.0000 0.0000
Fe4 Fe 0.0000 0.0000 0.0000
O1 O 0.4354(3) 0.2058(3) 0.24569(17)
O2 O 0.5505(3) 0.0683(3) 0.36690(18)
O3 O 0.5910(3) 0.0015(2) 0.21935(18)
O4 O 0.6783(3) 0.0016(3) 0.13836(19)
O5 O 0.4544(3) 0.2618(2) 0.10717(17)
O6 O 0.4825(3) 0.2103(3) 0.00019(19)
O7 O 0.3455(3) -0.0799(3) 0.19594(17)
O8 O 0.1038(3) -0.1032(3) 0.1206(2)
O9 O 0.3367(3) -0.0250(3) 0.02309(19)
O10 O 0.1149(3) -0.1077(3) -0.0328(2)
O11 O 0.1594(3) 0.1568(3) 0.05986(17)
O12 O 0.2010(3) 0.3800(3) 0.09198(19)
C1 C 0.4956(5) 0.1778(4) 0.3291(3)
H1 H 0.4981 0.2482 0.3653
C2 C 0.6934(5) -0.0099(4) 0.2107(3)
H2 H 0.7893 -0.0287 0.2640
C3 C 0.4740(4) 0.2917(4) 0.0479(3)
H3 H 0.4830 0.3853 0.0396
C4 C 0.2323(5) -0.1274(4) 0.1849(3)
H4 H 0.2480 -0.1873 0.2305
C5 C 0.2242(5) -0.1002(4) -0.0307(3)
H5 H 0.2259 -0.1549 -0.0726
C6 C 0.1187(5) 0.2822(4) 0.0510(3)
H6 H 0.0165 0.3007 0.0092
Fe1B Fe 0.62246(6) -0.08403(5) -0.13308(3)
Fe1B_2 Fe -0.37754(6) -0.08403(5) -0.13308(3)
Fe1A Fe 0.62246(6) 0.58403(5) 0.36692(3)
Fe2B Fe 0.57349(6) -0.10380(5) 0.31262(3)
Fe2C Fe 0.42651(6) 0.39620(5) 0.18738(3)
Fe2A Fe 0.57349(6) -0.39620(5) -0.18738(3)
Fe2A_2 Fe -0.42651(6) -0.39620(5) -0.18738(3)
Fe2B_2 Fe 0.57349(6) 0.89620(5) 0.31262(3)
Fe3C Fe 0.5000 0.5000 0.5000
Fe4_2 Fe 1.0000 0.0000 0.0000
O1B O 0.5646(3) -0.2058(3) -0.24569(17)
O1C O 0.4354(3) 0.2942(3) -0.25431(17)
O1A O 0.5646(3) 0.7058(3) 0.25431(17)
O2B O 0.4495(3) -0.0683(3) -0.36690(18)
O2A O 0.4495(3) 0.5683(3) 0.13310(18)
O3B O 0.4090(3) -0.0015(2) -0.21935(18)
O3A O 0.4090(3) 0.5015(2) 0.28065(18)
O4B O 0.3217(3) -0.0016(3) -0.13836(19)
O4A O 0.3217(3) 0.5016(3) 0.36164(19)
O5B O 0.5456(3) -0.2618(2) -0.10717(17)
O5C O 0.4544(3) 0.2382(2) -0.39283(17)
O6B O 0.5175(3) -0.2103(3) -0.00019(19)
O7B O 0.6545(3) 0.0799(3) -0.19594(17)
O7A O 0.6545(3) 0.4201(3) 0.30406(17)
O8B O -0.1038(3) 0.1032(3) -0.1206(2)
O9B O 0.6633(3) 0.0250(3) -0.02309(19)
O10B O 0.8851(3) 0.1077(3) 0.0328(2)
O10B_2 O -0.1149(3) 0.1077(3) 0.0328(2)
O11B O -0.1594(3) -0.1568(3) -0.05986(17)
O11B_2 O 0.8406(3) -0.1568(3) -0.05986(17)
O12C O 0.2010(3) 0.1200(3) -0.40802(19)
O12B O -0.2010(3) -0.3800(3) -0.09198(19)
C1A C 0.5044(5) 0.6778(4) 0.1709(3)
H1A H 0.5019 0.7482 0.1347
C2B C 0.3066(5) 0.0099(4) -0.2107(3)
C2A C 0.3066(5) 0.4901(4) 0.2893(3)
H2B H 0.2107 0.0287 -0.2640
H2A H 0.2107 0.4713 0.2360
C3B C 0.5260(4) -0.2917(4) -0.0479(3)
H3B H 0.5170 -0.3853 -0.0396
C5B C 0.7758(5) 0.1002(4) 0.0307(3)
H5B H 0.7741 0.1549 0.0726
C6B C -0.1187(5) -0.2822(4) -0.0510(3)
H6B H -0.0165 -0.3007 -0.0092
I1 I -0.0338(4) -0.2771(3) 0.2296(2)
I2 I -0.1503(3) -0.5254(2) 0.13309(17)
I3? I -0.0198(13) -0.250(2) 0.2390(8)
I4? I -0.1217(7) -0.5124(8) 0.1662(7)
loop_
_geom_bond_atom_site_label_1
_geom_bond_atom_site_label_2
_geom_bond_site_symmetry_1
_geom_bond_site_symmetry_2
Fe1 O1 1_555 1_555
Fe2 O1C 1_555 1_555
Fe3 O4 1_555 1_555
Fe4 O8 1_555 1_555
O1 C1 1_555 1_555
O2 C1 1_555 1_555
O3 Fe1 1_555 1_555
O4 C2 1_555 1_555
O5 Fe1 1_555 1_555
O6 Fe3 1_555 1_555
O7 Fe1 1_555 1_555
O8 C4 1_555 1_555
O9 Fe1 1_555 1_555
O10 Fe4 1_555 1_555
O11 Fe1 1_555 1_555
O12 C6 1_555 1_555
C1 H1 1_555 1_555
C2 O3 1_555 1_555
H2 C2 1_555 1_555
C3 O5 1_555 1_555
H3 C3 1_555 1_555
C4 O7 1_555 1_555
H4 C4 1_555 1_555
C5 O9 1_555 1_555
H5 C5 1_555 1_555
C6 O11 1_555 1_555
H6 C6 1_555 1_555
I1 I2 1_555 1_555
Fe1B O1B 1_555 1_555
Fe1B_2 O11B 1_555 1_555
Fe1A O1A 1_555 1_555
Fe2B O2 1_555 1_555
Fe2C O1 1_555 1_555
Fe2A O1B 1_555 1_555
Fe2A_2 O12B 1_555 1_555
Fe2B_2 O1A 1_555 1_555
Fe3C O4A 1_555 1_555
Fe4_2 O10B 1_555 1_555
O1A C1A 1_555 1_555
O2B Fe2 1_555 1_555
O2A Fe2C 1_555 1_555
O3B Fe2 1_555 1_555
O3A Fe1A 1_555 1_555
O4B Fe3 1_555 1_555
O4A C2A 1_555 1_555
O5B Fe1B 1_555 1_555
O5C Fe2 1_555 1_555
O6B Fe3 1_555 1_555
O7B Fe2 1_555 1_555
O7A Fe1A 1_555 1_555
O8B Fe4 1_555 1_555
O9B Fe3 1_555 1_555
O10B C5B 1_555 1_555
O10B_2 Fe4 1_555 1_555
O11B Fe4 1_555 1_555
O11B_2 Fe1B 1_555 1_555
O12C Fe2 1_555 1_555
O12B C6B 1_555 1_555
C1A O2A 1_555 1_555
H1A C1A 1_555 1_555
C2B O3B 1_555 1_555
C2A O3A 1_555 1_555
H2B C2B 1_555 1_555
H2A C2A 1_555 1_555
C3B O5B 1_555 1_555
H3B C3B 1_555 1_555
C5B O9B 1_555 1_555
H5B C5B 1_555 1_555
C6B O11B 1_555 1_555
H6B C6B 1_555 1_555
Fe3 O9 1_555 1_555
Fe4 O11 1_555 1_555
O3 Fe2B 1_555 1_555
O5 Fe2C 1_555 1_555
O6 C3 1_555 1_555
O7 Fe2B 1_555 1_555
O10 C5 1_555 1_555
O12 Fe2C 1_555 1_555
Fe1B O3B 1_555 1_555
Fe1B O7B 1_555 1_555
Fe1B O9B 1_555 1_555
Fe2C O3A 1_555 1_555
Fe2C O7A 1_555 1_555
Fe2A O5B 1_555 1_555
Fe4_2 O11B_2 1_555 1_555
O4B C2B 1_555 1_555
O6B C3B 1_555 1_555

#END
