
#######################################################################
#
#                 Cambridge Crystallographic Data Centre
#                                CCDC 
#
#######################################################################
#
# If this CIF has been generated from an entry in the Cambridge 
# Structural Database, then it will include bibliographic, chemical, 
# crystal, experimental, refinement or atomic coordinate data resulting 
# from the CCDC's data processing and validation procedures.
#
#######################################################################

data_NIKYOW02
_symmetry_cell_setting           monoclinic
_symmetry_space_group_name_H-M   'P 21/c'
_symmetry_Int_Tables_number      14
_space_group_name_Hall           '-P 2ybc'
loop_
_symmetry_equiv_pos_site_id
_symmetry_equiv_pos_as_xyz
1 x,y,z
2 -x,1/2+y,1/2-z
3 -x,-y,-z
4 x,1/2-y,1/2+z
_cell_length_a                   11.4207(2)
_cell_length_b                   9.9627(2)
_cell_length_c                   18.3039(4)
_cell_angle_alpha                90
_cell_angle_beta                 127.166(2)
_cell_angle_gamma                90
_cell_volume                     1659.63
loop_
_atom_site_label
_atom_site_type_symbol
_atom_site_fract_x
_atom_site_fract_y
_atom_site_fract_z
Fe1 Fe 0.37727(4) 0.07967(3) 0.13273(2)
Fe2 Fe 0.42776(4) 0.10906(3) -0.31225(2)
Fe3 Fe 0.5000 0.0000 0.0000
Fe4 Fe 0.0000 0.0000 0.0000
O1 O 0.4404(2) 0.20053(16) 0.24755(11)
O2 O 0.5585(2) 0.06453(18) 0.36987(12)
O3 O 0.5910(2) -0.00567(17) 0.21859(12)
O4 O 0.6835(2) -0.0002(2) 0.14134(13)
O5 O 0.4555(2) 0.25794(17) 0.10731(11)
O6 O 0.4808(2) 0.2085(2) -0.00131(13)
O7 O 0.3450(2) -0.08166(17) 0.19719(12)
O8 O 0.1048(2) -0.1009(2) 0.12562(14)
O9 O 0.3348(2) -0.02757(18) 0.02178(12)
O10 O 0.1142(2) -0.1128(2) -0.03589(14)
O11 O 0.16297(19) 0.15765(18) 0.05970(12)
O12 O 0.2014(2) 0.37809(18) 0.09044(13)
C1 C 0.5047(3) 0.1738(3) 0.33173(18)
H1 H 0.5120 0.2433 0.3682
C2 C 0.6941(3) -0.0145(3) 0.21171(19)
H2 H 0.7871 -0.0336 0.2651
C3 C 0.4753(3) 0.2879(3) 0.04880(19)
H3 H 0.4869 0.3785 0.0424
C4 C 0.2338(3) -0.1249(3) 0.18843(19)
H4 H 0.2512 -0.1812 0.2346
C5 C 0.2245(3) -0.1045(3) -0.03183(19)
H5 H 0.2290 -0.1591 -0.0713
C6 C 0.1215(3) 0.2802(3) 0.04915(19)
H6 H 0.0215 0.2969 0.0062
Fe1B Fe 0.62273(4) -0.07967(3) -0.13273(2)
Fe1B_2 Fe -0.37727(4) -0.07967(3) -0.13273(2)
Fe1A Fe 0.62273(4) 0.57967(3) 0.36727(2)
Fe2B Fe 0.57224(4) -0.10906(3) 0.31225(2)
Fe2C Fe 0.42776(4) 0.39094(3) 0.18775(2)
Fe2A Fe 0.57224(4) -0.39094(3) -0.18775(2)
Fe2A_2 Fe -0.42776(4) -0.39094(3) -0.18775(2)
Fe2B_2 Fe 0.57224(4) 0.89094(3) 0.31225(2)
Fe3C Fe 0.5000 0.5000 0.5000
Fe4_2 Fe 1.0000 0.0000 0.0000
O1B O 0.5596(2) -0.20053(16) -0.24755(11)
O1C O 0.4404(2) 0.29947(16) -0.25245(11)
O1A O 0.5596(2) 0.70053(16) 0.25245(11)
O2B O 0.4415(2) -0.06453(18) -0.36987(12)
O2A O 0.4415(2) 0.56453(18) 0.13013(12)
O3B O 0.4090(2) 0.00567(17) -0.21859(12)
O3A O 0.4090(2) 0.49433(17) 0.28141(12)
O4B O 0.3165(2) 0.0002(2) -0.14134(13)
O4A O 0.3165(2) 0.4998(2) 0.35866(13)
O5B O 0.5445(2) -0.25794(17) -0.10731(11)
O5C O 0.4555(2) 0.24206(17) -0.39269(11)
O6B O 0.5192(2) -0.2085(2) 0.00131(13)
O7B O 0.6550(2) 0.08166(17) -0.19719(12)
O7A O 0.6550(2) 0.41834(17) 0.30281(12)
O8B O -0.1048(2) 0.1009(2) -0.12562(14)
O9B O 0.6652(2) 0.02757(18) -0.02178(12)
O10B O 0.8858(2) 0.1128(2) 0.03589(14)
O10B_2 O -0.1142(2) 0.1128(2) 0.03589(14)
O11B O -0.16297(19) -0.15765(18) -0.05970(12)
O11B_2 O 0.83703(19) -0.15765(18) -0.05970(12)
O12C O 0.2014(2) 0.12191(18) -0.40956(13)
O12B O -0.2014(2) -0.37809(18) -0.09044(13)
C1A C 0.4953(3) 0.6738(3) 0.16827(18)
H1A H 0.4880 0.7433 0.1318
C2B C 0.3059(3) 0.0145(3) -0.21171(19)
C2A C 0.3059(3) 0.4855(3) 0.28829(19)
H2B H 0.2129 0.0336 -0.2651
H2A H 0.2129 0.4664 0.2349
C3B C 0.5247(3) -0.2879(3) -0.04880(19)
H3B H 0.5131 -0.3785 -0.0424
C5B C 0.7755(3) 0.1045(3) 0.03183(19)
H5B H 0.7710 0.1591 0.0713
C6B C -0.1215(3) -0.2802(3) -0.04915(19)
H6B H -0.0215 -0.2969 -0.0062
C7 C 0.1603(13) 0.5234(10) -0.1042(6)
O13 O 0.2044(10) 0.5703(8) -0.1351(6)
O14 O 0.104(6) 0.327(4) -0.203(3)
C8? C 0.081(2) 0.307(3) -0.1887(16)
O15? O 0.1040(9) 0.4003(7) -0.1275(5)
O16? O 0.138(8) 0.555(6) -0.057(5)
O17? O 0.165(6) 0.372(5) -0.200(3)
loop_
_geom_bond_atom_site_label_1
_geom_bond_atom_site_label_2
_geom_bond_site_symmetry_1
_geom_bond_site_symmetry_2
Fe1 O1 1_555 1_555
Fe2 O1C 1_555 1_555
Fe3 O4 1_555 1_555
Fe4 O8 1_555 1_555
O1 C1 1_555 1_555
O2 C1 1_555 1_555
O3 Fe1 1_555 1_555
O4 C2 1_555 1_555
O5 Fe1 1_555 1_555
O6 Fe3 1_555 1_555
O7 Fe1 1_555 1_555
O8 C4 1_555 1_555
O9 Fe1 1_555 1_555
O10 Fe4 1_555 1_555
O11 Fe1 1_555 1_555
O12 C6 1_555 1_555
C1 H1 1_555 1_555
C2 O3 1_555 1_555
H2 C2 1_555 1_555
C3 O5 1_555 1_555
H3 C3 1_555 1_555
C4 O7 1_555 1_555
H4 C4 1_555 1_555
C5 O9 1_555 1_555
H5 C5 1_555 1_555
C6 O11 1_555 1_555
H6 C6 1_555 1_555
C7 O13 1_555 1_555
Fe1B O1B 1_555 1_555
Fe1B_2 O11B 1_555 1_555
Fe1A O1A 1_555 1_555
Fe2B O2 1_555 1_555
Fe2C O1 1_555 1_555
Fe2A O1B 1_555 1_555
Fe2A_2 O12B 1_555 1_555
Fe2B_2 O1A 1_555 1_555
Fe3C O4A 1_555 1_555
Fe4_2 O10B 1_555 1_555
O1A C1A 1_555 1_555
O2B Fe2 1_555 1_555
O2A Fe2C 1_555 1_555
O3B Fe2 1_555 1_555
O3A Fe1A 1_555 1_555
O4B Fe3 1_555 1_555
O4A C2A 1_555 1_555
O5B Fe1B 1_555 1_555
O5C Fe2 1_555 1_555
O6B Fe3 1_555 1_555
O7B Fe2 1_555 1_555
O7A Fe1A 1_555 1_555
O8B Fe4 1_555 1_555
O9B Fe3 1_555 1_555
O10B C5B 1_555 1_555
O10B_2 Fe4 1_555 1_555
O11B Fe4 1_555 1_555
O11B_2 Fe1B 1_555 1_555
O12C Fe2 1_555 1_555
O12B C6B 1_555 1_555
C1A O2A 1_555 1_555
H1A C1A 1_555 1_555
C2B O3B 1_555 1_555
C2A O3A 1_555 1_555
H2B C2B 1_555 1_555
H2A C2A 1_555 1_555
C3B O5B 1_555 1_555
H3B C3B 1_555 1_555
C5B O9B 1_555 1_555
H5B C5B 1_555 1_555
C6B O11B 1_555 1_555
H6B C6B 1_555 1_555
Fe3 O9 1_555 1_555
Fe4 O11 1_555 1_555
O3 Fe2B 1_555 1_555
O5 Fe2C 1_555 1_555
O6 C3 1_555 1_555
O7 Fe2B 1_555 1_555
O10 C5 1_555 1_555
O12 Fe2C 1_555 1_555
Fe1B O3B 1_555 1_555
Fe1B O7B 1_555 1_555
Fe1B O9B 1_555 1_555
Fe2C O3A 1_555 1_555
Fe2C O7A 1_555 1_555
Fe2A O5B 1_555 1_555
Fe4_2 O11B_2 1_555 1_555
O4B C2B 1_555 1_555
O6B C3B 1_555 1_555

#END
