
#######################################################################
#
#                 Cambridge Crystallographic Data Centre
#                                CCDC 
#
#######################################################################
#
# If this CIF has been generated from an entry in the Cambridge 
# Structural Database, then it will include bibliographic, chemical, 
# crystal, experimental, refinement or atomic coordinate data resulting 
# from the CCDC's data processing and validation procedures.
#
#######################################################################

data_NIKZEN
_symmetry_cell_setting           monoclinic
_symmetry_space_group_name_H-M   'P 21/c'
_symmetry_Int_Tables_number      14
_space_group_name_Hall           '-P 2ybc'
loop_
_symmetry_equiv_pos_site_id
_symmetry_equiv_pos_as_xyz
1 x,y,z
2 -x,1/2+y,1/2-z
3 -x,-y,-z
4 x,1/2-y,1/2+z
_cell_length_a                   11.4082(2)
_cell_length_b                   9.8855(2)
_cell_length_c                   18.4668(4)
_cell_angle_alpha                90
_cell_angle_beta                 126.7290(10)
_cell_angle_gamma                90
_cell_volume                     1669.15
loop_
_atom_site_label
_atom_site_type_symbol
_atom_site_fract_x
_atom_site_fract_y
_atom_site_fract_z
Fe1 Fe -0.62363(4) 0.07608(4) 0.13291(3)
Fe2 Fe -0.56843(4) 0.11399(3) -0.30824(3)
Fe3 Fe -0.5000 0.0000 0.0000
Fe4 Fe -1.0000 0.0000 0.0000
O1 O -0.55872(19) 0.19516(17) 0.24872(12)
O2 O -0.4386(2) 0.05822(17) 0.36939(13)
O3 O -0.4120(2) -0.01012(17) 0.21546(13)
O4 O -0.3170(2) -0.00396(19) 0.13912(14)
O5 O -0.54579(19) 0.25583(17) 0.10850(12)
O6 O -0.5190(2) 0.20969(18) 0.00025(13)
O7 O -0.65635(19) -0.08752(17) 0.19505(13)
O8 O -0.8977(2) -0.11708(19) 0.11844(14)
O9 O -0.6638(2) -0.02909(18) 0.02279(13)
O10 O -0.8901(2) -0.10852(18) -0.04095(14)
O11 O -0.83572(19) 0.15517(17) 0.06470(13)
O12 O -0.7964(2) 0.37597(17) 0.09990(13)
C1 C -0.4935(3) 0.1682(3) 0.33204(19)
H1 H -0.4865 0.2379 0.3683
C2 C -0.3080(3) -0.0205(3) 0.2081(2)
H2 H -0.2163 -0.0429 0.2602
C3 C -0.5252(3) 0.2882(3) 0.0501(2)
H3 H -0.5138 0.3798 0.0443
C4 C -0.7695(3) -0.1413(3) 0.1815(2)
H4 H -0.7536 -0.2053 0.2234
C5 C -0.7747(3) -0.1042(3) -0.0329(2)
H5 H -0.7672 -0.1603 -0.0704
C6 C -0.8762(3) 0.2776(3) 0.05849(19)
H6 H -0.9761 0.2946 0.0187
Fe1B Fe -0.37637(4) -0.07608(4) -0.13291(3)
Fe1B_2 Fe -1.37637(4) -0.07608(4) -0.13291(3)
Fe1A Fe -0.37637(4) 0.57608(4) 0.36709(3)
Fe2B Fe -0.43157(4) -0.11399(3) 0.30824(3)
Fe2C Fe -0.56843(4) 0.38601(3) 0.19176(3)
Fe2A Fe -0.43157(4) -0.38601(3) -0.19176(3)
Fe2A_2 Fe -1.43157(4) -0.38601(3) -0.19176(3)
Fe2B_2 Fe -0.43157(4) 0.88601(3) 0.30824(3)
Fe3C Fe -0.5000 0.5000 0.5000
Fe4_2 Fe 0.0000 0.0000 0.0000
O1B O -0.44128(19) -0.19516(17) -0.24872(12)
O1C O -0.55872(19) 0.30484(17) -0.25128(12)
O1A O -0.44128(19) 0.69516(17) 0.25128(12)
O2B O -0.5614(2) -0.05822(17) -0.36939(13)
O2A O -0.5614(2) 0.55822(17) 0.13061(13)
O3B O -0.5880(2) 0.01012(17) -0.21546(13)
O3A O -0.5880(2) 0.48988(17) 0.28454(13)
O4B O -0.6830(2) 0.00396(19) -0.13912(14)
O4A O -0.6830(2) 0.49604(19) 0.36088(14)
O5B O -0.45421(19) -0.25583(17) -0.10850(12)
O5C O -0.54579(19) 0.24417(17) -0.39150(12)
O6B O -0.4810(2) -0.20969(18) -0.00025(13)
O7B O -0.34365(19) 0.08752(17) -0.19505(13)
O7A O -0.34365(19) 0.41248(17) 0.30495(13)
O8B O -1.1023(2) 0.11708(19) -0.11844(14)
O9B O -0.3362(2) 0.02909(18) -0.02279(13)
O10B O -0.1099(2) 0.10852(18) 0.04095(14)
O10B_2 O -1.1099(2) 0.10852(18) 0.04095(14)
O11B O -1.16428(19) -0.15517(17) -0.06470(13)
O11B_2 O -0.16428(19) -0.15517(17) -0.06470(13)
O12C O -0.7964(2) 0.12403(17) -0.40010(13)
O12B O -1.2036(2) -0.37597(17) -0.09990(13)
C1A C -0.5065(3) 0.6682(3) 0.16796(19)
H1A H -0.5135 0.7379 0.1317
C2B C -0.6920(3) 0.0205(3) -0.2081(2)
C2A C -0.6920(3) 0.4795(3) 0.2919(2)
H2B H -0.7837 0.0429 -0.2602
H2A H -0.7837 0.4571 0.2398
C3B C -0.4748(3) -0.2882(3) -0.0501(2)
H3B H -0.4862 -0.3798 -0.0443
C5B C -0.2253(3) 0.1042(3) 0.0329(2)
H5B H -0.2328 0.1603 0.0704
C6B C -1.1238(3) -0.2776(3) -0.05849(19)
H6B H -1.0239 -0.2946 -0.0187
O13 O -0.2263(5) 0.4278(6) 0.1624(3)
C7 C -0.1627(4) 0.5258(6) 0.1610(3)
C8 C -0.1190(5) 0.5161(7) 0.1010(4)
H7 H -0.0600 0.4368 0.1160
H8 H -0.0636 0.5949 0.1083
H9 H -0.2046 0.5102 0.0395
C9 C -0.1259(8) 0.6447(6) 0.2176(4)
H10 H -0.1575 0.6313 0.2549
H11 H -0.1739 0.7226 0.1799
H12 H -0.0219 0.6584 0.2551
loop_
_geom_bond_atom_site_label_1
_geom_bond_atom_site_label_2
_geom_bond_site_symmetry_1
_geom_bond_site_symmetry_2
Fe1 O1 1_555 1_555
Fe2 O1C 1_555 1_555
Fe3 O4 1_555 1_555
Fe4 O8 1_555 1_555
O1 C1 1_555 1_555
O2 C1 1_555 1_555
O3 Fe1 1_555 1_555
O4 C2 1_555 1_555
O5 Fe1 1_555 1_555
O6 Fe3 1_555 1_555
O7 Fe1 1_555 1_555
O8 C4 1_555 1_555
O9 Fe1 1_555 1_555
O10 Fe4 1_555 1_555
O11 Fe1 1_555 1_555
O12 C6 1_555 1_555
C1 H1 1_555 1_555
C2 O3 1_555 1_555
H2 C2 1_555 1_555
C3 O5 1_555 1_555
H3 C3 1_555 1_555
C4 O7 1_555 1_555
H4 C4 1_555 1_555
C5 O9 1_555 1_555
H5 C5 1_555 1_555
C6 O11 1_555 1_555
H6 C6 1_555 1_555
O13 C7 1_555 1_555
C7 C8 1_555 1_555
C8 H7 1_555 1_555
H8 C8 1_555 1_555
H9 C8 1_555 1_555
C9 C7 1_555 1_555
H10 C9 1_555 1_555
H11 C9 1_555 1_555
H12 C9 1_555 1_555
Fe1B O1B 1_555 1_555
Fe1B_2 O11B 1_555 1_555
Fe1A O1A 1_555 1_555
Fe2B O2 1_555 1_555
Fe2C O1 1_555 1_555
Fe2A O1B 1_555 1_555
Fe2A_2 O12B 1_555 1_555
Fe2B_2 O1A 1_555 1_555
Fe3C O4A 1_555 1_555
Fe4_2 O10B 1_555 1_555
O1A C1A 1_555 1_555
O2B Fe2 1_555 1_555
O2A Fe2C 1_555 1_555
O3B Fe2 1_555 1_555
O3A Fe1A 1_555 1_555
O4B Fe3 1_555 1_555
O4A C2A 1_555 1_555
O5B Fe1B 1_555 1_555
O5C Fe2 1_555 1_555
O6B Fe3 1_555 1_555
O7B Fe2 1_555 1_555
O7A Fe1A 1_555 1_555
O8B Fe4 1_555 1_555
O9B Fe3 1_555 1_555
O10B C5B 1_555 1_555
O10B_2 Fe4 1_555 1_555
O11B Fe4 1_555 1_555
O11B_2 Fe1B 1_555 1_555
O12C Fe2 1_555 1_555
O12B C6B 1_555 1_555
C1A O2A 1_555 1_555
H1A C1A 1_555 1_555
C2B O3B 1_555 1_555
C2A O3A 1_555 1_555
H2B C2B 1_555 1_555
H2A C2A 1_555 1_555
C3B O5B 1_555 1_555
H3B C3B 1_555 1_555
C5B O9B 1_555 1_555
H5B C5B 1_555 1_555
C6B O11B 1_555 1_555
H6B C6B 1_555 1_555
Fe3 O9 1_555 1_555
Fe4 O11 1_555 1_555
O3 Fe2B 1_555 1_555
O5 Fe2C 1_555 1_555
O6 C3 1_555 1_555
O7 Fe2B 1_555 1_555
O10 C5 1_555 1_555
O12 Fe2C 1_555 1_555
Fe1B O3B 1_555 1_555
Fe1B O7B 1_555 1_555
Fe1B O9B 1_555 1_555
Fe2C O3A 1_555 1_555
Fe2C O7A 1_555 1_555
Fe2A O5B 1_555 1_555
Fe4_2 O11B_2 1_555 1_555
O4B C2B 1_555 1_555
O6B C3B 1_555 1_555

#END
