
#######################################################################
#
#                 Cambridge Crystallographic Data Centre
#                                CCDC 
#
#######################################################################
#
# If this CIF has been generated from an entry in the Cambridge 
# Structural Database, then it will include bibliographic, chemical, 
# crystal, experimental, refinement or atomic coordinate data resulting 
# from the CCDC's data processing and validation procedures.
#
#######################################################################

data_NIMVIP
_symmetry_cell_setting           monoclinic
_symmetry_space_group_name_H-M   'C 2/c'
_symmetry_Int_Tables_number      15
_space_group_name_Hall           '-C 2yn'
loop_
_symmetry_equiv_pos_site_id
_symmetry_equiv_pos_as_xyz
1 x,y,z
2 1/2+x,1/2+y,z
3 -x,y,1/2-z
4 1/2-x,1/2+y,1/2-z
5 -x,-y,-z
6 1/2-x,1/2-y,-z
7 x,-y,1/2+z
8 1/2+x,1/2-y,1/2+z
_cell_length_a                   21.113(6)
_cell_length_b                   9.306(2)
_cell_length_c                   17.348(5)
_cell_angle_alpha                90
_cell_angle_beta                 106.375(3)
_cell_angle_gamma                90
_cell_volume                     3270.23
loop_
_atom_site_label
_atom_site_type_symbol
_atom_site_fract_x
_atom_site_fract_y
_atom_site_fract_z
Pr1 Pr 0.013735(8) 0.683773(17) 0.073138(10)
Cu1 Cu 0.33537(3) 0.42972(10) -0.13574(4)
C1 C -0.04075(17) 0.3480(4) 0.11695(19)
C2 C -0.07535(17) 0.2797(4) 0.17285(19)
C3 C -0.1007(2) 0.3635(4) 0.2225(2)
H1 H -0.0982 0.4632 0.2209
C4 C -0.1301(2) 0.2964(5) 0.2747(3)
H2 H -0.1481 0.3535 0.3072
C5 C -0.1111(3) 0.0757(5) 0.2310(4)
H3 H -0.1152 -0.0236 0.2328
C6 C -0.0815(2) 0.1336(4) 0.1766(3)
H4 H -0.0659 0.0741 0.1429
C7 C 0.12865(16) 0.5218(4) 0.05077(19)
C8 C 0.18406(17) 0.4890(4) 0.0142(2)
C9 C 0.1772(2) 0.3843(5) -0.0427(3)
H5 H 0.1411 0.3226 -0.0538
C10 C 0.2241(2) 0.3709(6) -0.0837(3)
H6 H 0.2181 0.3003 -0.1230
C11 C 0.2864(3) 0.5486(6) -0.0108(3)
H7 H 0.3249 0.6033 0.0023
C12 C 0.2405(2) 0.5699(6) 0.0322(3)
H8 H 0.2482 0.6385 0.0727
C13 C 0.03588(16) 1.0163(3) 0.02343(19)
C14 C 0.03745(16) 0.7443(3) 0.26811(19)
N1 N -0.13383(17) 0.1547(4) 0.2808(2)
N2 N 0.27729(17) 0.4534(5) -0.0698(2)
O1 O -0.01825(13) 0.4718(3) 0.13507(15)
O2 O -0.03921(14) 0.2772(3) 0.05639(15)
O3 O 0.13566(13) 0.6231(3) 0.09922(16)
O4 O 0.07548(12) 0.4510(3) 0.02771(14)
O5 O 0.06463(12) 0.9285(2) 0.07681(14)
O6 O 0.06134(12) 1.1276(3) 0.00439(15)
O7 O 0.07160(12) 0.7263(3) 0.21970(14)
O8 O 0.05858(12) 0.7650(3) 0.34206(13)
Pr1D Pr -0.013735(8) 0.316227(17) -0.073138(10)
Pr1D_2 Pr -0.013735(8) 1.316227(17) -0.073138(10)
Pr1B Pr -0.013735(8) 0.683773(17) 0.426862(10)
Cu1C Cu 0.16463(3) 0.92972(10) -0.36426(4)
Cu1G Cu -0.16463(3) 0.07028(10) 0.36426(4)
Cu1D Cu -0.33537(3) 0.57028(10) 0.13574(4)
C1D C 0.04075(17) 0.6520(4) -0.11695(19)
C2D C 0.07535(17) 0.7203(4) -0.17285(19)
C3D C 0.1007(2) 0.6365(4) -0.2225(2)
H1D H 0.0982 0.5368 -0.2209
C4D C 0.1301(2) 0.7036(5) -0.2747(3)
H2D H 0.1481 0.6465 -0.3072
C5D C 0.1111(3) 0.9243(5) -0.2310(4)
H3D H 0.1152 1.0236 -0.2328
C6D C 0.0815(2) 0.8664(4) -0.1766(3)
H4D H 0.0659 0.9259 -0.1429
C7D C -0.12865(16) 0.4782(4) -0.05077(19)
C8D C -0.18406(17) 0.5110(4) -0.0142(2)
C9D C -0.1772(2) 0.6157(5) 0.0427(3)
H5D H -0.1411 0.6774 0.0538
C10D C -0.2241(2) 0.6291(6) 0.0837(3)
H6D H -0.2181 0.6997 0.1230
C11D C -0.2864(3) 0.4514(6) 0.0108(3)
H7D H -0.3249 0.3967 -0.0023
C12D C -0.2405(2) 0.4301(6) -0.0322(3)
H8D H -0.2482 0.3615 -0.0727
C13D C -0.03588(16) 0.9837(3) -0.02343(19)
C14B C -0.03745(16) 0.7443(3) 0.23189(19)
N1D N 0.13383(17) 0.8453(4) -0.2808(2)
N1G N 0.36617(17) 0.3453(4) -0.2192(2)
N1C N -0.36617(17) 0.6547(4) 0.2192(2)
N2D N -0.27729(17) 0.5466(5) 0.0698(2)
O1D O 0.01825(13) 0.5282(3) -0.13507(15)
O1B O 0.01825(13) 0.4718(3) 0.36493(15)
O2D O 0.03921(14) 0.7228(3) -0.05639(15)
O2F O -0.03921(14) 0.7228(3) 0.55639(15)
O3D O -0.13566(13) 0.3769(3) -0.09922(16)
O3B O -0.13566(13) 0.6231(3) 0.40078(16)
O4D O -0.07548(12) 0.5490(3) -0.02771(14)
O4F O 0.07548(12) 0.5490(3) 0.52771(14)
O4B O -0.07548(12) 0.4510(3) 0.47229(14)
O5D O -0.06463(12) 1.0715(2) -0.07681(14)
O5B O -0.06463(12) 0.9285(2) 0.42319(14)
O6D O -0.06134(12) 0.8724(3) -0.00439(15)
O6F O 0.06134(12) 0.8724(3) 0.50439(15)
O7B O -0.07160(12) 0.7263(3) 0.28030(14)
O8B O -0.05858(12) 0.7650(3) 0.15794(13)
O9 O -0.2051(2) -0.1905(5) 0.2675(3)
loop_
_geom_bond_atom_site_label_1
_geom_bond_atom_site_label_2
_geom_bond_site_symmetry_1
_geom_bond_site_symmetry_2
Pr1 O1 1_555 1_555
Cu1 N2 1_555 1_555
C1 C2 1_555 1_555
C2 C3 1_555 1_555
C3 H1 1_555 1_555
C4 C3 1_555 1_555
H2 C4 1_555 1_555
C5 H3 1_555 1_555
C6 C2 1_555 1_555
H4 C6 1_555 1_555
C7 C8 1_555 1_555
C8 C9 1_555 1_555
C9 H5 1_555 1_555
C10 C9 1_555 1_555
H6 C10 1_555 1_555
C11 H7 1_555 1_555
C12 C8 1_555 1_555
H8 C12 1_555 1_555
C13 O5 1_555 1_555
C14 O7 1_555 1_555
N1 C4 1_555 1_555
N2 C10 1_555 1_555
O1 C1 1_555 1_555
O2 C1 1_555 1_555
O3 Pr1 1_555 1_555
O4 Pr1 1_555 1_555
O5 Pr1 1_555 1_555
O6 C13 1_555 1_555
O7 Pr1 1_555 1_555
O8 C14 1_555 1_555
Pr1D O2 1_555 1_555
Pr1D_2 O6 1_555 1_555
Pr1B O8 1_555 1_555
Cu1C N1D 1_555 1_555
Cu1G N1 1_555 1_555
Cu1D N1C 1_555 1_555
C1D C2D 1_555 1_555
C2D C3D 1_555 1_555
C3D H1D 1_555 1_555
C4D C3D 1_555 1_555
H2D C4D 1_555 1_555
C5D H3D 1_555 1_555
C6D C2D 1_555 1_555
H4D C6D 1_555 1_555
C7D C8D 1_555 1_555
C8D C9D 1_555 1_555
C9D H5D 1_555 1_555
C10D C9D 1_555 1_555
H6D C10D 1_555 1_555
C11D H7D 1_555 1_555
C12D C8D 1_555 1_555
H8D C12D 1_555 1_555
C13D C13 1_555 1_555
C14B C14 1_555 1_555
N1D C4D 1_555 1_555
N1G Cu1 1_555 1_555
N2D Cu1D 1_555 1_555
O1D Pr1D 1_555 1_555
O1B Pr1B 1_555 1_555
O2D Pr1 1_555 1_555
O2F Pr1B 1_555 1_555
O3D Pr1D 1_555 1_555
O3B Pr1B 1_555 1_555
O4D Pr1 1_555 1_555
O4F Pr1B 1_555 1_555
O4B Pr1B 1_555 1_555
O5D Pr1D_2 1_555 1_555
O5B Pr1B 1_555 1_555
O6D Pr1 1_555 1_555
O6F Pr1B 1_555 1_555
O7B Pr1B 1_555 1_555
O8B Pr1 1_555 1_555
C5 C6 1_555 1_555
C5 N1 1_555 1_555
C7 O3 1_555 1_555
C7 O4 1_555 1_555
C11 C12 1_555 1_555
C11 N2 1_555 1_555
O4 Pr1D 1_555 1_555
Pr1D O4D 1_555 1_555
C1D O1D 1_555 1_555
C1D O2D 1_555 1_555
C5D C6D 1_555 1_555
C5D N1D 1_555 1_555
C7D O3D 1_555 1_555
C7D O4D 1_555 1_555
C10D N2D 1_555 1_555
C11D C12D 1_555 1_555
C11D N2D 1_555 1_555
C13D O5D 1_555 1_555
C13D O6D 1_555 1_555
C14B O7B 1_555 1_555
C14B O8B 1_555 1_555

#END
