
#######################################################################
#
#                 Cambridge Crystallographic Data Centre
#                                CCDC 
#
#######################################################################
#
# If this CIF has been generated from an entry in the Cambridge 
# Structural Database, then it will include bibliographic, chemical, 
# crystal, experimental, refinement or atomic coordinate data resulting 
# from the CCDC's data processing and validation procedures.
#
#######################################################################

data_NISPEL
_symmetry_cell_setting           monoclinic
_symmetry_space_group_name_H-M   'C 2/c'
_symmetry_Int_Tables_number      15
_space_group_name_Hall           '-C 2yn'
loop_
_symmetry_equiv_pos_site_id
_symmetry_equiv_pos_as_xyz
1 x,y,z
2 1/2+x,1/2+y,z
3 -x,y,1/2-z
4 1/2-x,1/2+y,1/2-z
5 -x,-y,-z
6 1/2-x,1/2-y,-z
7 x,-y,1/2+z
8 1/2+x,1/2-y,1/2+z
_cell_length_a                   25.997(13)
_cell_length_b                   8.577(4)
_cell_length_c                   25.822(13)
_cell_angle_alpha                90
_cell_angle_beta                 92.424(7)
_cell_angle_gamma                90
_cell_volume                     5752.54
loop_
_atom_site_label
_atom_site_type_symbol
_atom_site_fract_x
_atom_site_fract_y
_atom_site_fract_z
Zn1 Zn 0.14122(2) 0.45695(6) 1.10828(2)
Zn2 Zn 0.229410(19) -0.00697(6) 0.99838(2)
P1 P 0.16716(4) 0.29987(14) 0.99915(5)
O1 O 0.16349(13) 0.3058(4) 1.05739(12)
O2 O 0.17045(12) 0.1302(4) 0.98146(14)
O3 O 0.21013(12) 0.3977(4) 0.97882(14)
C1 C 0.10877(17) 0.3810(5) 0.97042(18)
C2 C 0.0683(2) 0.2897(6) 0.9535(3)
H1 H 0.0715 0.1819 0.9556
C3 C 0.0228(2) 0.3534(7) 0.9335(3)
H2 H -0.0036 0.2879 0.9213
C4 C 0.01605(18) 0.5114(6) 0.9313(2)
C5 C 0.0565(2) 0.6045(7) 0.9474(2)
H3 H 0.0530 0.7124 0.9460
C6 C 0.1031(2) 0.5392(6) 0.9659(2)
H4 H 0.1306 0.6042 0.9753
C7 C -0.03492(18) 0.5772(7) 0.9125(2)
O4 O -0.07033(13) 0.4794(5) 0.90497(15)
O5 O -0.04015(15) 0.7221(5) 0.90655(19)
P2 P 0.22526(5) 0.73686(14) 1.08797(4)
O6 O 0.20904(13) 0.8870(4) 1.06029(13)
O7 O 0.26379(14) 0.6451(5) 1.05902(13)
O8 O 0.17822(14) 0.6489(5) 1.10265(14)
C8 C 0.25963(19) 0.7915(6) 1.14737(18)
C9 C 0.2993(4) 0.8941(12) 1.1463(3)
H5 H 0.3073 0.9410 1.1152
C10 C 0.3283(3) 0.9300(12) 1.1915(3)
H6 H 0.3565 0.9961 1.1897
C11 C 0.3163(2) 0.8710(7) 1.23734(19)
C12 C 0.2769(3) 0.7707(10) 1.2389(2)
H7 H 0.2690 0.7248 1.2703
C13 C 0.2474(3) 0.7340(10) 1.1936(2)
H8 H 0.2190 0.6689 1.1957
C14 C 0.3457(2) 0.9214(8) 1.2860(2)
O9 O 0.3780(2) 1.0265(8) 1.2837(2)
O10 O 0.33362(16) 0.8573(5) 1.32769(14)
Zn1D Zn -0.14122(2) 0.54305(6) 0.89172(2)
Zn1C Zn 0.35878(2) 0.95695(6) 1.39172(2)
Zn2E Zn 0.270590(19) 0.50697(6) 1.00162(2)
Zn2_2 Zn 0.229410(19) 0.99303(6) 0.99838(2)
O3E O 0.28987(12) 0.1023(4) 1.02118(14)
O4D O 0.07033(13) 0.5206(5) 1.09503(15)
O6_2 O 0.20904(13) -0.1130(4) 1.06029(13)
O7E O 0.23621(14) -0.1451(5) 0.94098(13)
O10C O 0.16638(16) 0.3573(5) 1.17231(14)
N1 N 0.3832(3) 0.4841(7) 0.9091(3)
H9 H 0.3512 0.5036 0.9194
H10 H 0.3893 0.3818 0.9141
C15 C 0.3842(5) 0.5159(13) 0.8536(5)
H11 H 0.3593 0.4513 0.8354
H12 H 0.4179 0.4937 0.8417
H13 H 0.3761 0.6236 0.8473
C16 C 0.4193(3) 0.5713(10) 0.9423(4)
H14 H 0.4155 0.5407 0.9777
H15 H 0.4124 0.6808 0.9387
H16 H 0.4538 0.5500 0.9325
O11 O 0.2738(6) 0.726(2) 0.6318(5)
O12 O 0.1296(6) 0.961(3) 0.8886(11)
O13 O 0.0269(5) 0.916(2) 0.8584(7)
loop_
_geom_bond_atom_site_label_1
_geom_bond_atom_site_label_2
_geom_bond_site_symmetry_1
_geom_bond_site_symmetry_2
Zn1 O1 1_555 1_555
Zn2 O2 1_555 1_555
P1 O1 1_555 1_555
O2 P1 1_555 1_555
O3 P1 1_555 1_555
C1 P1 1_555 1_555
C2 C1 1_555 1_555
H1 C2 1_555 1_555
C3 C2 1_555 1_555
H2 C3 1_555 1_555
C4 C3 1_555 1_555
C5 C4 1_555 1_555
H3 C5 1_555 1_555
C6 C1 1_555 1_555
H4 C6 1_555 1_555
C7 C4 1_555 1_555
O4 C7 1_555 1_555
O5 C7 1_555 1_555
P2 O6 1_555 1_555
O6 Zn2_2 1_555 1_555
O7 P2 1_555 1_555
O8 Zn1 1_555 1_555
C8 P2 1_555 1_555
C9 C8 1_555 1_555
H5 C9 1_555 1_555
C10 C9 1_555 1_555
H6 C10 1_555 1_555
C11 C10 1_555 1_555
C12 C11 1_555 1_555
H7 C12 1_555 1_555
C13 C8 1_555 1_555
H8 C13 1_555 1_555
C14 C11 1_555 1_555
O9 C14 1_555 1_555
O10 C14 1_555 1_555
N1 H9 1_555 1_555
H10 N1 1_555 1_555
C15 N1 1_555 1_555
H11 C15 1_555 1_555
H12 C15 1_555 1_555
H13 C15 1_555 1_555
C16 N1 1_555 1_555
H14 C16 1_555 1_555
H15 C16 1_555 1_555
H16 C16 1_555 1_555
Zn1D O4 1_555 1_555
Zn1C O10 1_555 1_555
Zn2E O3 1_555 1_555
O3E Zn2 1_555 1_555
O4D Zn1 1_555 1_555
O6_2 Zn2 1_555 1_555
O7E Zn2 1_555 1_555
O10C Zn1 1_555 1_555
C5 C6 1_555 1_555
P2 O8 1_555 1_555
O7 Zn2E 1_555 1_555
C12 C13 1_555 1_555

#END
