
#######################################################################
#
#                 Cambridge Crystallographic Data Centre
#                                CCDC 
#
#######################################################################
#
# If this CIF has been generated from an entry in the Cambridge 
# Structural Database, then it will include bibliographic, chemical, 
# crystal, experimental, refinement or atomic coordinate data resulting 
# from the CCDC's data processing and validation procedures.
#
#######################################################################

data_NOBVOR
_symmetry_cell_setting           triclinic
_symmetry_space_group_name_H-M   'P -1'
_symmetry_Int_Tables_number      2
_space_group_name_Hall           '-P 1'
loop_
_symmetry_equiv_pos_site_id
_symmetry_equiv_pos_as_xyz
1 x,y,z
2 -x,-y,-z
_cell_length_a                   11.4527(14)
_cell_length_b                   11.6239(9)
_cell_length_c                   11.7754(10)
_cell_angle_alpha                64.825(8)
_cell_angle_beta                 81.406(9)
_cell_angle_gamma                72.316(9)
_cell_volume                     1351.29
loop_
_atom_site_label
_atom_site_type_symbol
_atom_site_fract_x
_atom_site_fract_y
_atom_site_fract_z
Co1 Co 0.0000 0.5000 0.5000
Co2 Co 0.0000 1.0000 0.0000
Co3 Co 0.0000 1.0000 0.5000
O1 O -0.0490(5) 1.1039(4) 0.1166(4)
O2 O -0.0446(5) 0.6344(4) 0.5860(4)
O3 O -0.0794(5) 0.8451(4) 0.5509(4)
N1 N 0.0044(5) 0.6751(5) 0.3477(5)
N2 N 0.0241(5) 0.7158(5) 0.2251(5)
O4 O -0.0462(5) 1.0779(4) 0.3129(4)
N3 N 0.0100(5) 0.8461(5) 0.1756(5)
C1 C -0.0386(6) 1.0326(6) 0.2323(6)
C2 C -0.0192(6) 0.8893(6) 0.2698(6)
C3 C -0.0489(6) 0.7521(6) 0.5142(6)
C4 C -0.0209(6) 0.7798(6) 0.3797(6)
N4 N -0.1965(5) 0.5447(5) 0.4788(6)
N5 N 0.1891(6) 0.9971(6) 0.0095(5)
N6 N -0.8267(5) 0.8765(5) 0.4718(5)
C5 C 0.4358(7) 0.9989(7) 0.0024(6)
C6 C -0.2516(7) 0.6155(7) 0.3687(7)
H1 H -0.2042 0.6266 0.2953
C7 C 0.2212(8) 1.1046(8) -0.0050(8)
H2 H 0.1589 1.1806 -0.0133
C8 C -0.7501(7) 0.9192(7) 0.3742(7)
H3 H -0.7788 1.0008 0.3088
C9 C -0.3751(7) 0.6725(8) 0.3597(8)
H4 H -0.4094 0.7223 0.2808
C10 C -0.4511(7) 0.6571(7) 0.4676(7)
C11 C -0.3930(7) 0.5803(7) 0.5792(7)
H5 H -0.4384 0.5649 0.6541
C12 C 0.2815(8) 0.8901(8) 0.0246(9)
H6 H 0.2626 0.8126 0.0388
C13 C -0.6310(7) 0.8472(8) 0.3671(7)
H7 H -0.5824 0.8794 0.2965
C14 C 0.4014(8) 0.8866(8) 0.0207(10)
H8 H 0.4614 0.8086 0.0302
C15 C -0.5837(7) 0.7287(7) 0.4631(7)
C16 C -0.6639(7) 0.6812(7) 0.5610(7)
H9 H -0.6384 0.5981 0.6255
C17 C -0.7803(7) 0.7577(7) 0.5613(7)
H10 H -0.8316 0.7247 0.6290
C18 C -0.2691(8) 0.5259(8) 0.5821(7)
H11 H -0.2331 0.4729 0.6598
C19 C 0.3360(7) 1.1093(7) -0.0083(8)
H12 H 0.3509 1.1873 -0.0180
N5A N 0.8109(6) 1.0029(6) -0.0095(5)
C5A C 0.5642(7) 1.0011(7) -0.0024(6)
C7A C 0.7788(8) 0.8954(8) 0.0050(8)
H2A H 0.8411 0.8194 0.0133
C12A C 0.7185(8) 1.1099(8) -0.0246(9)
H6A H 0.7374 1.1874 -0.0388
C14A C 0.5986(8) 1.1134(8) -0.0207(10)
H8A H 0.5386 1.1914 -0.0302
C19A C 0.6640(7) 0.8907(7) 0.0083(8)
H12A H 0.6491 0.8127 0.0180
N4A N -0.8035(5) 1.4553(5) 0.5212(6)
N6A N -0.1733(5) 1.1235(5) 0.5282(5)
C6A C -0.7484(7) 1.3845(7) 0.6313(7)
H1A H -0.7958 1.3734 0.7047
C8A C -0.2499(7) 1.0808(7) 0.6258(7)
H3A H -0.2212 0.9992 0.6912
C9A C -0.6249(7) 1.3275(8) 0.6403(8)
H4A H -0.5906 1.2777 0.7192
C10A C -0.5489(7) 1.3429(7) 0.5324(7)
C11A C -0.6070(7) 1.4197(7) 0.4208(7)
H5A H -0.5616 1.4351 0.3459
C13A C -0.3690(7) 1.1528(8) 0.6329(7)
H7A H -0.4176 1.1206 0.7035
C15A C -0.4163(7) 1.2713(7) 0.5369(7)
C16A C -0.3361(7) 1.3188(7) 0.4390(7)
H9A H -0.3616 1.4019 0.3745
C17A C -0.2197(7) 1.2423(7) 0.4387(7)
H10A H -0.1684 1.2753 0.3710
C18A C -0.7309(8) 1.4741(8) 0.4179(7)
H11A H -0.7669 1.5271 0.3402
O1A O 0.0490(5) -0.1039(4) 0.8834(4)
O2A O 0.0446(5) 0.3656(4) 0.4140(4)
O3A O 0.0794(5) 0.1549(4) 0.4491(4)
N1A N -0.0044(5) 0.3249(5) 0.6523(5)
N2A N -0.0241(5) 0.2842(5) 0.7749(5)
O4A O 0.0462(5) -0.0779(4) 0.6871(4)
N3A N -0.0100(5) 0.1539(5) 0.8244(5)
C1A C 0.0386(6) -0.0326(6) 0.7677(6)
C2A C 0.0192(6) 0.1107(6) 0.7302(6)
C3A C 0.0489(6) 0.2479(6) 0.4858(6)
C4A C 0.0209(6) 0.2202(6) 0.6203(6)
Co1_2 Co -1.0000 1.5000 0.5000
Co2_2 Co 0.0000 0.0000 1.0000
Co2_3 Co 1.0000 1.0000 0.0000
Co3_2 Co -1.0000 1.0000 0.5000
Co3_3 Co 0.0000 0.0000 0.5000
O1A_2 O 0.0490(5) 0.8961(4) -0.1166(4)
O3A_2 O 0.0794(5) 1.1549(4) 0.4491(4)
O4A_2 O 0.0462(5) 0.9221(4) 0.6871(4)
N3A_2 N -0.0100(5) 1.1539(5) -0.1756(5)
N4A_2 N 0.1965(5) 0.4553(5) 0.5212(6)
N5A_2 N -0.1891(6) 1.0029(6) -0.0095(5)
N6_2 N 0.1733(5) 0.8765(5) 0.4718(5)
O5 O 0.5000 1.0000 0.5000
O6 O 0.6183(17) 1.073(3) 0.343(3)
O7 O 0.626(2) 0.5684(13) 0.1338(14)
O8 O 0.952(3) 0.680(3) 0.834(2)
O9 O 0.474(3) 0.776(3) 0.787(3)
O10? O 0.393(3) 1.181(3) 0.311(3)
O11? O 0.818(6) 0.573(5) 0.079(5)
O12? O 0.486(4) 1.086(3) 0.396(3)
loop_
_geom_bond_atom_site_label_1
_geom_bond_atom_site_label_2
_geom_bond_site_symmetry_1
_geom_bond_site_symmetry_2
Co1 O2 1_555 1_555
Co2 O1 1_555 1_555
Co3 O3 1_555 1_555
O1 C1 1_555 1_555
O2 C3 1_555 1_555
O3 C3 1_555 1_555
N1 Co1 1_555 1_555
N2 N1 1_555 1_555
O4 Co3 1_555 1_555
N3 Co2 1_555 1_555
C1 O4 1_555 1_555
C2 N3 1_555 1_555
C3 C4 1_555 1_555
C4 N1 1_555 1_555
N4 Co1 1_555 1_555
N5 Co2 1_555 1_555
N6 C8 1_555 1_555
C5 C14 1_555 1_555
C6 N4 1_555 1_555
H1 C6 1_555 1_555
C7 N5 1_555 1_555
H2 C7 1_555 1_555
C8 H3 1_555 1_555
C9 C6 1_555 1_555
H4 C9 1_555 1_555
C10 C9 1_555 1_555
C11 C10 1_555 1_555
H5 C11 1_555 1_555
C12 N5 1_555 1_555
H6 C12 1_555 1_555
C13 C8 1_555 1_555
H7 C13 1_555 1_555
C14 C12 1_555 1_555
H8 C14 1_555 1_555
C15 C10 1_555 1_555
C16 C15 1_555 1_555
H9 C16 1_555 1_555
C17 N6 1_555 1_555
H10 C17 1_555 1_555
C18 N4 1_555 1_555
H11 C18 1_555 1_555
C19 C5 1_555 1_555
H12 C19 1_555 1_555
N5A C7A 1_555 1_555
C5A C5 1_555 1_555
C7A H2A 1_555 1_555
C12A N5A 1_555 1_555
H6A C12A 1_555 1_555
C14A C5A 1_555 1_555
H8A C14A 1_555 1_555
C19A C5A 1_555 1_555
H12A C19A 1_555 1_555
N4A C6A 1_555 1_555
N6A Co3 1_555 1_555
C6A H1A 1_555 1_555
C8A N6A 1_555 1_555
H3A C8A 1_555 1_555
C9A C6A 1_555 1_555
H4A C9A 1_555 1_555
C10A C9A 1_555 1_555
C11A C10A 1_555 1_555
H5A C11A 1_555 1_555
C13A C8A 1_555 1_555
H7A C13A 1_555 1_555
C15A C10A 1_555 1_555
C16A C15A 1_555 1_555
H9A C16A 1_555 1_555
C17A N6A 1_555 1_555
H10A C17A 1_555 1_555
C18A N4A 1_555 1_555
H11A C18A 1_555 1_555
O1A C1A 1_555 1_555
O2A Co1 1_555 1_555
O3A C3A 1_555 1_555
N1A Co1 1_555 1_555
N2A N1A 1_555 1_555
O4A C1A 1_555 1_555
N3A N2A 1_555 1_555
C1A C2A 1_555 1_555
C2A N3A 1_555 1_555
C3A O2A 1_555 1_555
C4A N1A 1_555 1_555
Co1_2 N4A 1_555 1_555
Co2_2 O1A 1_555 1_555
Co2_3 N5A 1_555 1_555
Co3_2 N6 1_555 1_555
Co3_3 O3A 1_555 1_555
O1A_2 Co2 1_555 1_555
O3A_2 Co3 1_555 1_555
O4A_2 Co3 1_555 1_555
N3A_2 Co2 1_555 1_555
N4A_2 Co1 1_555 1_555
N5A_2 Co2 1_555 1_555
N6_2 Co3 1_555 1_555
N2 N3 1_555 1_555
C1 C2 1_555 1_555
C2 C4 1_555 1_555
C7 C19 1_555 1_555
C11 C18 1_555 1_555
C13 C15 1_555 1_555
C16 C17 1_555 1_555
C7A C19A 1_555 1_555
C12A C14A 1_555 1_555
C11A C18A 1_555 1_555
C13A C15A 1_555 1_555
C16A C17A 1_555 1_555
O4A Co3_3 1_555 1_555
N3A Co2_2 1_555 1_555
C2A C4A 1_555 1_555
C3A C4A 1_555 1_555

#END
