
#######################################################################
#
#                 Cambridge Crystallographic Data Centre
#                                CCDC 
#
#######################################################################
#
# If this CIF has been generated from an entry in the Cambridge 
# Structural Database, then it will include bibliographic, chemical, 
# crystal, experimental, refinement or atomic coordinate data resulting 
# from the CCDC's data processing and validation procedures.
#
#######################################################################

data_NODKOH
_symmetry_cell_setting           tetragonal
_symmetry_space_group_name_H-M   'P 43 21 2'
_symmetry_Int_Tables_number      96
_space_group_name_Hall           'P 4nw 2abw'
loop_
_symmetry_equiv_pos_site_id
_symmetry_equiv_pos_as_xyz
1 x,y,z
2 -x,-y,1/2+z
3 1/2-y,1/2+x,3/4+z
4 1/2+y,1/2-x,1/4+z
5 1/2-x,1/2+y,3/4-z
6 1/2+x,1/2-y,1/4-z
7 y,x,-z
8 -y,-x,1/2-z
_cell_length_a                   13.7548(2)
_cell_length_b                   13.7548(2)
_cell_length_c                   38.1612(8)
_cell_angle_alpha                90
_cell_angle_beta                 90
_cell_angle_gamma                90
_cell_volume                     7219.89
loop_
_atom_site_label
_atom_site_type_symbol
_atom_site_fract_x
_atom_site_fract_y
_atom_site_fract_z
C28 C 0.444(2) 0.956(2) -0.0524(8)
C29 C 0.461(3) 1.050(3) -0.0327(10)
C30 C 0.559(3) 1.023(3) -0.0172(11)
C31 C 0.585(4) 1.119(4) 0.0003(14)
C32 C 0.328(2) 0.713(3) 0.0063(8)
N1 N 0.3987(14) 0.8788(11) -0.0324(5)
C33 C 0.3640(11) 0.8029(17) -0.0105(4)
N2 N 0.4042(15) 0.7140(12) -0.0227(6)
C34 C 0.4638(13) 0.7351(15) -0.0521(5)
C35 C 0.4604(13) 0.8370(17) -0.0581(4)
In1 In 0.28660(9) 0.94973(8) 0.08505(3)
O1 O 0.4175(8) 0.8930(8) 0.0566(3)
O2 O 0.4388(8) 0.9542(8) 0.1088(3)
O3 O 0.7378(9) 0.6083(9) 0.1121(3)
O4 O 0.7677(9) 0.7120(9) 0.1544(3)
O5 O 0.3154(9) 1.0890(8) 0.0565(3)
O6 O 0.2692(8) 1.0963(8) 0.1113(3)
O7 O 0.5300(18) 1.4670(16) 0.0747(6)
O8 O 0.4889(15) 1.4671(15) 0.1302(5)
O9 O 0.2079(9) 0.9097(7) 0.0324(3)
O10 O 0.1245(8) 0.9689(9) 0.0743(3)
C1 C 0.5768(15) 0.8867(10) 0.0795(4)
H1 H 0.5947 0.8829 0.0546
C2 C 0.5991(14) 0.7904(17) 0.0957(6)
C3 C 0.7133(14) 0.7778(12) 0.0995(4)
C4 C 0.7165(19) 0.8829(16) 0.1178(6)
H2 H 0.7830 0.9064 0.1179
H3 H 0.6955 0.8767 0.1420
C5 C 0.6455(17) 0.9645(18) 0.0974(6)
H4 H 0.6110 1.0065 0.1136
H5 H 0.6810 1.0033 0.0804
C6 C 0.7451(18) 0.7623(19) 0.0628(6)
H6 H 0.7289 0.6974 0.0556
H7 H 0.8141 0.7716 0.0612
H8 H 0.7128 0.8081 0.0478
C7 C 0.5395(14) 0.7519(14) 0.1245(5)
H9 H 0.5529 0.7878 0.1455
H10 H 0.5548 0.6846 0.1281
H11 H 0.4719 0.7583 0.1187
C8 C 0.5577(17) 0.7011(17) 0.0666(5)
H12 H 0.5691 0.6379 0.0764
H13 H 0.5920 0.7069 0.0447
H14 H 0.4893 0.7097 0.0626
C9 C 0.4737(15) 0.9175(12) 0.0813(6)
C10 C 0.7432(11) 0.6991(12) 0.1241(5)
C11 C 0.2918(15) 1.2453(12) 0.0824(4)
C12 C 0.3839(17) 1.296(2) 0.1014(6)
C13 C 0.3834(15) 1.3991(15) 0.0898(6)
H15 H 0.3334 1.4319 0.1038
C14 C 0.3480(18) 1.4028(13) 0.0515(5)
H16 H 0.4016 1.4145 0.0355
H17 H 0.2991 1.4527 0.0483
C15 C 0.3044(13) 1.2992(14) 0.0463(4)
H18 H 0.3470 1.2614 0.0313
H19 H 0.2417 1.3044 0.0349
C16 C 0.1909(16) 1.2835(13) 0.0990(6)
H20 H 0.1824 1.2560 0.1219
H21 H 0.1378 1.2640 0.0842
H22 H 0.1923 1.3531 0.1007
C17 C 0.3588(18) 1.294(2) 0.1445(6)
H23 H 0.3588 1.2278 0.1527
H24 H 0.2960 1.3222 0.1485
H25 H 0.4072 1.3302 0.1570
C18 C 0.4716(19) 1.2379(18) 0.0948(6)
H26 H 0.4612 1.1723 0.1025
H27 H 0.5254 1.2656 0.1073
H28 H 0.4855 1.2379 0.0701
C19 C 0.2901(13) 1.1341(12) 0.0827(6)
C20 C 0.4807(17) 1.4492(15) 0.0989(7)
C21 C 0.0443(14) 0.9412(11) 0.0200(4)
C22 C 0.059(3) 0.894(3) -0.0197(9)
C23 C -0.048(2) 0.939(2) 0.0411(7)
C24 C 0.0360(17) 1.0360(17) 0.0000
C25 C 0.098(2) 1.098(2) 0.0000
C26 C 0.132(2) 0.987(2) -0.0331(7)
C27 C 0.1276(17) 0.9378(13) 0.0433(6)
In1E In -0.21340(9) 0.55027(8) 0.16495(3)
In1E_2 In 0.78660(9) 0.55027(8) 0.16495(3)
In1F In -0.05027(8) 1.28660(9) -0.08505(3)
O1E O -0.0825(8) 0.6070(8) 0.1934(3)
O2E O -0.0612(8) 0.5458(8) 0.1412(3)
O3E O 0.2378(9) 0.8917(9) 0.1379(3)
O3_2 O -0.2622(9) 0.6083(9) 0.1121(3)
O4E O 0.2677(9) 0.7880(9) 0.0956(3)
O4_2 O -0.2323(9) 0.7120(9) 0.1544(3)
O5E O -0.1846(9) 0.4110(8) 0.1935(3)
O6E O -0.2308(8) 0.4037(8) 0.1387(3)
O7E O 0.0300(18) 0.0330(16) 0.1753(6)
O8E O -0.0111(15) 0.0329(15) 0.1198(5)
O9F O -0.0903(7) 1.2079(9) -0.0324(3)
O9E O -0.2921(9) 0.5903(7) 0.2176(3)
O10F O -0.0311(9) 1.1245(8) -0.0743(3)
O10E O -0.3755(8) 0.5311(9) 0.1757(3)
C1E C 0.0768(15) 0.6133(10) 0.1705(4)
H1E H 0.0947 0.6171 0.1954
C2E C 0.0991(14) 0.7096(17) 0.1543(6)
C3E C 0.2133(14) 0.7222(12) 0.1505(4)
C4E C 0.2165(19) 0.6171(16) 0.1322(6)
H2E H 0.2830 0.5936 0.1321
H3E H 0.1955 0.6233 0.1080
C5E C 0.1455(17) 0.5355(18) 0.1526(6)
H4E H 0.1110 0.4935 0.1364
H5E H 0.1810 0.4967 0.1696
C6E C 0.2451(18) 0.7377(19) 0.1872(6)
H6E H 0.2289 0.8026 0.1944
H7E H 0.3141 0.7284 0.1888
H8E H 0.2128 0.6919 0.2022
C7E C 0.0395(14) 0.7481(14) 0.1255(5)
H9E H 0.0529 0.7122 0.1045
H10E H 0.0548 0.8154 0.1219
H11E H -0.0281 0.7417 0.1313
C8E C 0.0577(17) 0.7989(17) 0.1834(5)
H12E H 0.0691 0.8621 0.1736
H13E H 0.0920 0.7931 0.2053
H14E H -0.0107 0.7903 0.1874
C9E C -0.0263(15) 0.5825(12) 0.1687(6)
C10E C 0.2432(11) 0.8009(12) 0.1259(5)
C11E C -0.2082(15) 0.2547(12) 0.1676(4)
C12E C -0.1161(17) 0.204(2) 0.1486(6)
C13E C -0.1166(15) 0.1009(15) 0.1602(6)
H15E H -0.1666 0.0681 0.1462
C14E C -0.1520(18) 0.0972(13) 0.1985(5)
H16E H -0.0984 0.0855 0.2145
H17E H -0.2009 0.0473 0.2017
C15E C -0.1956(13) 0.2008(14) 0.2037(4)
H18E H -0.1530 0.2386 0.2187
H19E H -0.2583 0.1956 0.2151
C16E C -0.3091(16) 0.2165(13) 0.1510(6)
H20E H -0.3176 0.2440 0.1281
H21E H -0.3622 0.2360 0.1658
H22E H -0.3077 0.1469 0.1493
C17E C -0.1412(18) 0.206(2) 0.1055(6)
H23E H -0.1412 0.2722 0.0973
H24E H -0.2040 0.1778 0.1015
H25E H -0.0928 0.1698 0.0930
C18E C -0.0284(19) 0.2621(18) 0.1552(6)
H26E H -0.0388 0.3277 0.1475
H27E H 0.0254 0.2344 0.1427
H28E H -0.0145 0.2621 0.1799
C19E C -0.2099(13) 0.3659(12) 0.1673(6)
C20E C -0.0193(17) 0.0508(15) 0.1511(7)
C21F C -0.0588(11) 1.0443(14) -0.0200(4)
C22F C -0.106(3) 1.059(3) 0.0197(9)
C23F C -0.061(2) 0.952(2) -0.0411(7)
C26F C -0.013(2) 1.132(2) 0.0331(7)
C27F C -0.0622(13) 1.1276(17) -0.0433(6)
loop_
_geom_bond_atom_site_label_1
_geom_bond_atom_site_label_2
_geom_bond_site_symmetry_1
_geom_bond_site_symmetry_2
In1 O1 1_555 1_555
O1 C9 1_555 1_555
O2 In1 1_555 1_555
O3 C10 1_555 1_555
O4 C10 1_555 1_555
O5 In1 1_555 1_555
O6 In1 1_555 1_555
O7 C20 1_555 1_555
O8 C20 1_555 1_555
O9 In1 1_555 1_555
O10 In1 1_555 1_555
C1 H1 1_555 1_555
C2 C1 1_555 1_555
C3 C2 1_555 1_555
C4 C3 1_555 1_555
H2 C4 1_555 1_555
H3 C4 1_555 1_555
C5 C1 1_555 1_555
H4 C5 1_555 1_555
H5 C5 1_555 1_555
C6 C3 1_555 1_555
H6 C6 1_555 1_555
H7 C6 1_555 1_555
H8 C6 1_555 1_555
C7 C2 1_555 1_555
H9 C7 1_555 1_555
H10 C7 1_555 1_555
H11 C7 1_555 1_555
C8 C2 1_555 1_555
H12 C8 1_555 1_555
H13 C8 1_555 1_555
H14 C8 1_555 1_555
C9 O2 1_555 1_555
C10 C3 1_555 1_555
C11 C12 1_555 1_555
C12 C13 1_555 1_555
C13 H15 1_555 1_555
C14 C13 1_555 1_555
H16 C14 1_555 1_555
H17 C14 1_555 1_555
C15 C11 1_555 1_555
H18 C15 1_555 1_555
H19 C15 1_555 1_555
C16 C11 1_555 1_555
H20 C16 1_555 1_555
H21 C16 1_555 1_555
H22 C16 1_555 1_555
C17 C12 1_555 1_555
H23 C17 1_555 1_555
H24 C17 1_555 1_555
H25 C17 1_555 1_555
C18 C12 1_555 1_555
H26 C18 1_555 1_555
H27 C18 1_555 1_555
H28 C18 1_555 1_555
C19 O5 1_555 1_555
C20 C13 1_555 1_555
C21 C22 1_555 1_555
C22 C26 1_555 1_555
C23 C21 1_555 1_555
C24 C21 1_555 1_555
C25 C24 1_555 1_555
C27 O9 1_555 1_555
C28 C29 1_555 1_555
C29 C30 1_555 1_555
C30 C31 1_555 1_555
C32 N2 1_555 1_555
N1 C28 1_555 1_555
C33 N1 1_555 1_555
N2 C33 1_555 1_555
C34 N2 1_555 1_555
C35 N1 1_555 1_555
In1E O1E 1_555 1_555
In1E_2 O3 1_555 1_555
In1F O9F 1_555 1_555
O1E C9E 1_555 1_555
O2E In1E 1_555 1_555
O3E In1 1_555 1_555
O3_2 In1E 1_555 1_555
O4E In1 1_555 1_555
O4_2 In1E 1_555 1_555
O5E In1E 1_555 1_555
O6E In1E 1_555 1_555
O7E C20E 1_555 1_555
O8E C20E 1_555 1_555
O9F C27F 1_555 1_555
O9E In1E 1_555 1_555
O10F In1F 1_555 1_555
O10E In1E 1_555 1_555
C1E H1E 1_555 1_555
C2E C1E 1_555 1_555
C3E C2E 1_555 1_555
C4E C3E 1_555 1_555
H2E C4E 1_555 1_555
H3E C4E 1_555 1_555
C5E C1E 1_555 1_555
H4E C5E 1_555 1_555
H5E C5E 1_555 1_555
C6E C3E 1_555 1_555
H6E C6E 1_555 1_555
H7E C6E 1_555 1_555
H8E C6E 1_555 1_555
C7E C2E 1_555 1_555
H9E C7E 1_555 1_555
H10E C7E 1_555 1_555
H11E C7E 1_555 1_555
C8E C2E 1_555 1_555
H12E C8E 1_555 1_555
H13E C8E 1_555 1_555
H14E C8E 1_555 1_555
C9E O2E 1_555 1_555
C10E O3E 1_555 1_555
C11E C12E 1_555 1_555
C12E C13E 1_555 1_555
C13E H15E 1_555 1_555
C14E C13E 1_555 1_555
H16E C14E 1_555 1_555
H17E C14E 1_555 1_555
C15E C11E 1_555 1_555
H18E C15E 1_555 1_555
H19E C15E 1_555 1_555
C16E C11E 1_555 1_555
H20E C16E 1_555 1_555
H21E C16E 1_555 1_555
H22E C16E 1_555 1_555
C17E C12E 1_555 1_555
H23E C17E 1_555 1_555
H24E C17E 1_555 1_555
H25E C17E 1_555 1_555
C18E C12E 1_555 1_555
H26E C18E 1_555 1_555
H27E C18E 1_555 1_555
H28E C18E 1_555 1_555
C19E O5E 1_555 1_555
C20E C13E 1_555 1_555
C21F C24 1_555 1_555
C22F C21F 1_555 1_555
C23F C21F 1_555 1_555
C26F C22F 1_555 1_555
C27F O10F 1_555 1_555
O4 In1E_2 1_555 1_555
O6 C19 1_555 1_555
O10 C27 1_555 1_555
C1 C9 1_555 1_555
C4 C5 1_555 1_555
C11 C19 1_555 1_555
C14 C15 1_555 1_555
C21 C27 1_555 1_555
C34 C35 1_555 1_555
O4E C10E 1_555 1_555
O6E C19E 1_555 1_555
C1E C9E 1_555 1_555
C3E C10E 1_555 1_555
C4E C5E 1_555 1_555
C11E C19E 1_555 1_555
C14E C15E 1_555 1_555
C21F C27F 1_555 1_555

#END
