
#######################################################################
#
#                 Cambridge Crystallographic Data Centre
#                                CCDC 
#
#######################################################################
#
# If this CIF has been generated from an entry in the Cambridge 
# Structural Database, then it will include bibliographic, chemical, 
# crystal, experimental, refinement or atomic coordinate data resulting 
# from the CCDC's data processing and validation procedures.
#
#######################################################################

data_NOFDUI
_symmetry_cell_setting           orthorhombic
_symmetry_space_group_name_H-M   'P 21 21 21'
_symmetry_Int_Tables_number      19
_space_group_name_Hall           'P 2ac 2ab'
loop_
_symmetry_equiv_pos_site_id
_symmetry_equiv_pos_as_xyz
1 x,y,z
2 1/2-x,-y,1/2+z
3 -x,1/2+y,1/2-z
4 1/2+x,1/2-y,-z
_cell_length_a                   13.3346(10)
_cell_length_b                   13.4613(9)
_cell_length_c                   17.5115(10)
_cell_angle_alpha                90
_cell_angle_beta                 90
_cell_angle_gamma                90
_cell_volume                     3143.33
loop_
_atom_site_label
_atom_site_type_symbol
_atom_site_fract_x
_atom_site_fract_y
_atom_site_fract_z
Co1 Co -0.26694(8) -0.49008(9) -0.42598(4)
Co2 Co -0.23426(8) -0.50893(9) -0.58387(4)
O1 O -0.4035(4) -0.5283(5) -0.4699(3)
O2 O -0.3789(5) -0.5585(5) -0.5932(3)
O3 O -0.6944(5) -0.8490(5) -0.4494(3)
O4 O -0.7311(5) -0.8624(4) -0.5746(3)
O5 O -0.2934(5) -0.3477(5) -0.4561(3)
O6 O -0.2844(5) -0.3657(5) -0.5812(3)
O7 O -0.6200(5) -0.0432(5) -0.5777(3)
O8 O -0.5967(5) -0.0381(5) -0.4522(3)
O9 O -0.3137(4) -0.4752(4) -0.1923(2)
O10 O -0.3131(4) -0.4779(5) -0.3170(2)
C1 C -0.5462(7) -0.5807(6) -0.5448(4)
C2 C -0.5568(7) -0.6963(7) -0.5535(5)
C3 C -0.6687(7) -0.7084(7) -0.5303(4)
H1 H -0.7097 -0.6816 -0.5719
C4 C -0.6826(7) -0.6392(6) -0.4602(4)
H2 H -0.7508 -0.6143 -0.4577
H3 H -0.6677 -0.6742 -0.4131
C5 C -0.6098(7) -0.5558(7) -0.4726(5)
H4 H -0.5665 -0.5487 -0.4285
H5 H -0.6457 -0.4939 -0.4801
C6 C -0.5850(6) -0.5230(7) -0.6117(5)
H6 H -0.5772 -0.4532 -0.6020
H7 H -0.6546 -0.5379 -0.6193
H8 H -0.5478 -0.5408 -0.6566
C7 C -0.5373(10) -0.7326(10) -0.6345(6)
H9 H -0.5797 -0.6972 -0.6695
H10 H -0.5516 -0.8024 -0.6376
H11 H -0.4683 -0.7212 -0.6475
C8 C -0.4838(9) -0.7563(9) -0.4995(9)
H12 H -0.4919 -0.7338 -0.4478
H13 H -0.4157 -0.7458 -0.5154
H14 H -0.4994 -0.8259 -0.5024
C9 C -0.4312(7) -0.5529(6) -0.5320(5)
C10 C -0.7011(7) -0.8139(7) -0.5173(4)
C11 C -0.3263(6) -0.2054(6) -0.5339(4)
C12 C -0.4426(7) -0.1919(7) -0.5497(5)
C13 C -0.4571(7) -0.0788(7) -0.5328(4)
H15 H -0.4318 -0.0419 -0.5770
C14 C -0.3885(8) -0.0564(9) -0.4662(5)
H16 H -0.4268 -0.0505 -0.4193
H17 H -0.3525 0.0052 -0.4747
C15 C -0.3146(8) -0.1450(8) -0.4614(5)
H18 H -0.2463 -0.1210 -0.4568
H19 H -0.3298 -0.1856 -0.4171
C16 C -0.2652(8) -0.1627(7) -0.6002(5)
H20 H -0.1950 -0.1713 -0.5901
H21 H -0.2797 -0.0932 -0.6056
H22 H -0.2826 -0.1967 -0.6465
C17 C -0.4720(9) -0.2208(10) -0.6321(5)
H23 H -0.5426 -0.2106 -0.6391
H24 H -0.4562 -0.2895 -0.6407
H25 H -0.4355 -0.1803 -0.6676
C18 C -0.5040(6) -0.2500(10) -0.4983(10)
H26 H -0.5736 -0.2396 -0.5101
H27 H -0.4913 -0.2298 -0.4466
H28 H -0.4881 -0.3192 -0.5040
C19 C -0.3001(7) -0.3162(7) -0.5219(4)
C20 C -0.5635(7) -0.0516(7) -0.5225(5)
C21 C -0.1726(6) -0.5487(6) -0.2560(5)
H29 H -0.1522 -0.5588 -0.3080
H30 H -0.1785 -0.6118 -0.2308
H31 H -0.1234 -0.5088 -0.2302
C22 C -0.2702(5) -0.4974(5) -0.2546(3)
Co1C Co -0.76694(8) -1.00992(9) -0.57402(4)
Co1C_2 Co -0.76694(8) -0.00992(9) -0.57402(4)
Co2A Co -0.26574(8) -0.49107(9) -0.08387(4)
Co2C Co -0.73426(8) -0.99107(9) -0.41613(4)
Co2C_2 Co -0.73426(8) 0.00893(9) -0.41613(4)
O3C O -0.1944(5) -0.6510(5) -0.5506(3)
O4C O -0.2311(5) -0.6376(4) -0.4254(3)
O7C O -0.1200(5) -0.4568(5) -0.4223(3)
O8C O -0.0967(5) -0.4619(5) -0.5478(3)
O9A O -0.1863(4) -0.5248(4) -0.6923(2)
C23 C 0.615(2) -0.837(2) -0.2898(17)
H32 H 0.6842 -0.8467 -0.3034
H33 H 0.5728 -0.8659 -0.3280
H34 H 0.6020 -0.8671 -0.2413
C24 C 0.5969(13) -0.7415(11) -0.2855(9)
H35 H 0.6124 -0.7125 -0.3348
H36 H 0.6436 -0.7133 -0.2489
C25 C 0.4091(10) -0.7626(9) -0.2746(9)
H37 H 0.4054 -0.8271 -0.2932
C26 C 0.3702(11) -0.6128(7) -0.2480(10)
H38 H 0.3318 -0.5555 -0.2427
C27 C 0.4705(10) -0.6164(9) -0.2513(10)
H39 H 0.5147 -0.5635 -0.2459
C28 C 0.2262(9) -0.7361(9) -0.2535(9)
H40 H 0.2215 -0.8073 -0.2553
H41 H 0.1934 -0.7084 -0.2974
H42 H 0.1943 -0.7121 -0.2079
N1 N 0.4932(8) -0.7075(8) -0.2634(12)
N2 N 0.3344(6) -0.7059(6) -0.2535(6)
loop_
_geom_bond_atom_site_label_1
_geom_bond_atom_site_label_2
_geom_bond_site_symmetry_1
_geom_bond_site_symmetry_2
Co1 O1 1_555 1_555
Co2 O2 1_555 1_555
O1 C9 1_555 1_555
O2 C9 1_555 1_555
O3 C10 1_555 1_555
O4 C10 1_555 1_555
O5 Co1 1_555 1_555
O6 Co2 1_555 1_555
O7 C20 1_555 1_555
O8 C20 1_555 1_555
O9 C22 1_555 1_555
O10 Co1 1_555 1_555
C1 C2 1_555 1_555
C2 C3 1_555 1_555
C3 H1 1_555 1_555
C4 C3 1_555 1_555
H2 C4 1_555 1_555
H3 C4 1_555 1_555
C5 C1 1_555 1_555
H4 C5 1_555 1_555
H5 C5 1_555 1_555
C6 C1 1_555 1_555
H6 C6 1_555 1_555
H7 C6 1_555 1_555
H8 C6 1_555 1_555
C7 C2 1_555 1_555
H9 C7 1_555 1_555
H10 C7 1_555 1_555
H11 C7 1_555 1_555
C8 C2 1_555 1_555
H12 C8 1_555 1_555
H13 C8 1_555 1_555
H14 C8 1_555 1_555
C9 C1 1_555 1_555
C10 C3 1_555 1_555
C11 C12 1_555 1_555
C12 C13 1_555 1_555
C13 H15 1_555 1_555
C14 C13 1_555 1_555
H16 C14 1_555 1_555
H17 C14 1_555 1_555
C15 C11 1_555 1_555
H18 C15 1_555 1_555
H19 C15 1_555 1_555
C16 C11 1_555 1_555
H20 C16 1_555 1_555
H21 C16 1_555 1_555
H22 C16 1_555 1_555
C17 C12 1_555 1_555
H23 C17 1_555 1_555
H24 C17 1_555 1_555
H25 C17 1_555 1_555
C18 C12 1_555 1_555
H26 C18 1_555 1_555
H27 C18 1_555 1_555
H28 C18 1_555 1_555
C19 O5 1_555 1_555
C20 C13 1_555 1_555
C21 H29 1_555 1_555
H30 C21 1_555 1_555
H31 C21 1_555 1_555
C22 O10 1_555 1_555
C23 H32 1_555 1_555
H33 C23 1_555 1_555
H34 C23 1_555 1_555
C24 C23 1_555 1_555
H35 C24 1_555 1_555
H36 C24 1_555 1_555
C25 H37 1_555 1_555
C26 H38 1_555 1_555
C27 C26 1_555 1_555
H39 C27 1_555 1_555
C28 H40 1_555 1_555
H41 C28 1_555 1_555
H42 C28 1_555 1_555
N1 C24 1_555 1_555
N2 C25 1_555 1_555
Co1C O4 1_555 1_555
Co1C_2 O7 1_555 1_555
Co2A O9 1_555 1_555
Co2C O3 1_555 1_555
Co2C_2 O8 1_555 1_555
O3C Co2 1_555 1_555
O4C Co1 1_555 1_555
O7C Co1 1_555 1_555
O8C Co2 1_555 1_555
O9A Co2 1_555 1_555
O6 C19 1_555 1_555
C4 C5 1_555 1_555
C11 C19 1_555 1_555
C14 C15 1_555 1_555
C21 C22 1_555 1_555
C25 N1 1_555 1_555
C26 N2 1_555 1_555
C27 N1 1_555 1_555
C28 N2 1_555 1_555

#END
