
#######################################################################
#
#                 Cambridge Crystallographic Data Centre
#                                CCDC 
#
#######################################################################
#
# If this CIF has been generated from an entry in the Cambridge 
# Structural Database, then it will include bibliographic, chemical, 
# crystal, experimental, refinement or atomic coordinate data resulting 
# from the CCDC's data processing and validation procedures.
#
#######################################################################

data_NOFMIG
_symmetry_cell_setting           orthorhombic
_symmetry_space_group_name_H-M   'P n a 21'
_symmetry_Int_Tables_number      33
_space_group_name_Hall           'P 2c -2n'
loop_
_symmetry_equiv_pos_site_id
_symmetry_equiv_pos_as_xyz
1 x,y,z
2 -x,-y,1/2+z
3 1/2+x,1/2-y,z
4 1/2-x,1/2+y,1/2+z
_cell_length_a                   19.0064(19)
_cell_length_b                   24.517(2)
_cell_length_c                   4.6956(5)
_cell_angle_alpha                90
_cell_angle_beta                 90
_cell_angle_gamma                90
_cell_volume                     2188.06
loop_
_atom_site_label
_atom_site_type_symbol
_atom_site_fract_x
_atom_site_fract_y
_atom_site_fract_z
C1 C 0.4613(5) 0.6346(3) -0.236(3)
C2 C 0.4638(5) 0.6960(4) -0.162(2)
C3 C 0.4144(5) 0.7305(3) -0.288(2)
H1 H 0.3824 0.7174 -0.4216
C4 C 0.4144(5) 0.7856(4) -0.207(2)
C5 C 0.4637(5) 0.8047(4) -0.019(2)
H2 H 0.4641 0.8415 0.0296
C6 C 0.5101(5) 0.7719(4) 0.094(2)
C7 C 0.5108(5) 0.7158(4) 0.038(2)
H3 H 0.5418 0.6926 0.1319
C8 C 0.3092(6) 0.7989(5) -0.479(3)
H4 H 0.2863 0.7704 -0.3696
H5 H 0.3265 0.7830 -0.6551
C9 C 0.2579(6) 0.8442(4) -0.543(3)
C10 C 0.1960(7) 0.8492(5) -0.401(3)
H6 H 0.1856 0.8242 -0.2581
C11 C 0.1477(6) 0.8902(4) -0.459(3)
H7 H 0.1060 0.8925 -0.3558
C12 C 0.1626(5) 0.9287(4) -0.678(2)
C13 C 0.2267(6) 0.9258(5) -0.815(2)
H8 H 0.2379 0.9521 -0.9503
C14 C 0.2748(5) 0.8850(5) -0.756(4)
H9 H 0.3176 0.8838 -0.8517
C15 C 0.1093(5) 0.9686(3) -0.769(3)
C16 C 0.5667(6) 0.8423(5) 0.347(3)
H10 H 0.5243 0.8547 0.4424
H11 H 0.5720 0.8629 0.1723
C17 C 0.6299(5) 0.8515(5) 0.538(2)
C18 C 0.6561(6) 0.8113(4) 0.708(3)
H12 H 0.6357 0.7768 0.7041
C19 C 0.7124(6) 0.8212(5) 0.886(3)
H13 H 0.7299 0.7935 1.0012
C20 C 0.7436(5) 0.8739(4) 0.892(2)
C21 C 0.7184(6) 0.9145(4) 0.715(3)
H14 H 0.7397 0.9487 0.7095
C22 C 0.6611(6) 0.9029(4) 0.549(3)
H15 H 0.6421 0.9307 0.4377
C23 C 0.8060(5) 0.8849(4) 1.071(2)
Cd1 Cd 0.44712(3) 0.54590(2) 0.2515(3)
O1 O 0.4330(4) 0.6221(3) -0.4668(17)
O2 O 0.4934(7) 0.6027(12) -0.084(4)
O3 O 0.5614(4) 0.7866(3) 0.286(3)
O4 O 0.3668(4) 0.8218(3) -0.3187(17)
O5 O 0.1210(4) 0.9922(3) -0.9913(17)
O6 O 0.0565(3) 0.9781(3) -0.6093(18)
O7 O 0.8379(4) 0.9276(3) 1.0673(18)
O8 O 0.8263(4) 0.8440(3) 1.229(2)
H16 H 0.8647 0.8509 1.2998
Cd1_2 Cd 0.44712(3) 0.54590(2) -0.7485(3)
Cd1B Cd -0.05288(3) 0.95410(2) -0.7485(3)
Cd1B_2 Cd 0.94712(3) 0.95410(2) 1.2515(3)
Cd1C Cd 0.05288(3) 1.04590(2) -1.2485(3)
Cd1C_2 Cd 0.05288(3) 1.04590(2) -0.2485(3)
O1_2 O 0.4330(4) 0.6221(3) 0.5332(17)
O5C O 0.3790(4) 0.4922(3) 0.5087(17)
O6B O 0.5565(3) 0.5219(3) 0.3907(18)
O6C O 0.4435(3) 0.4781(3) -0.1093(18)
O7B O 0.3379(4) 0.5724(3) 0.0673(18)
loop_
_geom_bond_atom_site_label_1
_geom_bond_atom_site_label_2
_geom_bond_site_symmetry_1
_geom_bond_site_symmetry_2
C1 C2 1_555 1_555
C2 C3 1_555 1_555
C3 H1 1_555 1_555
C4 C3 1_555 1_555
C5 C4 1_555 1_555
H2 C5 1_555 1_555
C6 C5 1_555 1_555
C7 C2 1_555 1_555
H3 C7 1_555 1_555
C8 H4 1_555 1_555
H5 C8 1_555 1_555
C9 C8 1_555 1_555
C10 C9 1_555 1_555
H6 C10 1_555 1_555
C11 C10 1_555 1_555
H7 C11 1_555 1_555
C12 C11 1_555 1_555
C13 C12 1_555 1_555
H8 C13 1_555 1_555
C14 C9 1_555 1_555
H9 C14 1_555 1_555
C15 C12 1_555 1_555
C16 H10 1_555 1_555
H11 C16 1_555 1_555
C17 C16 1_555 1_555
C18 C17 1_555 1_555
H12 C18 1_555 1_555
C19 C18 1_555 1_555
H13 C19 1_555 1_555
C20 C19 1_555 1_555
C21 C20 1_555 1_555
H14 C21 1_555 1_555
C22 C17 1_555 1_555
H15 C22 1_555 1_555
C23 C20 1_555 1_555
Cd1 O2 1_555 1_555
O1 C1 1_555 1_555
O2 C1 1_555 1_555
O3 C6 1_555 1_555
O4 C4 1_555 1_555
O5 C15 1_555 1_555
O6 C15 1_555 1_555
O7 C23 1_555 1_555
O8 C23 1_555 1_555
H16 O8 1_555 1_555
Cd1_2 O1 1_555 1_555
Cd1B O6 1_555 1_555
Cd1B_2 O7 1_555 1_555
Cd1C O5 1_555 1_555
Cd1C_2 O6 1_555 1_555
O1_2 Cd1 1_555 1_555
O5C Cd1 1_555 1_555
O6B Cd1 1_555 1_555
O6C Cd1 1_555 1_555
O7B Cd1 1_555 1_555
C6 C7 1_555 1_555
C8 O4 1_555 1_555
C13 C14 1_555 1_555
C16 O3 1_555 1_555
C21 C22 1_555 1_555

#END
