
#######################################################################
#
#                 Cambridge Crystallographic Data Centre
#                                CCDC 
#
#######################################################################
#
# If this CIF has been generated from an entry in the Cambridge 
# Structural Database, then it will include bibliographic, chemical, 
# crystal, experimental, refinement or atomic coordinate data resulting 
# from the CCDC's data processing and validation procedures.
#
#######################################################################

data_NOFQEG
_symmetry_cell_setting           orthorhombic
_symmetry_space_group_name_H-M   'I m a 2'
_symmetry_Int_Tables_number      46
_space_group_name_Hall           'I 2 -2a'
loop_
_symmetry_equiv_pos_site_id
_symmetry_equiv_pos_as_xyz
1 x,y,z
2 -x,-y,z
3 1/2+x,-y,z
4 1/2-x,y,z
5 1/2+x,1/2+y,1/2+z
6 1/2-x,1/2-y,1/2+z
7 x,1/2-y,1/2+z
8 -x,1/2+y,1/2+z
_cell_length_a                   17.4661(16)
_cell_length_b                   12.7435(11)
_cell_length_c                   7.2505(6)
_cell_angle_alpha                90
_cell_angle_beta                 90
_cell_angle_gamma                90
_cell_volume                     1613.81
loop_
_atom_site_label
_atom_site_type_symbol
_atom_site_fract_x
_atom_site_fract_y
_atom_site_fract_z
C1 C 0.3894(5) 0.5465(6) 0.2245(11)
H1 H 0.3510 0.5963 0.2607
H2 H 0.3724 0.5092 0.1170
H3 H 0.4362 0.5828 0.1970
C2 C 0.4027(3) 0.4711(4) 0.3771(7)
C3 C 0.4655(2) 0.4651(3) 0.4967(5)
C4 C 0.4509(2) 0.3846(4) 0.6123(7)
C5 C 0.4970(7) 0.3371(7) 0.7688(10)
H4 H 0.4898 0.2624 0.7702
H5 H 0.4802 0.3662 0.8839
H6 H 0.5503 0.3526 0.7512
N1 N 0.3523(2) 0.3957(3) 0.4174(5)
N2 N 0.3833(2) 0.3443(3) 0.5606(6)
H7 H 0.3621 0.2913 0.6134
Cu1 Cu 0.2500 0.35345(7) 0.31849(17)
I1 I 0.2500 0.14410(2) 0.45323(2)
C1A C 0.6106(5) 0.4535(6) 0.2245(11)
H1A H 0.6490 0.4037 0.2607
H2A H 0.6276 0.4908 0.1170
H3A H 0.5638 0.4172 0.1970
C2A C 0.5973(3) 0.5289(4) 0.3771(7)
C3A C 0.5345(2) 0.5349(3) 0.4967(5)
C4A C 0.5491(2) 0.6154(4) 0.6123(7)
C5A C 0.5030(7) 0.6629(7) 0.7688(10)
H4A H 0.5102 0.7376 0.7702
H5A H 0.5198 0.6338 0.8839
H6A H 0.4497 0.6474 0.7512
N1A N 0.6477(2) 0.6043(3) 0.4174(5)
N2A N 0.6167(2) 0.6557(3) 0.5606(6)
H7A H 0.6379 0.7087 0.6134
N1C N 0.1477(2) 0.3957(3) 0.4174(5)
Cu1A Cu 0.7500 0.64655(7) 0.31849(17)
Cu1E Cu 0.2500 0.14655(7) 0.81849(17)
I1E I 0.2500 0.35590(2) -0.04677(2)
loop_
_geom_bond_atom_site_label_1
_geom_bond_atom_site_label_2
_geom_bond_site_symmetry_1
_geom_bond_site_symmetry_2
C1 H1 1_555 1_555
H2 C1 1_555 1_555
H3 C1 1_555 1_555
C2 C1 1_555 1_555
C3 C2 1_555 1_555
C4 C3 1_555 1_555
C5 C4 1_555 1_555
H4 C5 1_555 1_555
H5 C5 1_555 1_555
H6 C5 1_555 1_555
N1 C2 1_555 1_555
N2 C4 1_555 1_555
H7 N2 1_555 1_555
Cu1 N1 1_555 1_555
I1 Cu1 1_555 1_555
C1A H1A 1_555 1_555
H2A C1A 1_555 1_555
H3A C1A 1_555 1_555
C2A C1A 1_555 1_555
C3A C3 1_555 1_555
C4A C3A 1_555 1_555
C5A C4A 1_555 1_555
H4A C5A 1_555 1_555
H5A C5A 1_555 1_555
H6A C5A 1_555 1_555
N1A C2A 1_555 1_555
N2A C4A 1_555 1_555
H7A N2A 1_555 1_555
N1C Cu1 1_555 1_555
Cu1A N1A 1_555 1_555
Cu1E I1 1_555 1_555
I1E Cu1 1_555 1_555
N1 N2 1_555 1_555
C2A C3A 1_555 1_555
N1A N2A 1_555 1_555

#END
