
#######################################################################
#
#                 Cambridge Crystallographic Data Centre
#                                CCDC 
#
#######################################################################
#
# If this CIF has been generated from an entry in the Cambridge 
# Structural Database, then it will include bibliographic, chemical, 
# crystal, experimental, refinement or atomic coordinate data resulting 
# from the CCDC's data processing and validation procedures.
#
#######################################################################

data_NOHHEZ
_symmetry_cell_setting           triclinic
_symmetry_space_group_name_H-M   'P -1'
_symmetry_Int_Tables_number      2
_space_group_name_Hall           '-P 1'
loop_
_symmetry_equiv_pos_site_id
_symmetry_equiv_pos_as_xyz
1 x,y,z
2 -x,-y,-z
_cell_length_a                   6.958(2)
_cell_length_b                   10.909(4)
_cell_length_c                   11.877(4)
_cell_angle_alpha                82.523(10)
_cell_angle_beta                 82.286(10)
_cell_angle_gamma                71.561(9)
_cell_volume                     843.805
loop_
_atom_site_label
_atom_site_type_symbol
_atom_site_fract_x
_atom_site_fract_y
_atom_site_fract_z
Ni1 Ni 0.5000 1.0000 0.5000
Ni2 Ni 0.5000 0.5000 0.0000
O1 O 0.3877(5) 0.8474(3) 0.5239(3)
O2 O 0.8084(5) 0.4076(3) 0.0291(3)
O3 O 0.4561(5) 0.3191(3) 0.0111(3)
O4 O 0.1084(5) 0.8960(3) 0.6468(3)
O5 O 0.1197(6) 0.2926(3) 0.7396(3)
O6 O 0.2467(6) 1.1026(3) 0.5950(3)
O7 O 0.6706(6) 0.9357(4) 0.6410(3)
O8 O 0.3916(5) 0.1619(3) 0.1356(3)
O9 O 0.0534(5) 0.4544(3) 0.8466(3)
N1 N 0.3263(5) 0.4698(3) 0.3447(3)
N2 N 0.3846(5) 0.5435(3) 0.2551(3)
C1 C 0.2188(6) 0.6923(4) 0.5689(4)
C2 C 0.2725(6) 0.5194(4) 0.4541(4)
N3 N 0.4225(5) 0.4745(3) 0.1688(3)
C3 C 0.2746(7) 0.6437(4) 0.4634(4)
H1 H 0.311(7) 0.688(4) 0.409(4)
C4 C 0.1605(7) 0.6175(4) 0.6624(4)
H2 H 0.109(7) 0.655(4) 0.738(4)
C5 C 0.3902(6) 0.3577(4) 0.2015(4)
C6 C 0.2233(7) 0.4418(4) 0.5464(4)
H3 H 0.231(7) 0.364(4) 0.549(4)
C7 C 0.1669(6) 0.4898(4) 0.6522(4)
C8 C 0.4154(7) 0.2705(4) 0.1109(4)
C9 C 0.3285(7) 0.3546(4) 0.3152(4)
H4 H 0.301(7) 0.288(4) 0.368(4)
C10 C 0.2377(7) 0.8242(4) 0.5804(4)
C11 C 0.1109(6) 0.4056(4) 0.7541(4)
H5 H 0.821(8) 0.460(6) 0.072(5)
H6 H 0.862(8) 0.422(7) -0.038(2)
H7 H 0.158(9) 1.066(5) 0.625(6)
H8 H 0.252(7) 1.158(6) 0.638(5)
H9 H 0.625(5) 0.913(9) 0.707(2)
H10 H 0.794(4) 0.932(8) 0.640(3)
O1A O 0.6123(5) 0.1526(3) -0.5239(3)
O2A O 0.1916(5) 0.5924(3) -0.0291(3)
O3A O 0.5439(5) 0.6809(3) -0.0111(3)
O4A O 0.8916(5) 0.1040(3) -0.6468(3)
O5A O 0.8803(6) 0.7074(3) -0.7396(3)
O8A O 0.6084(5) 0.8381(3) -0.1356(3)
O9A O 0.9466(5) 0.5456(3) -0.8466(3)
N1A N 0.6737(5) 0.5302(3) -0.3447(3)
N2A N 0.6154(5) 0.4565(3) -0.2551(3)
C1A C 0.7812(6) 0.3077(4) -0.5689(4)
C2A C 0.7275(6) 0.4806(4) -0.4541(4)
N3A N 0.5775(5) 0.5255(3) -0.1688(3)
C3A C 0.7254(7) 0.3563(4) -0.4634(4)
H1A H 0.689(7) 0.312(4) -0.409(4)
C4A C 0.8395(7) 0.3825(4) -0.6624(4)
H2A H 0.891(7) 0.345(4) -0.738(4)
C5A C 0.6098(6) 0.6423(4) -0.2015(4)
C6A C 0.7767(7) 0.5582(4) -0.5464(4)
H3A H 0.769(7) 0.636(4) -0.549(4)
C7A C 0.8331(6) 0.5102(4) -0.6522(4)
C8A C 0.5846(7) 0.7295(4) -0.1109(4)
C9A C 0.6715(7) 0.6454(4) -0.3152(4)
H4A H 0.699(7) 0.712(4) -0.368(4)
C10A C 0.7623(7) 0.1758(4) -0.5804(4)
C11A C 0.8891(6) 0.5944(4) -0.7541(4)
H5A H 0.179(8) 0.540(6) -0.072(5)
H6A H 0.138(8) 0.578(7) 0.038(2)
O6A O 0.7533(6) 0.8974(3) 0.4050(3)
H7A H 0.842(9) 0.934(5) 0.375(6)
H8A H 0.748(7) 0.842(6) 0.362(5)
O7A O 0.3294(6) 1.0643(4) 0.3590(3)
H9A H 0.375(5) 1.087(9) 0.293(2)
H10A H 0.206(4) 1.068(8) 0.360(3)
Ni1_2 Ni 0.5000 0.0000 -0.5000
O1A_2 O 0.6123(5) 1.1526(3) 0.4761(3)
Ni3 Ni 0.0000 1.0000 1.0000
O10 O -0.2699(5) 0.9637(4) 1.0230(3)
O11 O -0.0806(6) 1.1297(4) 0.8629(4)
O12 O 0.1128(6) 0.8569(4) 0.8904(3)
H11 H -0.368(6) 0.999(7) 1.071(6)
H12 H -0.301(6) 0.914(7) 0.985(6)
H13 H -0.203(4) 1.156(6) 0.848(6)
H14 H -0.030(9) 1.192(5) 0.847(7)
H15 H 0.099(8) 0.877(5) 0.8196(14)
H16 H 0.136(10) 0.7766(19) 0.911(6)
O10A O 0.2699(5) 1.0363(4) 0.9770(3)
O11A O 0.0806(6) 0.8703(4) 1.1371(4)
O12A O -0.1128(6) 1.1431(4) 1.1096(3)
H11A H 0.368(6) 1.001(7) 0.929(6)
H12A H 0.301(6) 1.086(7) 1.015(6)
H13A H 0.203(4) 0.844(6) 1.152(6)
H14A H 0.030(9) 0.808(5) 1.153(7)
H15A H -0.099(8) 1.123(5) 1.1804(14)
H16A H -0.136(10) 1.2234(19) 1.089(6)
O13 O 0.4578(8) 0.8297(5) 0.1884(6)
H17 H 0.554(8) 0.863(6) 0.187(9)
H18 H 0.506(11) 0.7478(16) 0.204(9)
loop_
_geom_bond_atom_site_label_1
_geom_bond_atom_site_label_2
_geom_bond_site_symmetry_1
_geom_bond_site_symmetry_2
Ni1 O1 1_555 1_555
Ni2 O2 1_555 1_555
O1 C10 1_555 1_555
O2 H5 1_555 1_555
O3 Ni2 1_555 1_555
O4 C10 1_555 1_555
O5 C11 1_555 1_555
O6 Ni1 1_555 1_555
O7 Ni1 1_555 1_555
O8 C8 1_555 1_555
O9 C11 1_555 1_555
N1 N2 1_555 1_555
N2 N3 1_555 1_555
C1 C3 1_555 1_555
C2 N1 1_555 1_555
N3 Ni2 1_555 1_555
C3 C2 1_555 1_555
H1 C3 1_555 1_555
C4 C1 1_555 1_555
H2 C4 1_555 1_555
C5 N3 1_555 1_555
C6 C2 1_555 1_555
H3 C6 1_555 1_555
C7 C4 1_555 1_555
C8 O3 1_555 1_555
C9 N1 1_555 1_555
H4 C9 1_555 1_555
C10 C1 1_555 1_555
C11 C7 1_555 1_555
H6 O2 1_555 1_555
H7 O6 1_555 1_555
H8 O6 1_555 1_555
H9 O7 1_555 1_555
H10 O7 1_555 1_555
Ni3 O10 1_555 1_555
O10 H11 1_555 1_555
O11 Ni3 1_555 1_555
O12 Ni3 1_555 1_555
H12 O10 1_555 1_555
H13 O11 1_555 1_555
H14 O11 1_555 1_555
H15 O12 1_555 1_555
H16 O12 1_555 1_555
O13 H17 1_555 1_555
H18 O13 1_555 1_555
O1A C10A 1_555 1_555
O2A Ni2 1_555 1_555
O3A Ni2 1_555 1_555
O4A C10A 1_555 1_555
O5A C11A 1_555 1_555
O8A C8A 1_555 1_555
O9A C11A 1_555 1_555
N1A N2A 1_555 1_555
N2A N3A 1_555 1_555
C1A C3A 1_555 1_555
C2A N1A 1_555 1_555
N3A Ni2 1_555 1_555
C3A C2A 1_555 1_555
H1A C3A 1_555 1_555
C4A C1A 1_555 1_555
H2A C4A 1_555 1_555
C5A N3A 1_555 1_555
C6A C2A 1_555 1_555
H3A C6A 1_555 1_555
C7A C4A 1_555 1_555
C8A O3A 1_555 1_555
C9A N1A 1_555 1_555
H4A C9A 1_555 1_555
C10A C1A 1_555 1_555
C11A C7A 1_555 1_555
H5A O2A 1_555 1_555
H6A O2A 1_555 1_555
O6A Ni1 1_555 1_555
H7A O6A 1_555 1_555
H8A O6A 1_555 1_555
O7A Ni1 1_555 1_555
H9A O7A 1_555 1_555
H10A O7A 1_555 1_555
Ni1_2 O1A 1_555 1_555
O1A_2 Ni1 1_555 1_555
O10A Ni3 1_555 1_555
O11A Ni3 1_555 1_555
O12A Ni3 1_555 1_555
H11A O10A 1_555 1_555
H12A O10A 1_555 1_555
H13A O11A 1_555 1_555
H14A O11A 1_555 1_555
H15A O12A 1_555 1_555
H16A O12A 1_555 1_555
C5 C8 1_555 1_555
C5 C9 1_555 1_555
C6 C7 1_555 1_555
C5A C8A 1_555 1_555
C5A C9A 1_555 1_555
C6A C7A 1_555 1_555

#END
