
#######################################################################
#
#                 Cambridge Crystallographic Data Centre
#                                CCDC 
#
#######################################################################
#
# If this CIF has been generated from an entry in the Cambridge 
# Structural Database, then it will include bibliographic, chemical, 
# crystal, experimental, refinement or atomic coordinate data resulting 
# from the CCDC's data processing and validation procedures.
#
#######################################################################

data_NOLQUA
_symmetry_cell_setting           triclinic
_symmetry_space_group_name_H-M   'P -1'
_symmetry_Int_Tables_number      2
_space_group_name_Hall           '-P 1'
loop_
_symmetry_equiv_pos_site_id
_symmetry_equiv_pos_as_xyz
1 x,y,z
2 -x,-y,-z
_cell_length_a                   11.521(2)
_cell_length_b                   11.6637(13)
_cell_length_c                   11.853(2)
_cell_angle_alpha                92.926(12)
_cell_angle_beta                 93.35(2)
_cell_angle_gamma                113.619(14)
_cell_volume                     1452.02
loop_
_atom_site_label
_atom_site_type_symbol
_atom_site_fract_x
_atom_site_fract_y
_atom_site_fract_z
O1 O 0.3862(4) 0.0016(4) 0.3478(4)
O2 O 0.4107(5) -0.2037(4) 0.4626(4)
O3 O 0.3499(4) -0.0079(4) 0.6075(4)
C1 C 0.3370(7) 0.0751(6) 0.3150(6)
C2 C 0.3338(8) 0.1761(7) 0.3813(7)
C3 C 0.2843(8) 0.2556(7) 0.3407(7)
C4 C 0.2294(9) 0.2308(9) 0.2294(8)
C5 C 0.2297(8) 0.1327(8) 0.1666(7)
N1 N 0.2819(6) 0.0549(6) 0.2057(5)
C6 C 0.2842(11) 0.3659(9) 0.4130(9)
C7 C 0.2801(7) -0.0515(7) 0.1298(6)
C8 C 0.3956(7) -0.0219(6) 0.0640(6)
C9 C 0.4202(8) 0.0601(7) -0.0202(7)
C10 C 0.4780(8) -0.0798(7) 0.0852(7)
C11 C 0.3753(7) -0.2701(6) 0.3691(6)
C12 C 0.4538(7) -0.3101(7) 0.3052(7)
C13 C 0.4127(9) -0.3847(7) 0.2087(7)
C14 C 0.2854(10) -0.4233(7) 0.1658(7)
C15 C 0.2089(9) -0.3854(7) 0.2275(7)
N2 N 0.2518(5) -0.3106(5) 0.3254(5)
C16 C 0.4974(11) -0.4294(11) 0.1436(10)
C17 C 0.1590(7) -0.2812(6) 0.3883(6)
C18 C 0.0744(6) -0.3952(6) 0.4467(6)
C19 C 0.1283(7) -0.4396(6) 0.5324(6)
C20 C -0.0519(7) -0.4556(6) 0.4151(6)
C21 C 0.2977(6) -0.0786(7) 0.6816(6)
C22 C 0.3285(7) -0.1779(7) 0.7188(6)
C23 C 0.2688(9) -0.2536(7) 0.7999(7)
C24 C 0.1684(9) -0.2358(10) 0.8470(8)
C25 C 0.1371(8) -0.1422(10) 0.8158(7)
N3 N 0.2001(6) -0.0637(6) 0.7337(5)
C26 C 0.3081(12) -0.3560(9) 0.8370(9)
C27 C 0.1688(8) 0.0411(8) 0.7059(7)
C28 C 0.0814(7) 0.0170(7) 0.5994(6)
C29 C 0.0556(9) 0.1155(8) 0.5590(8)
C30 C 0.0243(9) -0.0971(8) 0.5378(8)
H1 H 0.3671(8) 0.1897(7) 0.4565(7)
H2 H 0.1930(9) 0.2820(9) 0.1993(8)
H3 H 0.1924(8) 0.1168(8) 0.0926(7)
H4 H 0.3020(58) 0.4362(19) 0.3680(16)
H5 H 0.3842(40) 0.3877(37) 0.4753(30)
H6 H 0.2023(21) 0.3439(21) 0.4415(42)
H7 H 0.2052(7) -0.0794(7) 0.0764(6)
H8 H 0.2721(7) -0.1206(7) 0.1753(6)
H9 H 0.3681(8) 0.1025(7) -0.0336(7)
H10 H 0.4649(8) -0.1327(7) 0.1437(7)
H11 H 0.5389(7) -0.2832(7) 0.3316(7)
H12 H 0.2544(10) -0.4728(7) 0.0978(7)
H13 H 0.1238(9) -0.4121(7) 0.2013(7)
H14 H 0.5211(56) -0.3827(47) 0.0782(33)
H15 H 0.4526(26) -0.5170(19) 0.1199(53)
H16 H 0.5724(33) -0.4168(61) 0.1913(21)
H17 H 0.1067(7) -0.2564(6) 0.3363(6)
H18 H 0.2037(7) -0.2115(6) 0.4446(6)
H19 H 0.2149(7) -0.3996(6) 0.5547(6)
H20 H -0.0881(7) -0.4263(6) 0.3572(6)
H21 H 0.3935(7) -0.1918(7) 0.6857(6)
H22 H 0.1234(9) -0.2887(10) 0.8999(8)
H23 H 0.0719(8) -0.1294(10) 0.8495(7)
H24 H 0.2456(33) -0.4363(10) 0.8064(45)
H25 H 0.3148(60) -0.3535(39) 0.9183(9)
H26 H 0.3890(31) -0.3433(35) 0.8099(47)
H27 H 0.2471(8) 0.1131(8) 0.6976(7)
H28 H 0.1291(8) 0.0626(8) 0.7688(7)
H29 H 0.0927(9) 0.1947(8) 0.5979(8)
H30 H 0.0399(9) -0.1645(8) 0.5622(8)
Mn1 Mn 0.5000 0.0000 0.5000
C10A C 0.5220(8) 0.0798(7) -0.0852(7)
C8A C 0.6044(7) 0.0219(6) -0.0640(6)
C7A C 0.7199(7) 0.0515(7) -0.1298(6)
N1A N 0.7181(6) -0.0549(6) -0.2057(5)
C1A C 0.6630(7) -0.0751(6) -0.3150(6)
O1A O 0.6138(4) -0.0016(4) -0.3478(4)
C2A C 0.6662(8) -0.1761(7) -0.3813(7)
C3A C 0.7157(8) -0.2556(7) -0.3407(7)
C4A C 0.7706(9) -0.2308(9) -0.2294(8)
C5A C 0.7703(8) -0.1327(8) -0.1666(7)
H3A H 0.8076(8) -0.1168(8) -0.0926(7)
H2A H 0.8070(9) -0.2820(9) -0.1993(8)
C6A C 0.7158(11) -0.3659(9) -0.4130(9)
H4A H 0.6980(58) -0.4362(19) -0.3680(16)
H5A H 0.6158(40) -0.3877(37) -0.4753(30)
H6A H 0.7977(21) -0.3439(21) -0.4415(42)
H1A H 0.6329(8) -0.1897(7) -0.4565(7)
H7A H 0.7948(7) 0.0794(7) -0.0764(6)
H8A H 0.7279(7) 0.1206(7) -0.1753(6)
C9A C 0.5798(8) -0.0601(7) 0.0202(7)
H9A H 0.6319(8) -0.1025(7) 0.0336(7)
H10A H 0.5351(8) 0.1327(7) -0.1437(7)
C20A C 0.0519(7) -0.5444(6) 0.5849(6)
C18A C -0.0744(6) -0.6048(6) 0.5533(6)
C17A C -0.1590(7) -0.7188(6) 0.6117(6)
N2A N -0.2518(5) -0.6894(5) 0.6746(5)
C11A C -0.3753(7) -0.7299(6) 0.6309(6)
O2A O -0.4107(5) -0.7963(4) 0.5374(4)
C12A C -0.4538(7) -0.6899(7) 0.6948(7)
C13A C -0.4127(9) -0.6153(7) 0.7913(7)
C14A C -0.2854(10) -0.5767(7) 0.8342(7)
C15A C -0.2089(9) -0.6146(7) 0.7725(7)
H13A H -0.1238(9) -0.5879(7) 0.7987(7)
H12A H -0.2544(10) -0.5272(7) 0.9022(7)
C16A C -0.4974(11) -0.5706(11) 0.8564(10)
H14A H -0.5211(56) -0.6173(47) 0.9218(33)
H15A H -0.4526(26) -0.4830(19) 0.8801(53)
H16A H -0.5724(33) -0.5832(61) 0.8087(21)
H11A H -0.5389(7) -0.7168(7) 0.6684(7)
H17A H -0.1067(7) -0.7436(6) 0.6637(6)
H18A H -0.2037(7) -0.7885(6) 0.5554(6)
C19A C -0.1283(7) -0.5604(6) 0.4676(6)
H19A H -0.2149(7) -0.6004(6) 0.4453(6)
H20A H 0.0881(7) -0.5737(6) 0.6428(6)
C30A C -0.0243(9) 0.0971(8) 0.4622(8)
C28A C -0.0814(7) -0.0170(7) 0.4006(6)
C27A C -0.1688(8) -0.0411(8) 0.2941(7)
N3A N -0.2001(6) 0.0637(6) 0.2663(5)
C21A C -0.2977(6) 0.0786(7) 0.3184(6)
O3A O -0.3499(4) 0.0079(4) 0.3925(4)
C22A C -0.3285(7) 0.1779(7) 0.2812(6)
C23A C -0.2688(9) 0.2536(7) 0.2001(7)
C24A C -0.1684(9) 0.2358(10) 0.1530(8)
C25A C -0.1371(8) 0.1422(10) 0.1842(7)
H23A H -0.0719(8) 0.1294(10) 0.1505(7)
H22A H -0.1234(9) 0.2887(10) 0.1001(8)
C26A C -0.3081(12) 0.3560(9) 0.1630(9)
H24A H -0.2456(33) 0.4363(10) 0.1936(45)
H25A H -0.3148(60) 0.3535(39) 0.0817(9)
H26A H -0.3890(31) 0.3433(35) 0.1901(47)
H21A H -0.3935(7) 0.1918(7) 0.3143(6)
H27A H -0.2471(8) -0.1131(8) 0.3024(7)
H28A H -0.1291(8) -0.0626(8) 0.2312(7)
C29A C -0.0556(9) -0.1155(8) 0.4410(8)
H29A H -0.0927(9) -0.1947(8) 0.4021(8)
H30A H -0.0399(9) 0.1645(8) 0.4378(8)
O1A_2 O 0.6138(4) -0.0016(4) 0.6522(4)
O2A_2 O 0.5893(5) 0.2037(4) 0.5374(4)
O3A_2 O 0.6501(4) 0.0079(4) 0.3925(4)
Mn1_2 Mn 0.5000 0.0000 -0.5000
Mn1_3 Mn -0.5000 -1.0000 0.5000
Mn1_4 Mn -0.5000 0.0000 0.5000
Cl1 Cl -0.0977(2) -0.2773(2) 1.0873(2)
O4 O -0.0459(11) -0.3539(9) 1.0397(12)
O5 O -0.0402(7) -0.1507(7) 1.0591(8)
O6 O -0.1037(16) -0.2871(10) 1.1970(7)
O7 O -0.2205(7) -0.3246(10) 1.0440(10)
loop_
_geom_bond_atom_site_label_1
_geom_bond_atom_site_label_2
_geom_bond_site_symmetry_1
_geom_bond_site_symmetry_2
O1 C1 1_555 1_555
O2 C11 1_555 1_555
O3 C21 1_555 1_555
C1 C2 1_555 1_555
C2 C3 1_555 1_555
C3 C4 1_555 1_555
C4 C5 1_555 1_555
C5 N1 1_555 1_555
N1 C1 1_555 1_555
C6 C3 1_555 1_555
C7 N1 1_555 1_555
C8 C7 1_555 1_555
C9 C8 1_555 1_555
C10 C8 1_555 1_555
C11 C12 1_555 1_555
C12 C13 1_555 1_555
C13 C14 1_555 1_555
C14 C15 1_555 1_555
C15 N2 1_555 1_555
N2 C11 1_555 1_555
C16 C13 1_555 1_555
C17 N2 1_555 1_555
C18 C17 1_555 1_555
C19 C18 1_555 1_555
C20 C18 1_555 1_555
C21 C22 1_555 1_555
C22 C23 1_555 1_555
C23 C24 1_555 1_555
C24 C25 1_555 1_555
C25 N3 1_555 1_555
N3 C21 1_555 1_555
C26 C23 1_555 1_555
C27 N3 1_555 1_555
C28 C27 1_555 1_555
C29 C28 1_555 1_555
C30 C28 1_555 1_555
Cl1 O4 1_555 1_555
O5 Cl1 1_555 1_555
O6 Cl1 1_555 1_555
O7 Cl1 1_555 1_555
H1 C2 1_555 1_555
H2 C4 1_555 1_555
H3 C5 1_555 1_555
H4 C6 1_555 1_555
H5 C6 1_555 1_555
H6 C6 1_555 1_555
H7 C7 1_555 1_555
H8 C7 1_555 1_555
H9 C9 1_555 1_555
H10 C10 1_555 1_555
H11 C12 1_555 1_555
H12 C14 1_555 1_555
H13 C15 1_555 1_555
H14 C16 1_555 1_555
H15 C16 1_555 1_555
H16 C16 1_555 1_555
H17 C17 1_555 1_555
H18 C17 1_555 1_555
H19 C19 1_555 1_555
H20 C20 1_555 1_555
H21 C22 1_555 1_555
H22 C24 1_555 1_555
H23 C25 1_555 1_555
H24 C26 1_555 1_555
H25 C26 1_555 1_555
H26 C26 1_555 1_555
H27 C27 1_555 1_555
H28 C27 1_555 1_555
H29 C29 1_555 1_555
H30 C30 1_555 1_555
Mn1 O1 1_555 1_555
C10A C9 1_555 1_555
C8A C10A 1_555 1_555
C7A C8A 1_555 1_555
N1A C7A 1_555 1_555
C1A N1A 1_555 1_555
O1A C1A 1_555 1_555
C2A C1A 1_555 1_555
C3A C2A 1_555 1_555
C4A C3A 1_555 1_555
C5A N1A 1_555 1_555
H3A C5A 1_555 1_555
H2A C4A 1_555 1_555
C6A C3A 1_555 1_555
H4A C6A 1_555 1_555
H5A C6A 1_555 1_555
H6A C6A 1_555 1_555
H1A C2A 1_555 1_555
H7A C7A 1_555 1_555
H8A C7A 1_555 1_555
C9A C10 1_555 1_555
H9A C9A 1_555 1_555
H10A C10A 1_555 1_555
C20A C19 1_555 1_555
C18A C20A 1_555 1_555
C17A C18A 1_555 1_555
N2A C17A 1_555 1_555
C11A N2A 1_555 1_555
O2A C11A 1_555 1_555
C12A C11A 1_555 1_555
C13A C12A 1_555 1_555
C14A C13A 1_555 1_555
C15A N2A 1_555 1_555
H13A C15A 1_555 1_555
H12A C14A 1_555 1_555
C16A C13A 1_555 1_555
H14A C16A 1_555 1_555
H15A C16A 1_555 1_555
H16A C16A 1_555 1_555
H11A C12A 1_555 1_555
H17A C17A 1_555 1_555
H18A C17A 1_555 1_555
C19A C20 1_555 1_555
H19A C19A 1_555 1_555
H20A C20A 1_555 1_555
C30A C29 1_555 1_555
C28A C30A 1_555 1_555
C27A C28A 1_555 1_555
N3A C27A 1_555 1_555
C21A N3A 1_555 1_555
O3A C21A 1_555 1_555
C22A C21A 1_555 1_555
C23A C22A 1_555 1_555
C24A C23A 1_555 1_555
C25A N3A 1_555 1_555
H23A C25A 1_555 1_555
H22A C24A 1_555 1_555
C26A C23A 1_555 1_555
H24A C26A 1_555 1_555
H25A C26A 1_555 1_555
H26A C26A 1_555 1_555
H21A C22A 1_555 1_555
H27A C27A 1_555 1_555
H28A C27A 1_555 1_555
C29A C30 1_555 1_555
H29A C29A 1_555 1_555
H30A C30A 1_555 1_555
O1A_2 Mn1 1_555 1_555
O2A_2 Mn1 1_555 1_555
O3A_2 Mn1 1_555 1_555
Mn1_2 O1A 1_555 1_555
Mn1_3 O2A 1_555 1_555
Mn1_4 O3A 1_555 1_555
O2 Mn1 1_555 1_555
O3 Mn1 1_555 1_555
C8A C9A 1_555 1_555
C4A C5A 1_555 1_555
C18A C19A 1_555 1_555
C14A C15A 1_555 1_555
C28A C29A 1_555 1_555
C24A C25A 1_555 1_555

#END
