
#######################################################################
#
#                 Cambridge Crystallographic Data Centre
#                                CCDC 
#
#######################################################################
#
# If this CIF has been generated from an entry in the Cambridge 
# Structural Database, then it will include bibliographic, chemical, 
# crystal, experimental, refinement or atomic coordinate data resulting 
# from the CCDC's data processing and validation procedures.
#
#######################################################################

data_NOZQEY
_symmetry_cell_setting           triclinic
_symmetry_space_group_name_H-M   'P -1'
_symmetry_Int_Tables_number      2
_space_group_name_Hall           '-P 1'
loop_
_symmetry_equiv_pos_site_id
_symmetry_equiv_pos_as_xyz
1 x,y,z
2 -x,-y,-z
_cell_length_a                   13.068(3)
_cell_length_b                   13.715(3)
_cell_length_c                   14.312(3)
_cell_angle_alpha                84.48(2)
_cell_angle_beta                 65.25(2)
_cell_angle_gamma                86.76(2)
_cell_volume                     2318.31
loop_
_atom_site_label
_atom_site_type_symbol
_atom_site_fract_x
_atom_site_fract_y
_atom_site_fract_z
Sn1 Sn 0.07168(5) 0.18841(4) 0.17436(4)
O1 O 0.0837(4) 0.3031(4) 0.0488(4)
O2 O -0.0178(4) 0.4063(4) 0.1638(4)
O3 O 0.0622(4) 0.0604(3) 0.2915(4)
O4 O 0.0669(4) 0.8522(4) -0.4086(4)
C1 C 0.1393(6) 0.2802(5) 0.2451(5)
H7 H 0.1794(6) 0.3341(5) 0.1936(5)
H8 H 0.0758(6) 0.3100(5) 0.3021(5)
C2 C 0.2187(6) 0.2319(5) 0.2877(6)
H9 H 0.1785(6) 0.1778(5) 0.3388(6)
H10 H 0.2822(6) 0.2022(5) 0.2306(6)
C3 C 0.2670(7) 0.2959(6) 0.3383(6)
H11 H 0.3063(7) 0.2535(6) 0.3733(6)
H12 H 0.2039(7) 0.3296(6) 0.3921(6)
C4 C 0.3480(7) 0.3723(7) 0.2668(7)
H13 H 0.3750(7) 0.4100(7) 0.3066(7)
H14 H 0.3096(7) 0.4164(7) 0.2334(7)
H15 H 0.4122(7) 0.3400(7) 0.2142(7)
C5 C 0.2006(7) 0.1064(5) 0.0589(6)
H16 H 0.2081(7) 0.1352(5) -0.0097(6)
H17 H 0.2730(7) 0.1160(5) 0.0632(6)
C6 C 0.1845(7) -0.0016(6) 0.0639(6)
H18 H 0.1174(7) -0.0120(6) 0.0509(6)
H19 H 0.1690(7) -0.0302(6) 0.1347(6)
C7 C 0.2848(8) -0.0564(6) -0.0125(7)
H20 H 0.2945(8) -0.0332(6) -0.0834(7)
H21 H 0.3536(8) -0.0394(6) -0.0052(7)
C8 C 0.275(1) -0.1658(8) -0.0001(8)
H22 H 0.343(1) -0.1950(8) -0.0519(8)
H23 H 0.209(1) -0.1839(8) -0.0094(8)
H24 H 0.268(1) -0.1900(8) 0.0692(8)
C9 C -0.0945(6) 0.1556(5) 0.1956(6)
H25 H -0.0922(6) 0.1489(5) 0.1264(6)
H26 H -0.1131(6) 0.0905(5) 0.2342(6)
C10 C -0.1926(6) 0.2251(5) 0.2501(6)
H27 H -0.1879(6) 0.2436(5) 0.3134(6)
H28 H -0.1857(6) 0.2856(5) 0.2044(6)
C11 C -0.3066(6) 0.1809(6) 0.2792(7)
H29 H -0.3084(6) 0.1563(6) 0.2171(7)
H30 H -0.3166(6) 0.1243(6) 0.3305(7)
C12 C -0.4037(7) 0.2526(7) 0.3237(7)
H31 H -0.4749(7) 0.2199(7) 0.3411(7)
H32 H -0.3955(7) 0.3081(7) 0.2727(7)
H33 H -0.4036(7) 0.2763(7) 0.3861(7)
C13 C 0.0285(6) 0.3830(5) 0.0750(5)
C14 C 0.0195(7) 0.4494(5) -0.0111(6)
H34 H 0.0946(7) 0.4517(5) -0.0700(6)
H35 H -0.0324(7) 0.4193(5) -0.0338(6)
C15 C 0.0099(5) 0.9275(5) -0.3814(5)
C16 C 0.0235(6) 1.0137(5) -0.4625(5)
H36 H -0.1042(6) 0.9702(5) -0.4993(5)
H37 H 0.0173(6) 0.9278(5) -0.5721(5)
C14A C -0.0195(7) 0.5506(5) 0.0111(6)
C13A C -0.0285(6) 0.6170(5) -0.0750(5)
O1A O -0.0837(4) 0.6969(4) -0.0488(4)
Sn1A Sn -0.07168(5) 0.81159(4) -0.17436(4)
O3A O -0.0622(4) 0.9396(3) -0.2915(4)
C16A C -0.0235(6) 0.9863(5) -0.5375(5)
C15A C -0.0099(5) 1.0725(5) -0.6186(5)
O3_2 O 0.0622(4) 1.0604(3) -0.7085(4)
Sn1_2 Sn 0.07168(5) 1.18841(4) -0.82564(4)
O4A O -0.0669(4) 1.1478(4) -0.5914(4)
H36A H 0.1042(6) 1.0298(5) -0.5007(5)
H37A H -0.0173(6) 1.0722(5) -0.4279(5)
C1A C -0.1393(6) 0.7198(5) -0.2451(5)
H7A H -0.1794(6) 0.6659(5) -0.1936(5)
H8A H -0.0758(6) 0.6900(5) -0.3021(5)
C2A C -0.2187(6) 0.7681(5) -0.2877(6)
H9A H -0.1785(6) 0.8222(5) -0.3388(6)
H10A H -0.2822(6) 0.7978(5) -0.2306(6)
C3A C -0.2670(7) 0.7041(6) -0.3383(6)
H11A H -0.3063(7) 0.7465(6) -0.3733(6)
H12A H -0.2039(7) 0.6704(6) -0.3921(6)
C4A C -0.3480(7) 0.6277(7) -0.2668(7)
H13A H -0.3750(7) 0.5900(7) -0.3066(7)
H14A H -0.3096(7) 0.5836(7) -0.2334(7)
H15A H -0.4122(7) 0.6600(7) -0.2142(7)
C5A C -0.2006(7) 0.8936(5) -0.0589(6)
H16A H -0.2081(7) 0.8648(5) 0.0097(6)
H17A H -0.2730(7) 0.8840(5) -0.0632(6)
C6A C -0.1845(7) 1.0016(6) -0.0639(6)
H18A H -0.1174(7) 1.0120(6) -0.0509(6)
H19A H -0.1690(7) 1.0302(6) -0.1347(6)
C7A C -0.2848(8) 1.0564(6) 0.0125(7)
H20A H -0.2945(8) 1.0332(6) 0.0834(7)
H21A H -0.3536(8) 1.0394(6) 0.0052(7)
C8A C -0.275(1) 1.1658(8) 0.0001(8)
H22A H -0.343(1) 1.1950(8) 0.0519(8)
H23A H -0.209(1) 1.1839(8) 0.0094(8)
H24A H -0.268(1) 1.1900(8) -0.0692(8)
C9A C 0.0945(6) 0.8444(5) -0.1956(6)
H25A H 0.0922(6) 0.8511(5) -0.1264(6)
H26A H 0.1131(6) 0.9095(5) -0.2342(6)
C10A C 0.1926(6) 0.7749(5) -0.2501(6)
H27A H 0.1879(6) 0.7564(5) -0.3134(6)
H28A H 0.1857(6) 0.7144(5) -0.2044(6)
C11A C 0.3066(6) 0.8191(6) -0.2792(7)
H29A H 0.3084(6) 0.8437(6) -0.2171(7)
H30A H 0.3166(6) 0.8757(6) -0.3305(7)
C12A C 0.4037(7) 0.7474(7) -0.3237(7)
H31A H 0.4749(7) 0.7801(7) -0.3411(7)
H32A H 0.3955(7) 0.6919(7) -0.2727(7)
H33A H 0.4036(7) 0.7237(7) -0.3861(7)
O2A O 0.0178(4) 0.5937(4) -0.1638(4)
H34A H -0.0946(7) 0.5483(5) 0.0700(6)
H35A H 0.0324(7) 0.5807(5) 0.0338(6)
O5 O -0.4612(4) 0.3544(4) 0.6052(4)
O6 O -0.2917(4) 0.3922(4) 0.4856(4)
C17 C -0.3959(6) 0.4083(5) 0.5305(5)
C18 C -0.4413(6) 0.4951(6) 0.4851(8)
H38 H -0.4160(6) 0.5552(6) 0.5017(8)
H39 H -0.4050(6) 0.4936(6) 0.4091(8)
C18A C -0.5587(6) 0.5049(6) 0.5149(8)
C17A C -0.6041(6) 0.5917(5) 0.4695(5)
O5A O -0.5388(4) 0.6456(4) 0.3948(4)
O6A O -0.7083(4) 0.6078(4) 0.5144(4)
H38A H -0.5840(6) 0.4448(6) 0.4983(8)
H39A H -0.5950(6) 0.5064(6) 0.5909(8)
O7 O -0.1858(5) 0.5112(4) 0.3052(5)
H1 H -0.147(7) 0.477(6) 0.261(6)
H2 H -0.217(7) 0.474(6) 0.364(7)
N1 N -0.2231(4) 0.2325(4) 0.5779(4)
H3 H -0.2502(4) 0.2825(4) 0.5464(4)
H4 H -0.1707(4) 0.1977(4) 0.5265(4)
C19 C -0.3180(5) 0.1665(5) 0.6409(5)
H40 H -0.3823(5) 0.2076(5) 0.6858(5)
C20 C -0.2889(6) 0.0898(5) 0.7109(6)
H41 H -0.2225(6) 0.0505(5) 0.6687(6)
H42 H -0.2694(6) 0.1229(5) 0.7597(6)
C21 C -0.3883(7) 0.0225(6) 0.7712(6)
H43 H -0.3664(7) -0.0288(6) 0.8132(6)
H44 H -0.4519(7) 0.0611(6) 0.8189(6)
C22 C -0.4265(7) -0.0254(6) 0.7009(7)
H45 H -0.4944(7) -0.0645(6) 0.7429(7)
H46 H -0.3664(7) -0.0704(6) 0.6589(7)
C23 C -0.4533(6) 0.0512(6) 0.6300(6)
H47 H -0.4726(6) 0.0180(6) 0.5813(6)
H48 H -0.5199(6) 0.0907(6) 0.6718(6)
C24 C -0.3558(6) 0.1186(5) 0.5696(6)
H49 H -0.3788(6) 0.1699(5) 0.5283(6)
H50 H -0.2921(6) 0.0807(5) 0.5214(6)
C25 C -0.1628(6) 0.2777(5) 0.6313(6)
H51 H -0.1291(6) 0.2239(5) 0.6624(6)
C26 C -0.2431(6) 0.3380(5) 0.7174(5)
H52 H -0.2829(6) 0.3877(5) 0.6893(5)
H53 H -0.3001(6) 0.2947(5) 0.7711(5)
C27 C -0.1778(7) 0.3883(6) 0.7648(6)
H54 H -0.2304(7) 0.4300(6) 0.8180(6)
H55 H -0.1452(7) 0.3380(6) 0.7994(6)
C28 C -0.0845(7) 0.4507(6) 0.6864(7)
H56 H -0.0415(7) 0.4781(6) 0.7202(7)
H57 H -0.1172(7) 0.5060(6) 0.6574(7)
C29 C -0.0053(6) 0.3900(6) 0.5993(6)
H58 H 0.0515(6) 0.4335(6) 0.5458(6)
H59 H 0.0350(6) 0.3405(6) 0.6271(6)
C30 C -0.0675(6) 0.3390(5) 0.5507(6)
H60 H -0.0143(6) 0.2961(5) 0.4992(6)
H61 H -0.0988(6) 0.3884(5) 0.5141(6)
N2 N -0.6809(4) 0.3446(4) 0.7401(4)
H5 H -0.7247(4) 0.3942(4) 0.7271(4)
H6 H -0.6091(4) 0.3513(4) 0.6889(4)
C31 C -0.6768(6) 0.3590(5) 0.8405(5)
H62 H -0.7526(6) 0.3447(5) 0.8975(5)
C32 C -0.5897(6) 0.2889(5) 0.8575(5)
H63 H -0.5146(6) 0.3000(5) 0.8000(5)
H64 H -0.6106(6) 0.2203(5) 0.8593(5)
C33 C -0.5852(7) 0.3067(6) 0.9600(6)
H65 H -0.6590(7) 0.2908(6) 1.0176(6)
H66 H -0.5274(7) 0.2627(6) 0.9701(6)
C34 C -0.5577(7) 0.4115(6) 0.9621(6)
H67 H -0.4811(7) 0.4259(6) 0.9085(6)
H68 H -0.5586(7) 0.4211(6) 1.0301(6)
C35 C -0.6427(7) 0.4817(6) 0.9427(6)
H69 H -0.7181(7) 0.4720(6) 1.0001(6)
H70 H -0.6207(7) 0.5501(6) 0.9402(6)
C36 C -0.6484(7) 0.4648(5) 0.8421(6)
H71 H -0.5749(7) 0.4806(5) 0.7841(6)
H72 H -0.7065(7) 0.5090(5) 0.8327(6)
C37 C -0.7249(6) 0.2500(5) 0.7321(5)
H73 H -0.6852(6) 0.1961(5) 0.7568(5)
C38 C -0.6988(7) 0.2374(6) 0.6203(6)
H74 H -0.6164(7) 0.2411(6) 0.5785(6)
H75 H -0.7357(7) 0.2909(6) 0.5935(6)
C39 C -0.7405(8) 0.1392(6) 0.6109(7)
H76 H -0.7273(8) 0.1338(6) 0.5382(7)
H77 H -0.6973(8) 0.0858(6) 0.6304(7)
C40 C -0.8645(8) 0.1277(6) 0.6793(7)
H78 H -0.8874(8) 0.0611(6) 0.6756(7)
H79 H -0.9083(8) 0.1754(6) 0.6535(7)
C41 C -0.8921(8) 0.1435(7) 0.7908(7)
H80 H -0.8564(8) 0.0906(7) 0.8196(7)
H81 H -0.9747(8) 0.1404(7) 0.8317(7)
C42 C -0.8508(6) 0.2423(6) 0.8000(6)
H82 H -0.8653(6) 0.2490(6) 0.8727(6)
H83 H -0.8921(6) 0.2957(6) 0.7781(6)
loop_
_geom_bond_atom_site_label_1
_geom_bond_atom_site_label_2
_geom_bond_site_symmetry_1
_geom_bond_site_symmetry_2
Sn1 O1 1_555 1_555
O1 C13 1_555 1_555
O2 C13 1_555 1_555
O3 Sn1 1_555 1_555
O4 C15 1_555 1_555
O5 C17 1_555 1_555
O6 C17 1_555 1_555
O7 H1 1_555 1_555
H2 O7 1_555 1_555
N1 H3 1_555 1_555
H4 N1 1_555 1_555
N2 H5 1_555 1_555
H6 N2 1_555 1_555
C1 Sn1 1_555 1_555
H7 C1 1_555 1_555
H8 C1 1_555 1_555
C2 C1 1_555 1_555
H9 C2 1_555 1_555
H10 C2 1_555 1_555
C3 C2 1_555 1_555
H11 C3 1_555 1_555
H12 C3 1_555 1_555
C4 C3 1_555 1_555
H13 C4 1_555 1_555
H14 C4 1_555 1_555
H15 C4 1_555 1_555
C5 Sn1 1_555 1_555
H16 C5 1_555 1_555
H17 C5 1_555 1_555
C6 C5 1_555 1_555
H18 C6 1_555 1_555
H19 C6 1_555 1_555
C7 C6 1_555 1_555
H20 C7 1_555 1_555
H21 C7 1_555 1_555
C8 C7 1_555 1_555
H22 C8 1_555 1_555
H23 C8 1_555 1_555
H24 C8 1_555 1_555
C9 Sn1 1_555 1_555
H25 C9 1_555 1_555
H26 C9 1_555 1_555
C10 C9 1_555 1_555
H27 C10 1_555 1_555
H28 C10 1_555 1_555
C11 C10 1_555 1_555
H29 C11 1_555 1_555
H30 C11 1_555 1_555
C12 C11 1_555 1_555
H31 C12 1_555 1_555
H32 C12 1_555 1_555
H33 C12 1_555 1_555
C13 C14 1_555 1_555
C14 H34 1_555 1_555
H35 C14 1_555 1_555
C15 C16 1_555 1_555
C16 C16A 1_555 1_555
H36 C16A 1_555 1_555
H37 C16A 1_555 1_555
C17 C18 1_555 1_555
C18 H38 1_555 1_555
H39 C18 1_555 1_555
C19 N1 1_555 1_555
H40 C19 1_555 1_555
C20 C19 1_555 1_555
H41 C20 1_555 1_555
H42 C20 1_555 1_555
C21 C20 1_555 1_555
H43 C21 1_555 1_555
H44 C21 1_555 1_555
C22 C21 1_555 1_555
H45 C22 1_555 1_555
H46 C22 1_555 1_555
C23 C22 1_555 1_555
H47 C23 1_555 1_555
H48 C23 1_555 1_555
C24 C19 1_555 1_555
H49 C24 1_555 1_555
H50 C24 1_555 1_555
C25 N1 1_555 1_555
H51 C25 1_555 1_555
C26 C25 1_555 1_555
H52 C26 1_555 1_555
H53 C26 1_555 1_555
C27 C26 1_555 1_555
H54 C27 1_555 1_555
H55 C27 1_555 1_555
C28 C27 1_555 1_555
H56 C28 1_555 1_555
H57 C28 1_555 1_555
C29 C28 1_555 1_555
H58 C29 1_555 1_555
H59 C29 1_555 1_555
C30 C25 1_555 1_555
H60 C30 1_555 1_555
H61 C30 1_555 1_555
C31 N2 1_555 1_555
H62 C31 1_555 1_555
C32 C31 1_555 1_555
H63 C32 1_555 1_555
H64 C32 1_555 1_555
C33 C32 1_555 1_555
H65 C33 1_555 1_555
H66 C33 1_555 1_555
C34 C33 1_555 1_555
H67 C34 1_555 1_555
H68 C34 1_555 1_555
C35 C34 1_555 1_555
H69 C35 1_555 1_555
H70 C35 1_555 1_555
C36 C31 1_555 1_555
H71 C36 1_555 1_555
H72 C36 1_555 1_555
C37 N2 1_555 1_555
H73 C37 1_555 1_555
C38 C37 1_555 1_555
H74 C38 1_555 1_555
H75 C38 1_555 1_555
C39 C38 1_555 1_555
H76 C39 1_555 1_555
H77 C39 1_555 1_555
C40 C39 1_555 1_555
H78 C40 1_555 1_555
H79 C40 1_555 1_555
C41 C40 1_555 1_555
H80 C41 1_555 1_555
H81 C41 1_555 1_555
C42 C37 1_555 1_555
H82 C42 1_555 1_555
H83 C42 1_555 1_555
C14A C14 1_555 1_555
C13A C14A 1_555 1_555
O1A C13A 1_555 1_555
Sn1A O1A 1_555 1_555
O3A C15 1_555 1_555
C16A C15A 1_555 1_555
C15A O3_2 1_555 1_555
O3_2 Sn1_2 1_555 1_555
O4A C15A 1_555 1_555
H36A C16 1_555 1_555
H37A C16 1_555 1_555
C1A Sn1A 1_555 1_555
H7A C1A 1_555 1_555
H8A C1A 1_555 1_555
C2A C1A 1_555 1_555
H9A C2A 1_555 1_555
H10A C2A 1_555 1_555
C3A C2A 1_555 1_555
H11A C3A 1_555 1_555
H12A C3A 1_555 1_555
C4A C3A 1_555 1_555
H13A C4A 1_555 1_555
H14A C4A 1_555 1_555
H15A C4A 1_555 1_555
C5A Sn1A 1_555 1_555
H16A C5A 1_555 1_555
H17A C5A 1_555 1_555
C6A C5A 1_555 1_555
H18A C6A 1_555 1_555
H19A C6A 1_555 1_555
C7A C6A 1_555 1_555
H20A C7A 1_555 1_555
H21A C7A 1_555 1_555
C8A C7A 1_555 1_555
H22A C8A 1_555 1_555
H23A C8A 1_555 1_555
H24A C8A 1_555 1_555
C9A Sn1A 1_555 1_555
H25A C9A 1_555 1_555
H26A C9A 1_555 1_555
C10A C9A 1_555 1_555
H27A C10A 1_555 1_555
H28A C10A 1_555 1_555
C11A C10A 1_555 1_555
H29A C11A 1_555 1_555
H30A C11A 1_555 1_555
C12A C11A 1_555 1_555
H31A C12A 1_555 1_555
H32A C12A 1_555 1_555
H33A C12A 1_555 1_555
O2A C13A 1_555 1_555
H34A C14A 1_555 1_555
H35A C14A 1_555 1_555
C18A C18 1_555 1_555
C17A C18A 1_555 1_555
O5A C17A 1_555 1_555
O6A C17A 1_555 1_555
H38A C18A 1_555 1_555
H39A C18A 1_555 1_555
C23 C24 1_555 1_555
C29 C30 1_555 1_555
C35 C36 1_555 1_555
C41 C42 1_555 1_555
Sn1A O3A 1_555 1_555

#END
