
#######################################################################
#
#                 Cambridge Crystallographic Data Centre
#                                CCDC 
#
#######################################################################
#
# If this CIF has been generated from an entry in the Cambridge 
# Structural Database, then it will include bibliographic, chemical, 
# crystal, experimental, refinement or atomic coordinate data resulting 
# from the CCDC's data processing and validation procedures.
#
#######################################################################

data_NUCCEV
_symmetry_cell_setting           tetragonal
_symmetry_space_group_name_H-M   'I 41/a'
_symmetry_Int_Tables_number      88
_space_group_name_Hall           '-I 4ad'
loop_
_symmetry_equiv_pos_site_id
_symmetry_equiv_pos_as_xyz
1 x,y,z
2 3/4-y,1/4+x,1/4+z
3 -x,1/2-y,z
4 1/4+y,1/4-x,1/4+z
5 1/2+x,1/2+y,1/2+z
6 1/4-y,3/4+x,3/4+z
7 1/2-x,-y,1/2+z
8 3/4+y,3/4-x,3/4+z
9 -x,-y,-z
10 1/4+y,3/4-x,3/4-z
11 x,1/2+y,-z
12 3/4-y,3/4+x,3/4-z
13 1/2-x,1/2-y,1/2-z
14 3/4+y,1/4-x,1/4-z
15 1/2+x,y,1/2-z
16 1/4-y,1/4+x,1/4-z
_cell_length_a                   23.5927(4)
_cell_length_b                   23.5927(4)
_cell_length_c                   11.7356(3)
_cell_angle_alpha                90
_cell_angle_beta                 90
_cell_angle_gamma                90
_cell_volume                     6532.22
loop_
_atom_site_label
_atom_site_type_symbol
_atom_site_fract_x
_atom_site_fract_y
_atom_site_fract_z
Cu1 Cu 0.5000 0.5000 0.5000
O1 O 0.44780(8) 0.54079(8) 0.40323(16)
N1 N 0.22301(10) 0.64478(10) -0.1339(2)
H1 H 0.1925 0.6441 -0.1740
O2 O 0.44309(9) 0.45846(9) 0.3128(2)
N2 N 0.26353(10) 0.68570(9) -0.14265(19)
C1 C 0.38055(13) 0.59547(12) 0.2462(2)
H2 H 0.3969 0.6164 0.3047
C2 C 0.28826(12) 0.62130(12) -0.0104(2)
C3 C 0.39024(12) 0.53725(13) 0.2394(2)
C4 C 0.34672(12) 0.62218(12) 0.1659(2)
H3 H 0.3405 0.6610 0.1712
C5 C 0.32190(11) 0.59147(12) 0.0773(2)
C6 C 0.30365(11) 0.67170(12) -0.0675(2)
C7 C 0.23619(12) 0.60576(12) -0.0558(2)
C8 C 0.33081(12) 0.53286(12) 0.0727(2)
H4 H 0.3138 0.5116 0.0154
C9 C 0.42944(11) 0.50933(12) 0.3238(2)
C10 C 0.19775(13) 0.55692(13) -0.0325(3)
H5 H 0.1591 0.5685 -0.0434
H6 H 0.2029 0.5444 0.0447
H7 H 0.2065 0.5264 -0.0837
C11 C 0.36469(12) 0.50619(12) 0.1530(2)
H8 H 0.3704 0.4672 0.1489
C12 C 0.35723(13) 0.70504(13) -0.0551(3)
H9 H 0.3659 0.7234 -0.1259
H10 H 0.3877 0.6800 -0.0347
H11 H 0.3525 0.7331 0.0035
O1H O 0.55220(8) 0.45921(8) 0.59677(16)
N1H N 0.77699(10) 0.35522(10) 1.1339(2)
H1H H 0.8075 0.3559 1.1740
O2H O 0.55691(9) 0.54154(9) 0.6872(2)
N2H N 0.73647(10) 0.31430(9) 1.14265(19)
C1H C 0.61945(13) 0.40453(12) 0.7538(2)
H2H H 0.6031 0.3836 0.6953
C2H C 0.71174(12) 0.37870(12) 1.0104(2)
C3H C 0.60976(12) 0.46275(13) 0.7606(2)
C4H C 0.65328(12) 0.37782(12) 0.8341(2)
H3H H 0.6595 0.3390 0.8288
C5H C 0.67810(11) 0.40853(12) 0.9227(2)
C6H C 0.69635(11) 0.32830(12) 1.0675(2)
C7H C 0.76381(12) 0.39424(12) 1.0558(2)
C8H C 0.66919(12) 0.46714(12) 0.9273(2)
H4H H 0.6862 0.4884 0.9846
C9H C 0.57056(11) 0.49067(12) 0.6762(2)
C10H C 0.80225(13) 0.44308(13) 1.0325(3)
H5H H 0.8409 0.4315 1.0434
H6H H 0.7971 0.4556 0.9553
H7H H 0.7935 0.4736 1.0837
C11H C 0.63531(12) 0.49381(12) 0.8470(2)
H8H H 0.6296 0.5328 0.8511
C12H C 0.64277(13) 0.29496(13) 1.0551(3)
H9H H 0.6341 0.2766 1.1259
H10H H 0.6123 0.3200 1.0347
H11H H 0.6475 0.2669 0.9965
Cu1A Cu 0.2500 0.7500 -0.2500
Cu1E Cu 0.7500 0.2500 1.2500
N2G N 0.43570(9) 0.48647(10) 0.60735(19)
N2O N 0.56430(9) 0.51353(10) 0.39265(19)
O3 O 0.38918(18) 0.6358(2) 0.5393(7)
H12 H 0.3679 0.6346 0.5945
C13 C 0.4357(3) 0.6687(6) 0.565(2)
H13 H 0.4432 0.6942 0.5028
H14 H 0.4681 0.6448 0.5768
H15 H 0.4283 0.6901 0.6328
O4 O 0.51212(18) 0.5887(2) -0.1027(4)
H16 H 0.5244 0.5768 -0.1635
C14 C 0.4618(2) 0.5632(3) -0.0791(6)
H17 H 0.4320 0.5821 -0.1196
H18 H 0.4546 0.5652 0.0013
H19 H 0.4634 0.5242 -0.1024
O5 O 0.4619(8) 0.7331(7) 0.337(2)
O6? O 0.4044(14) 0.6422(7) 0.5538(12)
H20? H 0.4294 0.6232 0.5239
C15? C 0.4246(6) 0.6652(5) 0.6574(17)
H21? H 0.4536 0.6926 0.6417
H22? H 0.4400 0.6353 0.7037
H23? H 0.3939 0.6831 0.6973
loop_
_geom_bond_atom_site_label_1
_geom_bond_atom_site_label_2
_geom_bond_site_symmetry_1
_geom_bond_site_symmetry_2
Cu1 O1 1_555 1_555
O1 C9 1_555 1_555
N1 H1 1_555 1_555
O2 C9 1_555 1_555
N2 N1 1_555 1_555
C1 H2 1_555 1_555
C2 C5 1_555 1_555
C3 C1 1_555 1_555
C4 C1 1_555 1_555
H3 C4 1_555 1_555
C5 C4 1_555 1_555
C6 N2 1_555 1_555
C7 N1 1_555 1_555
C8 C5 1_555 1_555
H4 C8 1_555 1_555
C9 C3 1_555 1_555
C10 C7 1_555 1_555
H5 C10 1_555 1_555
H6 C10 1_555 1_555
H7 C10 1_555 1_555
C11 C3 1_555 1_555
H8 C11 1_555 1_555
C12 C6 1_555 1_555
H9 C12 1_555 1_555
H10 C12 1_555 1_555
H11 C12 1_555 1_555
O3 H12 1_555 1_555
C13 O3 1_555 1_555
H13 C13 1_555 1_555
H14 C13 1_555 1_555
H15 C13 1_555 1_555
O4 H16 1_555 1_555
C14 O4 1_555 1_555
H17 C14 1_555 1_555
H18 C14 1_555 1_555
H19 C14 1_555 1_555
O1H Cu1 1_555 1_555
N1H H1H 1_555 1_555
O2H C9H 1_555 1_555
N2H N1H 1_555 1_555
C1H H2H 1_555 1_555
C2H C5H 1_555 1_555
C3H C1H 1_555 1_555
C4H C1H 1_555 1_555
H3H C4H 1_555 1_555
C5H C4H 1_555 1_555
C6H N2H 1_555 1_555
C7H N1H 1_555 1_555
C8H C5H 1_555 1_555
H4H C8H 1_555 1_555
C9H O1H 1_555 1_555
C10H C7H 1_555 1_555
H5H C10H 1_555 1_555
H6H C10H 1_555 1_555
H7H C10H 1_555 1_555
C11H C3H 1_555 1_555
H8H C11H 1_555 1_555
C12H C6H 1_555 1_555
H9H C12H 1_555 1_555
H10H C12H 1_555 1_555
H11H C12H 1_555 1_555
Cu1A N2 1_555 1_555
Cu1E N2H 1_555 1_555
N2G Cu1 1_555 1_555
N2O Cu1 1_555 1_555
C2 C6 1_555 1_555
C2 C7 1_555 1_555
C8 C11 1_555 1_555
C2H C6H 1_555 1_555
C2H C7H 1_555 1_555
C3H C9H 1_555 1_555
C8H C11H 1_555 1_555

#END
