
#######################################################################
#
#                 Cambridge Crystallographic Data Centre
#                                CCDC 
#
#######################################################################
#
# If this CIF has been generated from an entry in the Cambridge 
# Structural Database, then it will include bibliographic, chemical, 
# crystal, experimental, refinement or atomic coordinate data resulting 
# from the CCDC's data processing and validation procedures.
#
#######################################################################

data_NUCPEI
_symmetry_cell_setting           monoclinic
_symmetry_space_group_name_H-M   'P 21/n'
_symmetry_Int_Tables_number      14
_space_group_name_Hall           '-P 2yn'
loop_
_symmetry_equiv_pos_site_id
_symmetry_equiv_pos_as_xyz
1 x,y,z
2 1/2-x,1/2+y,1/2-z
3 -x,-y,-z
4 1/2+x,1/2-y,1/2+z
_cell_length_a                   14.123(4)
_cell_length_b                   33.380(9)
_cell_length_c                   16.833(3)
_cell_angle_alpha                90
_cell_angle_beta                 111.943(16)
_cell_angle_gamma                90
_cell_volume                     7360.63
loop_
_atom_site_label
_atom_site_type_symbol
_atom_site_fract_x
_atom_site_fract_y
_atom_site_fract_z
Zn1 Zn 0.69052(5) 0.941990(18) 0.67795(4)
Zn2 Zn 0.90514(5) 0.912624(18) 0.64925(4)
Zn3 Zn 0.83236(5) 0.635058(18) 0.59789(4)
Zn4 Zn 1.00422(5) 0.71182(2) 0.58505(5)
C1 C 0.1894(4) 0.72205(19) 0.6118(5)
C2 C 0.2971(4) 0.73364(17) 0.6284(4)
C3 C 0.3495(4) 0.71109(18) 0.5912(4)
H1 H 0.3179 0.6889 0.5585
C4 C 0.4485(4) 0.72030(19) 0.6009(4)
H2 H 0.4827 0.7048 0.5742
C5 C 0.4963(4) 0.75262(17) 0.6503(4)
C6 C 0.4436(4) 0.77458(16) 0.6910(4)
H3 H 0.4767 0.7956 0.7270
C7 C 0.3438(4) 0.76605(16) 0.6794(4)
C8 C 0.2918(4) 0.79280(16) 0.7218(4)
C9 C 0.2008(4) 0.81203(16) 0.6743(4)
H4 H 0.1700 0.8069 0.6159
C10 C 0.3358(4) 0.80053(16) 0.8081(4)
H5 H 0.3968 0.7880 0.8407
C11 C 0.2909(4) 0.82644(16) 0.8469(4)
C12 C 0.3358(4) 0.83251(18) 0.9423(4)
C13 C 0.2013(4) 0.84586(17) 0.7990(4)
H6 H 0.1717 0.8638 0.8252
C14 C 0.1555(4) 0.83851(16) 0.7118(4)
C15 C 0.0564(4) 0.85786(17) 0.6603(4)
C16 C 0.6003(4) 0.76487(16) 0.6585(4)
C17 C 0.6258(4) 0.80511(16) 0.6666(4)
H7 H 0.5785 0.8238 0.6696
C18 C 0.7206(4) 0.81800(17) 0.6703(4)
C19 C 0.7930(4) 0.79007(16) 0.6695(4)
H8 H 0.8578 0.7982 0.6742
C20 C 0.7669(4) 0.74964(16) 0.6617(4)
C21 C 0.6721(4) 0.73778(17) 0.6559(4)
H9 H 0.6557 0.7107 0.6501
C22 C 0.7453(4) 0.86153(17) 0.6764(4)
C23 C 0.8433(4) 0.71911(17) 0.6556(4)
C24 C 1.1125(4) 1.01794(16) 0.2503(4)
C25 C 1.0693(4) 0.97908(15) 0.2091(3)
C26 C 1.1282(4) 0.95369(16) 0.1803(3)
H10 H 1.1942 0.9611 0.1869
C27 C 1.0895(4) 0.91810(15) 0.1426(4)
C28 C 0.9909(4) 0.90700(16) 0.1339(4)
H11 H 0.9651 0.8824 0.1092
C29 C 0.9311(4) 0.93182(16) 0.1611(4)
C30 C 0.9727(4) 0.96804(16) 0.1999(4)
H12 H 0.9340 0.9849 0.2197
C31 C 1.1524(4) 0.88989(16) 0.1114(4)
C32 C 0.8257(4) 0.92066(16) 0.1521(4)
C33 C 0.7631(4) 0.89705(17) 0.0840(4)
H13 H 0.7864 0.8889 0.0416
C34 C 0.6681(5) 0.88584(19) 0.0794(4)
H14 H 0.6291 0.8687 0.0359
C35 C 0.6289(4) 0.89984(18) 0.1392(4)
C36 C 0.6871(4) 0.92460(16) 0.2056(4)
C37 C 0.7861(4) 0.93384(16) 0.2117(4)
H15 H 0.8271 0.9494 0.2574
C38 C 0.5280(5) 0.8825(2) 0.1358(4)
C39 C 0.6532(4) 0.94112(16) 0.2726(4)
C40 C 0.7094(4) 0.93469(16) 0.3583(4)
H16 H 0.7679 0.9189 0.3742
C41 C 0.6801(4) 0.95131(16) 0.4211(3)
C42 C 0.5961(4) 0.97640(16) 0.3970(4)
H17 H 0.5775 0.9886 0.4387
C43 C 0.5395(4) 0.98349(17) 0.3115(4)
C44 C 0.5686(4) 0.96573(17) 0.2507(4)
H18 H 0.5303 0.9704 0.1931
C45 C 0.4503(5) 1.0109(2) 0.2848(4)
C46 C 0.7389(5) 0.94231(17) 0.5134(4)
O1 O 0.1338(3) 0.70836(15) 0.5389(3)
O2 O 0.1522(3) 0.72641(15) 0.6680(3)
O3 O -0.0025(3) 0.84232(14) 0.5958(3)
O4 O 0.0394(3) 0.89096(12) 0.6902(3)
O5 O 0.2858(3) 0.85259(15) 0.9755(3)
O6 O 0.4210(4) 0.81733(16) 0.9819(3)
O7 O 0.6745(3) 0.88515(13) 0.6699(4)
O8 O 0.8336(3) 0.87144(12) 0.6887(3)
O9 O 0.9213(3) 0.73197(13) 0.6489(4)
O10 O 0.8204(3) 0.68327(12) 0.6586(3)
O11 O 1.0645(3) 1.03688(12) 0.2872(3)
O12 O 1.1950(3) 1.02894(14) 0.2458(3)
O13 O 1.2411(3) 0.90242(11) 0.1217(3)
O14 O 1.1162(3) 0.85787(13) 0.0807(3)
O15 O 0.5291(5) 0.84631(18) 0.1557(4)
O16 O 0.4509(4) 0.90205(19) 0.1114(4)
O17 O 0.3949(5) 1.0134(3) 0.2096(4)
O18 O 0.4344(3) 1.02835(14) 0.3447(3)
O19 O 0.7041(4) 0.95534(16) 0.5659(3)
O20 O 0.8195(3) 0.92345(15) 0.5314(3)
O21 O 0.9705(4) 0.76754(14) 0.5200(3)
H19 H 0.9830 0.7657 0.4678
H20 H 1.0131 0.7880 0.5558
O22 O 0.6888(13) 0.9176(4) 0.8069(9)
H21 H 0.6275 0.9266 0.8134
H22 H 0.6897 0.8889 0.8059
Zn1B Zn 0.30948(5) 1.058010(18) 0.32205(4)
Zn1B_2 Zn 1.30948(5) 1.058010(18) 0.32205(4)
Zn2_2 Zn -0.09486(5) 0.912624(18) 0.64925(4)
Zn2B Zn 1.09486(5) 1.087376(18) 0.35075(4)
Zn3C Zn 0.33236(5) 0.864942(18) 0.09789(4)
Zn3C_2 Zn 0.33236(5) 0.864942(18) 1.09789(4)
Zn3C_3 Zn 1.33236(5) 0.864942(18) 0.09789(4)
Zn4_2 Zn 0.00422(5) 0.71182(2) 0.58505(5)
Zn4C Zn 0.50422(5) 0.78818(2) 0.08505(5)
Zn4C_2 Zn 0.50422(5) 0.78818(2) 1.08505(5)
O1_2 O 1.1338(3) 0.70836(15) 0.5389(3)
O2_2 O 1.1522(3) 0.72641(15) 0.6680(3)
O4_2 O 1.0394(3) 0.89096(12) 0.6902(3)
O5C O 0.7858(3) 0.64741(15) 0.4755(3)
O6C O 0.9210(4) 0.68267(16) 0.4819(3)
O11B O 0.9355(3) 0.96312(12) 0.7128(3)
O12B O 0.8050(3) 0.97106(14) 0.7542(3)
O13C O 0.7411(3) 0.59758(11) 0.6217(3)
O15C O 1.0291(5) 0.65369(18) 0.6557(4)
O16C O 0.9509(4) 0.59795(19) 0.6114(4)
O18B O 0.5656(3) 0.97165(14) 0.6553(3)
C47 C 1.0131(13) 0.8172(5) 0.8881(11)
H23 H 0.9891 0.7914 0.8975
H24 H 1.0801 0.8218 0.9302
H25 H 1.0156 0.8180 0.8319
C48 C 0.9696(14) 0.8909(5) 0.8924(10)
H26 H 0.9229 0.9066 0.9087
H27 H 0.9643 0.8984 0.8358
H28 H 1.0380 0.8955 0.9321
C49 C 0.8557(12) 0.8340(5) 0.8970(10)
H29 H 0.8432 0.8066 0.8962
N1 N 0.9448(11) 0.8486(4) 0.8933(7)
O23 O 0.7921(10) 0.8589(4) 0.9014(8)
C50 C 0.9769(13) 0.6061(5) 0.9882(9)
H30 H 1.0445 0.5950 1.0104
H31 H 0.9335 0.5910 1.0094
H32 H 0.9791 0.6335 1.0063
C51 C 0.8530(12) 0.5808(5) 0.8422(12)
H33 H 0.8599 0.5769 0.7881
H34 H 0.7902 0.5946 0.8333
H35 H 0.8524 0.5552 0.8682
C52 C 0.9808(12) 0.6247(5) 0.8538(11)
H36 H 0.9569 0.6219 0.7945
N2 N 0.9380(7) 0.6043(3) 0.8980(6)
O24 O 1.0552(11) 0.6483(4) 0.8917(9)
C53 C 0.6029(18) 0.6560(7) 0.7974(16)
H37 H 0.5533 0.6439 0.8163
H38 H 0.6550 0.6368 0.8012
H39 H 0.5702 0.6647 0.7391
C54 C 0.7653(14) 0.6961(8) 0.8822(17)
H40 H 0.7796 0.7225 0.8672
H41 H 0.7906 0.6766 0.8530
H42 H 0.7980 0.6924 0.9429
C55 C 0.6031(12) 0.7146(7) 0.8971(15)
H43 H 0.6408 0.7328 0.9386
N3 N 0.6509(15) 0.6919(6) 0.8539(11)
O25 O 0.5070(11) 0.7105(4) 0.8799(8)
C56 C 0.504(2) 0.5593(9) 0.973(2)
H44 H 0.5141 0.5531 1.0311
H45 H 0.4798 0.5359 0.9379
H46 H 0.4538 0.5803 0.9524
C57 C 0.655(2) 0.5351(8) 0.9723(18)
H47 H 0.7261 0.5413 0.9902
H48 H 0.6317 0.5226 0.9170
H49 H 0.6442 0.5173 1.0129
C58 C 0.6482(18) 0.6043(9) 0.987(2)
H50 H 0.6043 0.6257 0.9819
N4 N 0.5974(19) 0.5717(7) 0.9671(15)
O26 O 0.7415(16) 0.6170(6) 1.0118(13)
C59 C 0.9268(19) 0.6017(8) 0.2081(18)
H51 H 0.9834 0.6162 0.2479
H52 H 0.8763 0.6203 0.1736
H53 H 0.9501 0.5855 0.1719
C60 C 0.7821(16) 0.5599(7) 0.2125(14)
H54 H 0.7910 0.5314 0.2183
H55 H 0.7605 0.5671 0.1532
H56 H 0.7312 0.5682 0.2342
C61 C 0.9267(17) 0.5755(10) 0.3466(13)
H57 H 0.9946 0.5830 0.3736
N5 N 0.8819(16) 0.5820(6) 0.2575(12)
O27 O 0.882(2) 0.5598(10) 0.3958(14)
O28 O 0.6013(9) 0.8305(3) 0.8748(6)
N6 N 0.2891(18) 0.9784(7) 1.0208(15)
H58 H 0.2603 0.9683 0.9675
H59 H 0.3103 0.9576 1.0573
C62 C 0.3832(19) 1.0038(9) 1.0262(17)
H60 H 0.3653 1.0310 1.0321
H61 H 0.3933 1.0008 0.9731
H62 H 0.4451 0.9970 1.0730
C63 C 0.211(2) 1.0009(10) 1.0410(19)
H63 H 0.2138 0.9992 1.0988
H64 H 0.1490 0.9886 1.0031
H65 H 0.2119 1.0285 1.0254
N7 N 0.1761(11) 0.6936(4) 0.8368(9)
H66 H 0.1452 0.6989 0.7805
H67 H 0.1362 0.6762 0.8508
C64 C 0.2784(14) 0.6728(6) 0.8510(14)
H68 H 0.3227 0.6914 0.8386
H69 H 0.2685 0.6497 0.8146
H70 H 0.3087 0.6646 0.9099
C65 C 0.1810(19) 0.7323(6) 0.8859(16)
H71 H 0.1981 0.7269 0.9456
H72 H 0.1136 0.7435 0.8620
H73 H 0.2291 0.7510 0.8791
loop_
_geom_bond_atom_site_label_1
_geom_bond_atom_site_label_2
_geom_bond_site_symmetry_1
_geom_bond_site_symmetry_2
Zn1 O7 1_555 1_555
Zn2 O8 1_555 1_555
Zn3 O10 1_555 1_555
Zn4 O9 1_555 1_555
C1 C2 1_555 1_555
C2 C3 1_555 1_555
C3 H1 1_555 1_555
C4 C3 1_555 1_555
H2 C4 1_555 1_555
C5 C4 1_555 1_555
C6 C5 1_555 1_555
H3 C6 1_555 1_555
C7 C2 1_555 1_555
C8 C7 1_555 1_555
C9 C8 1_555 1_555
H4 C9 1_555 1_555
C10 C8 1_555 1_555
H5 C10 1_555 1_555
C11 C10 1_555 1_555
C12 C11 1_555 1_555
C13 C11 1_555 1_555
H6 C13 1_555 1_555
C14 C9 1_555 1_555
C15 C14 1_555 1_555
C16 C5 1_555 1_555
C17 C16 1_555 1_555
H7 C17 1_555 1_555
C18 C17 1_555 1_555
C19 C18 1_555 1_555
H8 C19 1_555 1_555
C20 C19 1_555 1_555
C21 C16 1_555 1_555
H9 C21 1_555 1_555
C22 C18 1_555 1_555
C23 C20 1_555 1_555
C24 C25 1_555 1_555
C25 C26 1_555 1_555
C26 H10 1_555 1_555
C27 C26 1_555 1_555
C28 C27 1_555 1_555
H11 C28 1_555 1_555
C29 C28 1_555 1_555
C30 C25 1_555 1_555
H12 C30 1_555 1_555
C31 C27 1_555 1_555
C32 C29 1_555 1_555
C33 C32 1_555 1_555
H13 C33 1_555 1_555
C34 C33 1_555 1_555
H14 C34 1_555 1_555
C35 C34 1_555 1_555
C36 C35 1_555 1_555
C37 C32 1_555 1_555
H15 C37 1_555 1_555
C38 C35 1_555 1_555
C39 C36 1_555 1_555
C40 C39 1_555 1_555
H16 C40 1_555 1_555
C41 C40 1_555 1_555
C42 C41 1_555 1_555
H17 C42 1_555 1_555
C43 C42 1_555 1_555
C44 C39 1_555 1_555
H18 C44 1_555 1_555
C45 C43 1_555 1_555
C46 C41 1_555 1_555
O1 C1 1_555 1_555
O2 C1 1_555 1_555
O3 C15 1_555 1_555
O4 C15 1_555 1_555
O5 C12 1_555 1_555
O6 C12 1_555 1_555
O7 C22 1_555 1_555
O8 C22 1_555 1_555
O9 C23 1_555 1_555
O10 C23 1_555 1_555
O11 C24 1_555 1_555
O12 C24 1_555 1_555
O13 C31 1_555 1_555
O14 C31 1_555 1_555
O15 C38 1_555 1_555
O16 C38 1_555 1_555
O17 C45 1_555 1_555
O18 C45 1_555 1_555
O19 Zn1 1_555 1_555
O20 Zn2 1_555 1_555
O21 Zn4 1_555 1_555
H19 O21 1_555 1_555
H20 O21 1_555 1_555
O22 Zn1 1_555 1_555
H21 O22 1_555 1_555
H22 O22 1_555 1_555
C47 H23 1_555 1_555
H24 C47 1_555 1_555
H25 C47 1_555 1_555
C48 H26 1_555 1_555
H27 C48 1_555 1_555
H28 C48 1_555 1_555
C49 H29 1_555 1_555
N1 C47 1_555 1_555
O23 C49 1_555 1_555
C50 H30 1_555 1_555
H31 C50 1_555 1_555
H32 C50 1_555 1_555
C51 H33 1_555 1_555
H34 C51 1_555 1_555
H35 C51 1_555 1_555
C52 H36 1_555 1_555
N2 C50 1_555 1_555
O24 C52 1_555 1_555
C53 H37 1_555 1_555
H38 C53 1_555 1_555
H39 C53 1_555 1_555
C54 H40 1_555 1_555
H41 C54 1_555 1_555
H42 C54 1_555 1_555
C55 H43 1_555 1_555
N3 C53 1_555 1_555
O25 C55 1_555 1_555
C56 H44 1_555 1_555
H45 C56 1_555 1_555
H46 C56 1_555 1_555
C57 H47 1_555 1_555
H48 C57 1_555 1_555
H49 C57 1_555 1_555
C58 H50 1_555 1_555
N4 C56 1_555 1_555
O26 C58 1_555 1_555
C59 H51 1_555 1_555
H52 C59 1_555 1_555
H53 C59 1_555 1_555
C60 H54 1_555 1_555
H55 C60 1_555 1_555
H56 C60 1_555 1_555
C61 H57 1_555 1_555
N5 C59 1_555 1_555
O27 C61 1_555 1_555
N6 H58 1_555 1_555
H59 N6 1_555 1_555
C62 N6 1_555 1_555
H60 C62 1_555 1_555
H61 C62 1_555 1_555
H62 C62 1_555 1_555
C63 N6 1_555 1_555
H63 C63 1_555 1_555
H64 C63 1_555 1_555
H65 C63 1_555 1_555
N7 H66 1_555 1_555
H67 N7 1_555 1_555
C64 N7 1_555 1_555
H68 C64 1_555 1_555
H69 C64 1_555 1_555
H70 C64 1_555 1_555
C65 N7 1_555 1_555
H71 C65 1_555 1_555
H72 C65 1_555 1_555
H73 C65 1_555 1_555
Zn1B O18 1_555 1_555
Zn1B_2 O12 1_555 1_555
Zn2_2 O4 1_555 1_555
Zn2B O11 1_555 1_555
Zn3C O16 1_555 1_555
Zn3C_2 O5 1_555 1_555
Zn3C_3 O13 1_555 1_555
Zn4_2 O1 1_555 1_555
Zn4C O15 1_555 1_555
Zn4C_2 O6 1_555 1_555
O1_2 Zn4 1_555 1_555
O2_2 Zn4 1_555 1_555
O4_2 Zn2 1_555 1_555
O5C Zn3 1_555 1_555
O6C Zn4 1_555 1_555
O11B Zn2 1_555 1_555
O12B Zn1 1_555 1_555
O13C Zn3 1_555 1_555
O15C Zn4 1_555 1_555
O16C Zn3 1_555 1_555
O18B Zn1 1_555 1_555
C6 C7 1_555 1_555
C13 C14 1_555 1_555
C20 C21 1_555 1_555
C29 C30 1_555 1_555
C36 C37 1_555 1_555
C43 C44 1_555 1_555
C46 O19 1_555 1_555
C46 O20 1_555 1_555
O2 Zn4_2 1_555 1_555
C48 N1 1_555 1_555
C49 N1 1_555 1_555
C51 N2 1_555 1_555
C52 N2 1_555 1_555
C54 N3 1_555 1_555
C55 N3 1_555 1_555
C57 N4 1_555 1_555
C58 N4 1_555 1_555
C60 N5 1_555 1_555
C61 N5 1_555 1_555

#END
