
#######################################################################
#
#                 Cambridge Crystallographic Data Centre
#                                CCDC 
#
#######################################################################
#
# If this CIF has been generated from an entry in the Cambridge 
# Structural Database, then it will include bibliographic, chemical, 
# crystal, experimental, refinement or atomic coordinate data resulting 
# from the CCDC's data processing and validation procedures.
#
#######################################################################

data_NUDLOP
_symmetry_cell_setting           monoclinic
_symmetry_space_group_name_H-M   'C 2/c'
_symmetry_Int_Tables_number      15
_space_group_name_Hall           '-C 2yn'
loop_
_symmetry_equiv_pos_site_id
_symmetry_equiv_pos_as_xyz
1 x,y,z
2 -x,y,1/2-z
3 1/2+x,1/2+y,z
4 1/2-x,1/2+y,1/2-z
5 -x,-y,-z
6 x,-y,1/2+z
7 1/2-x,1/2-y,-z
8 1/2+x,1/2-y,1/2+z
_cell_length_a                   18.180(10)
_cell_length_b                   12.464(8)
_cell_length_c                   11.005(6)
_cell_angle_alpha                90
_cell_angle_beta                 102.778(16)
_cell_angle_gamma                90
_cell_volume                     2431.93
loop_
_atom_site_label
_atom_site_type_symbol
_atom_site_fract_x
_atom_site_fract_y
_atom_site_fract_z
Mg1 Mg 0.08423(5) 0.03809(8) 0.03950(8)
Mg2 Mg 0.0000 0.10018(11) 0.2500
N1 N 0.18539(14) -0.0652(2) 0.1120(2)
O1 O 0.07554(10) -0.01594(16) 0.21881(16)
O2 O 0.13157(11) -0.09032(16) 0.39798(18)
O3 O 0.35669(11) -0.33011(18) 0.37286(19)
O4 O 0.41744(11) -0.28694(17) 0.22527(18)
O5 O -0.02131(13) 0.0877(2) 0.05428(19)
H1 H -0.0365(16) 0.135(2) 0.029(3)
C1 C 0.18930(16) -0.1064(2) 0.2263(2)
C2 C 0.24541(17) -0.1738(3) 0.2837(3)
H2 H 0.2427(14) -0.201(2) 0.360(3)
C3 C 0.30252(16) -0.2014(2) 0.2242(2)
C4 C 0.3002(2) -0.1551(3) 0.1097(3)
H3 H 0.3364(17) -0.171(2) 0.073(3)
C5 C 0.24118(19) -0.0905(3) 0.0562(3)
H4 H 0.2368(18) -0.056(3) -0.028(3)
C6 C 0.12679(17) -0.0690(2) 0.2866(3)
C7 C 0.36412(17) -0.2789(3) 0.2793(3)
Mg1A Mg -0.08423(5) 0.03809(8) 0.46050(8)
N1A N -0.18539(14) -0.0652(2) 0.3880(2)
O1A O -0.07554(10) -0.01594(16) 0.28119(16)
O2A O -0.13157(11) -0.09032(16) 0.10202(18)
O3A O -0.35669(11) -0.33011(18) 0.12714(19)
O4A O -0.41744(11) -0.28694(17) 0.27473(18)
O5A O 0.02131(13) 0.0877(2) 0.44572(19)
H1A H 0.0365(16) 0.135(2) 0.471(3)
C1A C -0.18930(16) -0.1064(2) 0.2737(2)
C2A C -0.24541(17) -0.1738(3) 0.2163(3)
H2A H -0.2427(14) -0.201(2) 0.140(3)
C3A C -0.30252(16) -0.2014(2) 0.2758(2)
C4A C -0.3002(2) -0.1551(3) 0.3903(3)
H3A H -0.3364(17) -0.171(2) 0.427(3)
C5A C -0.24118(19) -0.0905(3) 0.4438(3)
H4A H -0.2368(18) -0.056(3) 0.528(3)
C6A C -0.12679(17) -0.0690(2) 0.2134(3)
C7A C -0.36412(17) -0.2789(3) 0.2207(3)
Mg1B Mg -0.41577(5) -0.46191(8) 0.03950(8)
Mg1C Mg 0.41577(5) -0.46191(8) 0.46050(8)
Mg1D Mg -0.08423(5) -0.03809(8) -0.03950(8)
Mg1E Mg 0.08423(5) -0.03809(8) 0.53950(8)
Mg2B Mg -0.5000 -0.39982(11) 0.2500
Mg2B_2 Mg 0.5000 -0.39982(11) 0.2500
O2D O -0.13157(11) 0.09032(16) 0.60202(18)
O2E O 0.13157(11) 0.09032(16) -0.10202(18)
O3B O -0.14331(11) 0.16989(18) 0.37286(19)
O3C O 0.14331(11) 0.16989(18) 0.12714(19)
O4B O -0.08256(11) 0.21306(17) 0.22527(18)
O4C O 0.08256(11) 0.21306(17) 0.27473(18)
O5D O 0.02131(13) -0.0877(2) -0.05428(19)
O5E O -0.02131(13) -0.0877(2) 0.55428(19)
loop_
_geom_bond_atom_site_label_1
_geom_bond_atom_site_label_2
_geom_bond_site_symmetry_1
_geom_bond_site_symmetry_2
Mg1 N1 1_555 1_555
Mg2 O1 1_555 1_555
N1 C1 1_555 1_555
O1 Mg1 1_555 1_555
O2 C6 1_555 1_555
O3 C7 1_555 1_555
O4 C7 1_555 1_555
O5 Mg1 1_555 1_555
H1 O5 1_555 1_555
C1 C2 1_555 1_555
C2 H2 1_555 1_555
C3 C2 1_555 1_555
C4 C3 1_555 1_555
H3 C4 1_555 1_555
C5 N1 1_555 1_555
H4 C5 1_555 1_555
C6 O1 1_555 1_555
C7 C3 1_555 1_555
Mg1A N1A 1_555 1_555
N1A C1A 1_555 1_555
O1A Mg2 1_555 1_555
O2A C6A 1_555 1_555
O3A C7A 1_555 1_555
O4A C7A 1_555 1_555
O5A Mg2 1_555 1_555
H1A O5A 1_555 1_555
C1A C2A 1_555 1_555
C2A H2A 1_555 1_555
C3A C2A 1_555 1_555
C4A C3A 1_555 1_555
H3A C4A 1_555 1_555
C5A N1A 1_555 1_555
H4A C5A 1_555 1_555
C6A O1A 1_555 1_555
C7A C3A 1_555 1_555
Mg1B O3A 1_555 1_555
Mg1C O3 1_555 1_555
Mg1D O5 1_555 1_555
Mg1E O2 1_555 1_555
Mg2B O4A 1_555 1_555
Mg2B_2 O4 1_555 1_555
O2D Mg1A 1_555 1_555
O2E Mg1 1_555 1_555
O3B Mg1A 1_555 1_555
O3C Mg1 1_555 1_555
O4B Mg2 1_555 1_555
O4C Mg2 1_555 1_555
O5D Mg1 1_555 1_555
O5E Mg1A 1_555 1_555
Mg2 O5 1_555 1_555
C1 C6 1_555 1_555
C4 C5 1_555 1_555
Mg1A O1A 1_555 1_555
Mg1A O5A 1_555 1_555
O2A Mg1D 1_555 1_555
O5A Mg1E 1_555 1_555
C1A C6A 1_555 1_555
C4A C5A 1_555 1_555
Mg1D O5D 1_555 1_555
Mg1E O5E 1_555 1_555

#END
