
#######################################################################
#
#                 Cambridge Crystallographic Data Centre
#                                CCDC 
#
#######################################################################
#
# If this CIF has been generated from an entry in the Cambridge 
# Structural Database, then it will include bibliographic, chemical, 
# crystal, experimental, refinement or atomic coordinate data resulting 
# from the CCDC's data processing and validation procedures.
#
#######################################################################

data_NUDMUW
_symmetry_cell_setting           monoclinic
_symmetry_space_group_name_H-M   'C 2/c'
_symmetry_Int_Tables_number      15
_space_group_name_Hall           '-C 2yn'
loop_
_symmetry_equiv_pos_site_id
_symmetry_equiv_pos_as_xyz
1 x,y,z
2 -x,y,1/2-z
3 1/2+x,1/2+y,z
4 1/2-x,1/2+y,1/2-z
5 -x,-y,-z
6 x,-y,1/2+z
7 1/2-x,1/2-y,-z
8 1/2+x,1/2-y,1/2+z
_cell_length_a                   18.1667(9)
_cell_length_b                   12.5175(7)
_cell_length_c                   11.0210(6)
_cell_angle_alpha                90
_cell_angle_beta                 102.672(3)
_cell_angle_gamma                90
_cell_volume                     2445.15
loop_
_atom_site_label
_atom_site_type_symbol
_atom_site_fract_x
_atom_site_fract_y
_atom_site_fract_z
Mg1 Mg 0.0000 0.09915(9) 0.2500
Mg2 Mg 0.08427(4) 0.03632(6) 0.04019(7)
N1 N 0.18411(11) -0.06813(16) 0.11037(18)
O1 O 0.07527(9) -0.01632(13) 0.21889(14)
O2 O 0.13210(9) -0.09005(13) 0.39936(14)
O3 O 0.35482(9) -0.33397(14) 0.37018(15)
O4 O 0.41692(9) -0.28861(13) 0.22404(15)
O5 O -0.02081(9) 0.08840(14) 0.05421(15)
H1 H -0.0379(18) 0.149(3) 0.028(3)
C1 C 0.18875(13) -0.10799(19) 0.2261(2)
C2 C 0.24513(13) -0.1755(2) 0.2838(2)
H2 H 0.2461(15) -0.198(2) 0.355(3)
C3 C 0.30073(13) -0.20453(19) 0.2218(2)
C4 C 0.29761(14) -0.1618(2) 0.1046(2)
H3 H 0.3335(16) -0.179(2) 0.061(3)
C5 C 0.23857(14) -0.0952(2) 0.0524(2)
H4 H 0.2322(15) -0.068(2) -0.029(3)
C6 C 0.12693(13) -0.06951(19) 0.2876(2)
C7 C 0.36331(13) -0.28235(19) 0.2775(2)
Mg2A Mg -0.08427(4) 0.03632(6) 0.45981(7)
N1A N -0.18411(11) -0.06813(16) 0.38963(18)
O1A O -0.07527(9) -0.01632(13) 0.28111(14)
O2A O -0.13210(9) -0.09005(13) 0.10064(14)
O3A O -0.35482(9) -0.33397(14) 0.12982(15)
O4A O -0.41692(9) -0.28861(13) 0.27596(15)
O5A O 0.02081(9) 0.08840(14) 0.44579(15)
H1A H 0.0379(18) 0.149(3) 0.472(3)
C1A C -0.18875(13) -0.10799(19) 0.2739(2)
C2A C -0.24513(13) -0.1755(2) 0.2162(2)
H2A H -0.2461(15) -0.198(2) 0.145(3)
C3A C -0.30073(13) -0.20453(19) 0.2782(2)
C4A C -0.29761(14) -0.1618(2) 0.3954(2)
H3A H -0.3335(16) -0.179(2) 0.439(3)
C5A C -0.23857(14) -0.0952(2) 0.4476(2)
H4A H -0.2322(15) -0.068(2) 0.529(3)
C6A C -0.12693(13) -0.06951(19) 0.2124(2)
C7A C -0.36331(13) -0.28235(19) 0.2225(2)
Mg1B Mg -0.5000 -0.40085(9) 0.2500
Mg1B_2 Mg 0.5000 -0.40085(9) 0.2500
Mg2B Mg -0.41573(4) -0.46368(6) 0.04019(7)
Mg2C Mg 0.41573(4) -0.46368(6) 0.45981(7)
Mg2D Mg -0.08427(4) -0.03632(6) -0.04019(7)
Mg2E Mg 0.08427(4) -0.03632(6) 0.54019(7)
O2D O -0.13210(9) 0.09005(13) 0.60064(14)
O2E O 0.13210(9) 0.09005(13) -0.10064(14)
O3B O -0.14518(9) 0.16603(14) 0.37018(15)
O3C O 0.14518(9) 0.16603(14) 0.12982(15)
O4B O -0.08308(9) 0.21139(13) 0.22404(15)
O4C O 0.08308(9) 0.21139(13) 0.27596(15)
O5D O 0.02081(9) -0.08840(14) -0.05421(15)
O5E O -0.02081(9) -0.08840(14) 0.55421(15)
C8 C 0.0488(4) 0.4480(5) -0.0660(6)
C9 C 0.0180(4) 0.3955(5) 0.0236(6)
H5 H 0.0303 0.3225 0.0402
C10 C -0.0279(4) 0.4432(5) 0.0870(7)
H6 H -0.0467 0.4035 0.1471
C11 C 0.1000(5) 0.3920(7) -0.1370(9)
H7 H 0.1090 0.3186 -0.1066
H8 H 0.1482 0.4302 -0.1246
H9 H 0.0760 0.3910 -0.2258
C8D C -0.0488(4) 0.5520(5) 0.0660(6)
C9D C -0.0180(4) 0.6045(5) -0.0236(6)
H5D H -0.0303 0.6775 -0.0402
C10D C 0.0279(4) 0.5568(5) -0.0870(7)
H6D H 0.0467 0.5965 -0.1471
C11D C -0.1000(5) 0.6080(7) 0.1370(9)
H7D H -0.1090 0.6814 0.1066
H8D H -0.1482 0.5698 0.1246
H9D H -0.0760 0.6090 0.2258
loop_
_geom_bond_atom_site_label_1
_geom_bond_atom_site_label_2
_geom_bond_site_symmetry_1
_geom_bond_site_symmetry_2
Mg1 O1 1_555 1_555
Mg2 N1 1_555 1_555
N1 C1 1_555 1_555
O1 Mg2 1_555 1_555
O2 C6 1_555 1_555
O3 C7 1_555 1_555
O4 C7 1_555 1_555
O5 Mg1 1_555 1_555
H1 O5 1_555 1_555
C1 C2 1_555 1_555
C2 H2 1_555 1_555
C3 C2 1_555 1_555
C4 C3 1_555 1_555
H3 C4 1_555 1_555
C5 N1 1_555 1_555
H4 C5 1_555 1_555
C6 O1 1_555 1_555
C7 C3 1_555 1_555
C8 C9 1_555 1_555
C9 H5 1_555 1_555
C10 C9 1_555 1_555
H6 C10 1_555 1_555
C11 C8 1_555 1_555
H7 C11 1_555 1_555
H8 C11 1_555 1_555
H9 C11 1_555 1_555
Mg2A N1A 1_555 1_555
N1A C1A 1_555 1_555
O1A Mg1 1_555 1_555
O2A C6A 1_555 1_555
O3A C7A 1_555 1_555
O4A C7A 1_555 1_555
O5A Mg1 1_555 1_555
H1A O5A 1_555 1_555
C1A C2A 1_555 1_555
C2A H2A 1_555 1_555
C3A C2A 1_555 1_555
C4A C3A 1_555 1_555
H3A C4A 1_555 1_555
C5A N1A 1_555 1_555
H4A C5A 1_555 1_555
C6A O1A 1_555 1_555
C7A C3A 1_555 1_555
Mg1B O4A 1_555 1_555
Mg1B_2 O4 1_555 1_555
Mg2B O3A 1_555 1_555
Mg2C O3 1_555 1_555
Mg2D O5 1_555 1_555
Mg2E O2 1_555 1_555
O2D Mg2A 1_555 1_555
O2E Mg2 1_555 1_555
O3B Mg2A 1_555 1_555
O3C Mg2 1_555 1_555
O4B Mg1 1_555 1_555
O4C Mg1 1_555 1_555
O5D Mg2 1_555 1_555
O5E Mg2A 1_555 1_555
C8D C10 1_555 1_555
C9D C8D 1_555 1_555
H5D C9D 1_555 1_555
C10D C8 1_555 1_555
H6D C10D 1_555 1_555
C11D C8D 1_555 1_555
H7D C11D 1_555 1_555
H8D C11D 1_555 1_555
H9D C11D 1_555 1_555
Mg2 O5 1_555 1_555
C1 C6 1_555 1_555
C4 C5 1_555 1_555
Mg2A O1A 1_555 1_555
Mg2A O5A 1_555 1_555
O2A Mg2D 1_555 1_555
O5A Mg2E 1_555 1_555
C1A C6A 1_555 1_555
C4A C5A 1_555 1_555
Mg2D O5D 1_555 1_555
Mg2E O5E 1_555 1_555
C9D C10D 1_555 1_555

#END
