
#######################################################################
#
#                 Cambridge Crystallographic Data Centre
#                                CCDC 
#
#######################################################################
#
# If this CIF has been generated from an entry in the Cambridge 
# Structural Database, then it will include bibliographic, chemical, 
# crystal, experimental, refinement or atomic coordinate data resulting 
# from the CCDC's data processing and validation procedures.
#
#######################################################################

data_NUGROX
_symmetry_cell_setting           cubic
_symmetry_space_group_name_H-M   'I -4 3 d'
_symmetry_Int_Tables_number      220
_space_group_name_Hall           'I -4bd 2c 3'
loop_
_symmetry_equiv_pos_site_id
_symmetry_equiv_pos_as_xyz
1 x,y,z
2 1/2-x,-y,1/2+z
3 -x,1/2+y,1/2-z
4 1/2+x,1/2-y,-z
5 z,x,y
6 1/2+z,1/2-x,-y
7 1/2-z,-x,1/2+y
8 -z,1/2+x,1/2-y
9 y,z,x
10 -y,1/2+z,1/2-x
11 1/2+y,1/2-z,-x
12 1/2-y,-z,1/2+x
13 1/4+y,1/4+x,1/4+z
14 1/4-y,3/4-x,3/4+z
15 3/4+y,1/4-x,3/4-z
16 3/4-y,3/4+x,1/4-z
17 1/4+x,1/4+z,1/4+y
18 3/4-x,3/4+z,1/4-y
19 1/4-x,3/4-z,3/4+y
20 3/4+x,1/4-z,3/4-y
21 1/4+z,1/4+y,1/4+x
22 3/4+z,1/4-y,3/4-x
23 3/4-z,3/4+y,1/4-x
24 1/4-z,3/4-y,3/4+x
25 1/2+x,1/2+y,1/2+z
26 -x,1/2-y,z
27 1/2-x,y,-z
28 x,-y,1/2-z
29 1/2+z,1/2+x,1/2+y
30 z,-x,1/2-y
31 -z,1/2-x,y
32 1/2-z,x,-y
33 1/2+y,1/2+z,1/2+x
34 1/2-y,z,-x
35 y,-z,1/2-x
36 -y,1/2-z,x
37 3/4+y,3/4+x,3/4+z
38 3/4-y,1/4-x,1/4+z
39 1/4+y,3/4-x,1/4-z
40 1/4-y,1/4+x,3/4-z
41 3/4+x,3/4+z,3/4+y
42 1/4-x,1/4+z,3/4-y
43 3/4-x,1/4-z,1/4+y
44 1/4+x,3/4-z,1/4-y
45 3/4+z,3/4+y,3/4+x
46 1/4+z,3/4-y,1/4-x
47 1/4-z,1/4+y,3/4-x
48 3/4-z,1/4-y,1/4+x
_cell_length_a                   30.3934(18)
_cell_length_b                   30.3934(18)
_cell_length_c                   30.3934(18)
_cell_angle_alpha                90
_cell_angle_beta                 90
_cell_angle_gamma                90
_cell_volume                     28076.2
loop_
_atom_site_label
_atom_site_type_symbol
_atom_site_fract_x
_atom_site_fract_y
_atom_site_fract_z
O2 O 0.2580(4) 0.8791(4) 0.9574(4)
H11 H 0.2689 0.8573 0.9437
H12 H 0.2339 0.8918 0.9509
O3 O 0.2695(4) 0.7717(4) 0.9116(4)
H13 H 0.2668 0.7973 0.9224
H14 H 0.2443 0.7597 0.9097
O4 O 0.4205(4) 0.9429(4) 0.7803(4)
H15 H 0.4184 0.9487 0.7531
H16 H 0.4389 0.9544 0.7979
O5 O 0.2716(4) 0.9547(5) 0.6121(4)
H17 H 0.2810 0.9723 0.5925
H18 H 0.2472 0.9640 0.6221
O6 O 0.3074(4) 0.9207(5) 0.5656(4)
H19 H 0.3124 0.8981 0.5500
H20 H 0.2916 0.9387 0.5512
O7 O 0.1074(5) 0.7408(6) 0.8196(5)
H21 H 0.0874 0.7589 0.8270
H22 H 0.0978 0.7242 0.7992
O8 O 0.3502(4) 0.9595(5) 0.8533(6)
H23 H 0.3296 0.9408 0.8505
H24 H 0.3749 0.9466 0.8505
O9 O 0.37700(17) 0.87700(17) 0.62300(17)
Br1 Br 0.09107(2) 0.91721(2) 0.87667(2)
C1 C 0.1852(2) 0.8496(2) 0.7811(2)
H1 H 0.1732 0.8491 0.7529
C2 C 0.1951(2) 0.8642(2) 0.8470(2)
H2 H 0.1908 0.8755 0.8750
C3 C 0.2220(2) 0.8316(2) 0.8385(2)
H3 H 0.2422 0.8182 0.8572
C4 C 0.2341(2) 0.7872(2) 0.7706(2)
C5 C 0.2122(2) 0.7709(2) 0.7340(2)
H4 H 0.1866 0.7843 0.7238
C6 C -0.0049(2) 1.0317(2) 0.6670(2)
H5 H 0.0188 1.0489 0.6584
C7 C -0.0428(2) 0.9826(2) 0.7019(2)
H6 H -0.0499 0.9597 0.7209
C8 C -0.0666(2) 0.9973(2) 0.6675(2)
H7 H -0.0949 0.9886 0.6598
C9 C -0.0560(2) 1.0454(2) 0.6060(2)
C10 C -0.0288(2) 1.0783(2) 0.5895(2)
H8 H -0.0004 1.0820 0.6003
Cu1 Cu 0.13024(3) 0.93081(2) 0.80776(2)
Cu2 Cu 0.03739(3) 1.0000 0.7500
N1 N 0.17394(18) 0.8800(2) 0.81011(19)
N2 N 0.21300(17) 0.82151(15) 0.79334(17)
N3 N -0.00733(16) 1.00736(17) 0.70286(17)
N4 N -0.04114(18) 1.02723(16) 0.64639(18)
S1 S 0.08303(5) 0.94051(5) 0.74841(5)
W1 W 0.1250 1.0000 0.7500
Br1R Br 0.15893(2) 0.87333(2) 0.66721(2)
Br1OA Br 0.15893(2) 1.12667(2) 0.83279(2)
Br1AA Br 0.09107(2) 1.08279(2) 0.62333(2)
Br1J Br 0.41721(2) 0.62333(2) 0.90893(2)
Br1G Br 0.12333(2) 0.59107(2) 0.58279(2)
Br1O Br -0.16721(2) 0.84107(2) 0.37333(2)
Br1T Br 0.12667(2) 1.16721(2) 0.34107(2)
Br1KA Br -0.16721(2) 1.15893(2) 1.12667(2)
Br1SA Br 0.12667(2) 0.83279(2) 1.15893(2)
Br1FA Br 0.41721(2) 1.37667(2) 0.59107(2)
Br1DA Br 0.12333(2) 1.40893(2) 0.91721(2)
Br1F Br -0.37667(2) 0.90893(2) 0.41721(2)
Br1CA Br -0.12333(2) 0.90893(2) 0.58279(2)
Br1I Br 0.08279(2) 1.37667(2) 0.40893(2)
Br1HA Br -0.08279(2) 1.12333(2) 0.40893(2)
Br1EA Br -0.37667(2) 1.09107(2) 1.08279(2)
Br1D Br -0.12333(2) 1.09107(2) 0.91721(2)
Br1IA Br 0.08279(2) 0.62333(2) 1.09107(2)
Br1H Br -0.08279(2) 0.87667(2) 1.09107(2)
Br1U Br 0.62667(2) 1.33279(2) 0.65893(2)
Br1TA Br 0.37333(2) 1.16721(2) 0.65893(2)
Br1L Br 0.16721(2) 1.34107(2) 1.12667(2)
Br1MA Br 0.33279(2) 1.34107(2) 0.87333(2)
C1J C 0.3496(2) 0.7189(2) 0.8148(2)
C1G C 0.2189(2) 0.6852(2) 0.6504(2)
C1R C 0.0648(2) 0.9689(2) 0.5996(2)
C1O C -0.0996(2) 0.9352(2) 0.4689(2)
C1T C 0.0311(2) 1.0996(2) 0.4352(2)
C1OA C 0.0648(2) 1.0311(2) 0.9004(2)
C1KA C -0.0996(2) 1.0648(2) 1.0311(2)
C1SA C 0.0311(2) 0.9004(2) 1.0648(2)
C1AA C 0.1852(2) 1.1504(2) 0.7189(2)
C1FA C 0.3496(2) 1.2811(2) 0.6852(2)
C1DA C 0.2189(2) 1.3148(2) 0.8496(2)
C1F C -0.2811(2) 0.8148(2) 0.3496(2)
C1C C -0.3148(2) 0.6504(2) 0.2189(2)
C1H C -0.1504(2) 0.7811(2) 0.1852(2)
C1CA C -0.2189(2) 0.8148(2) 0.6504(2)
C1Y C -0.1852(2) 0.6504(2) 0.7811(2)
C1GA C -0.3496(2) 0.7811(2) 0.8148(2)
C1I C 0.1504(2) 1.2811(2) 0.3148(2)
C1E C 0.2811(2) 1.3148(2) 0.1504(2)
C1A C 0.3148(2) 1.1504(2) 0.2811(2)
C1HA C -0.1504(2) 1.2189(2) 0.3148(2)
C1EA C -0.2811(2) 1.1852(2) 0.1504(2)
C1X C -0.3148(2) 1.3496(2) 0.2811(2)
H1J H 0.3491 0.7471 0.8268
H1G H 0.2471 0.6732 0.6509
H1R H 0.0768 0.9971 0.5991
H1O H -0.0991 0.9232 0.4971
H1T H 0.0029 1.0991 0.4232
H1OA H 0.0768 1.0029 0.9009
H1KA H -0.0991 1.0768 1.0029
H1SA H 0.0029 0.9009 1.0768
H1AA H 0.1732 1.1509 0.7471
H1FA H 0.3491 1.2529 0.6732
H1DA H 0.2471 1.3268 0.8491
H1F H -0.2529 0.8268 0.3491
H1C H -0.3268 0.6509 0.2471
H1H H -0.1509 0.7529 0.1732
H1CA H -0.2471 0.8268 0.6509
H1Y H -0.1732 0.6509 0.7529
H1GA H -0.3491 0.7529 0.8268
H1I H 0.1509 1.2529 0.3268
H1E H 0.2529 1.3268 0.1509
H1A H 0.3268 1.1509 0.2529
H1HA H -0.1509 1.2471 0.3268
H1EA H -0.2529 1.1732 0.1509
H1X H -0.3268 1.3491 0.2529
C2J C 0.3642(2) 0.6530(2) 0.8049(2)
C2G C 0.1530(2) 0.6951(2) 0.6358(2)
C2R C 0.0549(2) 0.9030(2) 0.6142(2)
C2O C -0.1142(2) 0.9451(2) 0.4030(2)
C2T C 0.0970(2) 1.1142(2) 0.4451(2)
C2OA C 0.0549(2) 1.0970(2) 0.8858(2)
C2KA C -0.1142(2) 1.0549(2) 1.0970(2)
C2SA C 0.0970(2) 0.8858(2) 1.0549(2)
C2AA C 0.1951(2) 1.1358(2) 0.6530(2)
C2FA C 0.3642(2) 1.3470(2) 0.6951(2)
C2DA C 0.1530(2) 1.3049(2) 0.8642(2)
C2F C -0.3470(2) 0.8049(2) 0.3642(2)
C2C C -0.3049(2) 0.6358(2) 0.1530(2)
C2H C -0.1358(2) 0.8470(2) 0.1951(2)
C2CA C -0.1530(2) 0.8049(2) 0.6358(2)
C2Y C -0.1951(2) 0.6358(2) 0.8470(2)
C2GA C -0.3642(2) 0.8470(2) 0.8049(2)
C2I C 0.1358(2) 1.3470(2) 0.3049(2)
C2E C 0.3470(2) 1.3049(2) 0.1358(2)
C2A C 0.3049(2) 1.1358(2) 0.3470(2)
C2HA C -0.1358(2) 1.1530(2) 0.3049(2)
C2EA C -0.3470(2) 1.1951(2) 0.1358(2)
C2X C -0.3049(2) 1.3642(2) 0.3470(2)
H2J H 0.3755 0.6250 0.8092
H2G H 0.1250 0.6908 0.6245
H2R H 0.0592 0.8750 0.6255
H2O H -0.1255 0.9408 0.3750
H2T H 0.1250 1.1255 0.4408
H2OA H 0.0592 1.1250 0.8745
H2KA H -0.1255 1.0592 1.1250
H2SA H 0.1250 0.8745 1.0592
H2AA H 0.1908 1.1245 0.6250
H2FA H 0.3755 1.3750 0.6908
H2DA H 0.1250 1.3092 0.8755
H2F H -0.3750 0.8092 0.3755
H2C H -0.3092 0.6245 0.1250
H2H H -0.1245 0.8750 0.1908
H2CA H -0.1250 0.8092 0.6245
H2Y H -0.1908 0.6245 0.8750
H2GA H -0.3755 0.8750 0.8092
H2I H 0.1245 1.3750 0.3092
H2E H 0.3750 1.3092 0.1245
H2A H 0.3092 1.1245 0.3750
H2HA H -0.1245 1.1250 0.3092
H2EA H -0.3750 1.1908 0.1245
H2X H -0.3092 1.3755 0.3750
C3J C 0.3316(2) 0.6615(2) 0.7780(2)
C3G C 0.1615(2) 0.7220(2) 0.6684(2)
C3R C 0.0280(2) 0.9115(2) 0.5816(2)
C3O C -0.0816(2) 0.9720(2) 0.4115(2)
C3T C 0.0885(2) 1.0816(2) 0.4720(2)
C3OA C 0.0280(2) 1.0885(2) 0.9184(2)
C3KA C -0.0816(2) 1.0280(2) 1.0885(2)
C3SA C 0.0885(2) 0.9184(2) 1.0280(2)
C3AA C 0.2220(2) 1.1684(2) 0.6615(2)
C3FA C 0.3316(2) 1.3385(2) 0.7220(2)
C3DA C 0.1615(2) 1.2780(2) 0.8316(2)
C3F C -0.3385(2) 0.7780(2) 0.3316(2)
C3C C -0.2780(2) 0.6684(2) 0.1615(2)
C3H C -0.1684(2) 0.8385(2) 0.2220(2)
C3CA C -0.1615(2) 0.7780(2) 0.6684(2)
C3Y C -0.2220(2) 0.6684(2) 0.8385(2)
C3GA C -0.3316(2) 0.8385(2) 0.7780(2)
C3I C 0.1684(2) 1.3385(2) 0.2780(2)
C3E C 0.3385(2) 1.2780(2) 0.1684(2)
C3A C 0.2780(2) 1.1684(2) 0.3385(2)
C3HA C -0.1684(2) 1.1615(2) 0.2780(2)
C3EA C -0.3385(2) 1.2220(2) 0.1684(2)
C3X C -0.2780(2) 1.3316(2) 0.3385(2)
H3J H 0.3182 0.6428 0.7578
H3G H 0.1428 0.7422 0.6818
H3R H 0.0078 0.8928 0.5682
H3O H -0.0682 0.9922 0.3928
H3T H 0.1072 1.0682 0.4922
H3OA H 0.0078 1.1072 0.9318
H3KA H -0.0682 1.0078 1.1072
H3SA H 0.1072 0.9318 1.0078
H3AA H 0.2422 1.1818 0.6428
H3FA H 0.3182 1.3572 0.7422
H3DA H 0.1428 1.2578 0.8182
H3F H -0.3572 0.7578 0.3182
H3C H -0.2578 0.6818 0.1428
H3H H -0.1818 0.8572 0.2422
H3CA H -0.1428 0.7578 0.6818
H3Y H -0.2422 0.6818 0.8572
H3GA H -0.3182 0.8572 0.7578
H3I H 0.1818 1.3572 0.2578
H3E H 0.3572 1.2578 0.1818
H3A H 0.2578 1.1818 0.3572
H3HA H -0.1818 1.1428 0.2578
H3EA H -0.3572 1.2422 0.1818
H3X H -0.2578 1.3182 0.3572
C4G C 0.2294(2) 0.7341(2) 0.7128(2)
C4J C 0.2872(2) 0.7294(2) 0.7659(2)
C4R C 0.0159(2) 0.9794(2) 0.5372(2)
C4T C 0.0206(2) 1.0372(2) 0.4841(2)
C4O C -0.0372(2) 0.9841(2) 0.4794(2)
C4OA C 0.0159(2) 1.0206(2) 0.9628(2)
C4SA C 0.0206(2) 0.9628(2) 1.0159(2)
C4KA C -0.0372(2) 1.0159(2) 1.0206(2)
C4AA C 0.2341(2) 1.2128(2) 0.7294(2)
C4DA C 0.2294(2) 1.2659(2) 0.7872(2)
C4FA C 0.2872(2) 1.2706(2) 0.7341(2)
C4F C -0.2706(2) 0.7659(2) 0.2872(2)
C4H C -0.2128(2) 0.7706(2) 0.2341(2)
C4C C -0.2659(2) 0.7128(2) 0.2294(2)
C4CA C -0.2294(2) 0.7659(2) 0.7128(2)
C4GA C -0.2872(2) 0.7706(2) 0.7659(2)
C4Y C -0.2341(2) 0.7128(2) 0.7706(2)
C4I C 0.2128(2) 1.2706(2) 0.2659(2)
C4A C 0.2659(2) 1.2128(2) 0.2706(2)
C4E C 0.2706(2) 1.2659(2) 0.2128(2)
C4HA C -0.2128(2) 1.2294(2) 0.2659(2)
C4X C -0.2659(2) 1.2872(2) 0.2706(2)
C4EA C -0.2706(2) 1.2341(2) 0.2128(2)
C5G C 0.2660(2) 0.7122(2) 0.7291(2)
C5J C 0.2709(2) 0.7660(2) 0.7878(2)
C5R C 0.0378(2) 1.0160(2) 0.5209(2)
C5T C -0.0160(2) 1.0209(2) 0.4622(2)
C5O C -0.0209(2) 0.9622(2) 0.5160(2)
C5OA C 0.0378(2) 0.9840(2) 0.9791(2)
C5SA C -0.0160(2) 0.9791(2) 1.0378(2)
C5KA C -0.0209(2) 1.0378(2) 0.9840(2)
C5AA C 0.2122(2) 1.2291(2) 0.7660(2)
C5DA C 0.2660(2) 1.2878(2) 0.7709(2)
C5FA C 0.2709(2) 1.2340(2) 0.7122(2)
C5F C -0.2340(2) 0.7878(2) 0.2709(2)
C5H C -0.2291(2) 0.7340(2) 0.2122(2)
C5C C -0.2878(2) 0.7291(2) 0.2660(2)
C5CA C -0.2660(2) 0.7878(2) 0.7291(2)
C5GA C -0.2709(2) 0.7340(2) 0.7878(2)
C5Y C -0.2122(2) 0.7291(2) 0.7340(2)
C5I C 0.2291(2) 1.2340(2) 0.2878(2)
C5A C 0.2878(2) 1.2291(2) 0.2340(2)
C5E C 0.2340(2) 1.2878(2) 0.2291(2)
C5HA C -0.2291(2) 1.2660(2) 0.2878(2)
C5X C -0.2878(2) 1.2709(2) 0.2340(2)
C5EA C -0.2340(2) 1.2122(2) 0.2291(2)
H4J H 0.2843 0.7762 0.8134
H4G H 0.2762 0.6866 0.7157
H4R H 0.0634 1.0262 0.5343
H4O H -0.0343 0.9366 0.5262
H4T H -0.0262 1.0343 0.4366
H4OA H 0.0634 0.9738 0.9657
H4KA H -0.0343 1.0634 0.9738
H4SA H -0.0262 0.9657 1.0634
H4AA H 0.1866 1.2157 0.7762
H4FA H 0.2843 1.2238 0.6866
H4DA H 0.2762 1.3134 0.7843
H4F H -0.2238 0.8134 0.2843
H4C H -0.3134 0.7157 0.2762
H4H H -0.2157 0.7238 0.1866
H4CA H -0.2762 0.8134 0.7157
H4Y H -0.1866 0.7157 0.7238
H4GA H -0.2843 0.7238 0.8134
H4I H 0.2157 1.2238 0.3134
H4E H 0.2238 1.3134 0.2157
H4A H 0.3134 1.2157 0.2238
H4HA H -0.2157 1.2762 0.3134
H4EA H -0.2238 1.1866 0.2157
H4X H -0.3134 1.2843 0.2238
C6F C -0.1670(2) 1.0049(2) 0.5317(2)
C6I C -0.0317(2) 1.1670(2) 0.5049(2)
C6AA C -0.0049(2) 0.9683(2) 0.8330(2)
C6EA C -0.1670(2) 0.9951(2) 0.9683(2)
C6IA C -0.0317(2) 0.8330(2) 0.9951(2)
C6R C 0.2549(2) 1.0830(2) 0.7817(2)
C6U C 0.4170(2) 1.2183(2) 0.7549(2)
C6L C 0.2817(2) 1.2451(2) 0.9170(2)
C6OA C 0.2549(2) 0.9170(2) 0.7183(2)
C6RA C 0.4170(2) 0.7817(2) 0.7451(2)
C6LA C 0.2817(2) 0.7549(2) 0.5830(2)
C6CA C -0.3330(2) 1.0049(2) 0.4683(2)
C6FA C -0.4683(2) 1.1670(2) 0.4951(2)
C6Z C -0.4951(2) 1.0317(2) 0.3330(2)
C6HA C 0.0317(2) 1.3330(2) 0.5049(2)
C6Y C 0.0049(2) 1.4683(2) 0.6670(2)
C6BA C 0.1670(2) 1.4951(2) 0.5317(2)
C6D C -0.3330(2) 0.9951(2) 1.0317(2)
C6J C -0.4683(2) 0.8330(2) 1.0049(2)
C6A C -0.4951(2) 0.9683(2) 1.1670(2)
C6H C 0.0317(2) 0.6670(2) 0.9951(2)
C6B C 0.0049(2) 0.5317(2) 0.8330(2)
C6E C 0.1670(2) 0.5049(2) 0.9683(2)
H5F H -0.1584 0.9812 0.5489
H5I H -0.0489 1.1584 0.4812
H5AA H 0.0188 0.9511 0.8416
H5EA H -0.1584 1.0188 0.9511
H5IA H -0.0489 0.8416 1.0188
H5R H 0.2312 1.0916 0.7989
H5U H 0.4084 1.2011 0.7312
H5L H 0.2989 1.2688 0.9084
H5OA H 0.2312 0.9084 0.7011
H5RA H 0.4084 0.7989 0.7688
H5LA H 0.2989 0.7312 0.5916
H5CA H -0.3416 0.9812 0.4511
H5FA H -0.4511 1.1584 0.5188
H5Z H -0.5188 1.0489 0.3416
H5HA H 0.0489 1.3416 0.4812
H5Y H -0.0188 1.4511 0.6584
H5BA H 0.1584 1.5188 0.5489
H5D H -0.3416 1.0188 1.0489
H5J H -0.4511 0.8416 0.9812
H5A H -0.5188 0.9511 1.1584
H5H H 0.0489 0.6584 1.0188
H5B H -0.0188 0.5489 0.8416
H5E H 0.1584 0.4812 0.9511
C7F C -0.2019(2) 1.0428(2) 0.4826(2)
C7I C 0.0174(2) 1.2019(2) 0.5428(2)
C7AA C -0.0428(2) 1.0174(2) 0.7981(2)
C7EA C -0.2019(2) 0.9572(2) 1.0174(2)
C7IA C 0.0174(2) 0.7981(2) 0.9572(2)
C7R C 0.2928(2) 1.0481(2) 0.7326(2)
C7U C 0.4519(2) 1.2674(2) 0.7928(2)
C7L C 0.2326(2) 1.2072(2) 0.9519(2)
C7OA C 0.2928(2) 0.9519(2) 0.7674(2)
C7RA C 0.4519(2) 0.7326(2) 0.7072(2)
C7LA C 0.2326(2) 0.7928(2) 0.5481(2)
C7CA C -0.2981(2) 1.0428(2) 0.5174(2)
C7FA C -0.5174(2) 1.2019(2) 0.4572(2)
C7Z C -0.4572(2) 0.9826(2) 0.2981(2)
C7HA C -0.0174(2) 1.2981(2) 0.5428(2)
C7Y C 0.0428(2) 1.5174(2) 0.7019(2)
C7BA C 0.2019(2) 1.4572(2) 0.4826(2)
C7D C -0.2981(2) 0.9572(2) 0.9826(2)
C7J C -0.5174(2) 0.7981(2) 1.0428(2)
C7A C -0.4572(2) 1.0174(2) 1.2019(2)
C7H C -0.0174(2) 0.7019(2) 0.9572(2)
C7B C 0.0428(2) 0.4826(2) 0.7981(2)
C7E C 0.2019(2) 0.5428(2) 1.0174(2)
H6F H -0.2209 1.0499 0.4597
H6I H 0.0403 1.2209 0.5499
H6AA H -0.0499 1.0403 0.7791
H6EA H -0.2209 0.9501 1.0403
H6IA H 0.0403 0.7791 0.9501
H6R H 0.2999 1.0291 0.7097
H6U H 0.4709 1.2903 0.7999
H6L H 0.2097 1.2001 0.9709
H6OA H 0.2999 0.9709 0.7903
H6RA H 0.4709 0.7097 0.7001
H6LA H 0.2097 0.7999 0.5291
H6CA H -0.2791 1.0499 0.5403
H6FA H -0.5403 1.2209 0.4501
H6Z H -0.4501 0.9597 0.2791
H6HA H -0.0403 1.2791 0.5499
H6Y H 0.0499 1.5403 0.7209
H6BA H 0.2209 1.4501 0.4597
H6D H -0.2791 0.9501 0.9597
H6J H -0.5403 0.7791 1.0499
H6A H -0.4501 1.0403 1.2209
H6H H -0.0403 0.7209 0.9501
H6B H 0.0499 0.4597 0.7791
H6E H 0.2209 0.5499 1.0403
C8F C -0.1675(2) 1.0666(2) 0.4973(2)
C8I C 0.0027(2) 1.1675(2) 0.5666(2)
C8AA C -0.0666(2) 1.0027(2) 0.8325(2)
C8EA C -0.1675(2) 0.9334(2) 1.0027(2)
C8IA C 0.0027(2) 0.8325(2) 0.9334(2)
C8R C 0.3166(2) 1.0825(2) 0.7473(2)
C8U C 0.4175(2) 1.2527(2) 0.8166(2)
C8L C 0.2473(2) 1.1834(2) 0.9175(2)
C8OA C 0.3166(2) 0.9175(2) 0.7527(2)
C8RA C 0.4175(2) 0.7473(2) 0.6834(2)
C8LA C 0.2473(2) 0.8166(2) 0.5825(2)
C8CA C -0.3325(2) 1.0666(2) 0.5027(2)
C8FA C -0.5027(2) 1.1675(2) 0.4334(2)
C8Z C -0.4334(2) 0.9973(2) 0.3325(2)
C8HA C -0.0027(2) 1.3325(2) 0.5666(2)
C8Y C 0.0666(2) 1.5027(2) 0.6675(2)
C8BA C 0.1675(2) 1.4334(2) 0.4973(2)
C8D C -0.3325(2) 0.9334(2) 0.9973(2)
C8J C -0.5027(2) 0.8325(2) 1.0666(2)
C8A C -0.4334(2) 1.0027(2) 1.1675(2)
C8H C -0.0027(2) 0.6675(2) 0.9334(2)
C8B C 0.0666(2) 0.4973(2) 0.8325(2)
C8E C 0.1675(2) 0.5666(2) 1.0027(2)
H7F H -0.1598 1.0949 0.4886
H7I H 0.0114 1.1598 0.5949
H7AA H -0.0949 1.0114 0.8402
H7EA H -0.1598 0.9051 1.0114
H7IA H 0.0114 0.8402 0.9051
H7R H 0.3449 1.0902 0.7386
H7U H 0.4098 1.2614 0.8449
H7L H 0.2386 1.1551 0.9098
H7OA H 0.3449 0.9098 0.7614
H7RA H 0.4098 0.7386 0.6551
H7LA H 0.2386 0.8449 0.5902
H7CA H -0.3402 1.0949 0.5114
H7FA H -0.5114 1.1598 0.4051
H7Z H -0.4051 0.9886 0.3402
H7HA H -0.0114 1.3402 0.5949
H7Y H 0.0949 1.5114 0.6598
H7BA H 0.1598 1.4051 0.4886
H7D H -0.3402 0.9051 0.9886
H7J H -0.5114 0.8402 1.0949
H7A H -0.4051 1.0114 1.1598
H7H H -0.0114 0.6598 0.9051
H7B H 0.0949 0.4886 0.8402
H7E H 0.1598 0.5949 1.0114
C9I C -0.0454(2) 1.1060(2) 0.5560(2)
C9F C -0.1060(2) 1.0560(2) 0.5454(2)
C9AA C -0.0560(2) 0.9546(2) 0.8940(2)
C9IA C -0.0454(2) 0.8940(2) 0.9440(2)
C9EA C -0.1060(2) 0.9440(2) 0.9546(2)
C9R C 0.3060(2) 1.1440(2) 0.7954(2)
C9L C 0.2954(2) 1.1940(2) 0.8560(2)
C9U C 0.3560(2) 1.2046(2) 0.8060(2)
C9OA C 0.3060(2) 0.8560(2) 0.7046(2)
C9LA C 0.2954(2) 0.8060(2) 0.6440(2)
C9RA C 0.3560(2) 0.7954(2) 0.6940(2)
C9CA C -0.3940(2) 1.0560(2) 0.4546(2)
C9Z C -0.4440(2) 1.0454(2) 0.3940(2)
C9FA C -0.4546(2) 1.1060(2) 0.4440(2)
C9HA C 0.0454(2) 1.3940(2) 0.5560(2)
C9BA C 0.1060(2) 1.4440(2) 0.5454(2)
C9Y C 0.0560(2) 1.4546(2) 0.6060(2)
C9D C -0.3940(2) 0.9440(2) 1.0454(2)
C9A C -0.4440(2) 0.9546(2) 1.1060(2)
C9J C -0.4546(2) 0.8940(2) 1.0560(2)
C9H C 0.0454(2) 0.6060(2) 0.9440(2)
C9E C 0.1060(2) 0.5560(2) 0.9546(2)
C9B C 0.0560(2) 0.5454(2) 0.8940(2)
C10I C -0.0783(2) 1.0895(2) 0.5288(2)
C10F C -0.0895(2) 1.0288(2) 0.5783(2)
C10AA C -0.0288(2) 0.9217(2) 0.9105(2)
C10IA C -0.0783(2) 0.9105(2) 0.9712(2)
C10EA C -0.0895(2) 0.9712(2) 0.9217(2)
C10R C 0.2788(2) 1.1605(2) 0.8283(2)
C10L C 0.3283(2) 1.2212(2) 0.8395(2)
C10U C 0.3395(2) 1.1717(2) 0.7788(2)
C10OA C 0.2788(2) 0.8395(2) 0.6717(2)
C10LA C 0.3283(2) 0.7788(2) 0.6605(2)
C10RA C 0.3395(2) 0.8283(2) 0.7212(2)
C10CA C -0.4105(2) 1.0288(2) 0.4217(2)
C10Z C -0.4712(2) 1.0783(2) 0.4105(2)
C10FA C -0.4217(2) 1.0895(2) 0.4712(2)
C10HA C 0.0783(2) 1.4105(2) 0.5288(2)
C10BA C 0.0895(2) 1.4712(2) 0.5783(2)
C10Y C 0.0288(2) 1.4217(2) 0.5895(2)
C10D C -0.4105(2) 0.9712(2) 1.0783(2)
C10A C -0.4712(2) 0.9217(2) 1.0895(2)
C10J C -0.4217(2) 0.9105(2) 1.0288(2)
C10H C 0.0783(2) 0.5895(2) 0.9712(2)
C10E C 0.0895(2) 0.5288(2) 0.9217(2)
C10B C 0.0288(2) 0.5783(2) 0.9105(2)
H8F H -0.1003 1.0004 0.5820
H8I H -0.0820 1.1003 0.5004
H8AA H -0.0004 0.9180 0.8997
H8EA H -0.1003 0.9996 0.9180
H8IA H -0.0820 0.8997 0.9996
H8R H 0.2504 1.1497 0.8320
H8U H 0.3503 1.1680 0.7504
H8L H 0.3320 1.2496 0.8503
H8OA H 0.2504 0.8503 0.6680
H8RA H 0.3503 0.8320 0.7496
H8LA H 0.3320 0.7504 0.6497
H8CA H -0.3997 1.0004 0.4180
H8FA H -0.4180 1.1003 0.4996
H8Z H -0.4996 1.0820 0.3997
H8HA H 0.0820 1.3997 0.5004
H8Y H 0.0004 1.4180 0.6003
H8BA H 0.1003 1.4996 0.5820
H8D H -0.3997 0.9996 1.0820
H8J H -0.4180 0.8997 1.0004
H8A H -0.4996 0.9180 1.1003
H8H H 0.0820 0.6003 0.9996
H8B H 0.0004 0.5820 0.8997
H8E H 0.1003 0.5004 0.9180
Cu1R Cu 0.11976(3) 0.94224(2) 0.68081(2)
Cu1OA Cu 0.11976(3) 1.05776(2) 0.81919(2)
Cu1AA Cu 0.13024(3) 1.06919(2) 0.69224(2)
Cu1J Cu 0.43081(2) 0.69224(2) 0.86976(3)
Cu1G Cu 0.19224(2) 0.63024(3) 0.56919(2)
Cu1O Cu -0.18081(2) 0.88024(3) 0.44224(2)
Cu1T Cu 0.05776(2) 1.18081(2) 0.38024(3)
Cu1KA Cu -0.18081(2) 1.11976(3) 1.05776(2)
Cu1SA Cu 0.05776(2) 0.81919(2) 1.11976(3)
Cu1FA Cu 0.43081(2) 1.30776(2) 0.63024(3)
Cu1DA Cu 0.19224(2) 1.36976(3) 0.93081(2)
Cu1F Cu -0.30776(2) 0.86976(3) 0.43081(2)
Cu1CA Cu -0.19224(2) 0.86976(3) 0.56919(2)
Cu1I Cu 0.06919(2) 1.30776(2) 0.36976(3)
Cu1HA Cu -0.06919(2) 1.19224(2) 0.36976(3)
Cu1EA Cu -0.30776(2) 1.13024(3) 1.06919(2)
Cu1D Cu -0.19224(2) 1.13024(3) 0.93081(2)
Cu1IA Cu 0.06919(2) 0.69224(2) 1.13024(3)
Cu1H Cu -0.06919(2) 0.80776(2) 1.13024(3)
Cu1U Cu 0.55776(2) 1.31919(2) 0.61976(3)
Cu1TA Cu 0.44224(2) 1.18081(2) 0.61976(3)
Cu1L Cu 0.18081(2) 1.38024(3) 1.05776(2)
Cu1MA Cu 0.31919(2) 1.38024(3) 0.94224(2)
Cu1JA Cu -0.31919(2) 0.88024(3) 0.55776(2)
Cu1UA Cu -0.05776(2) 1.31919(2) 0.38024(3)
Cu1N Cu -0.31919(2) 1.11976(3) 0.94224(2)
Cu1V Cu -0.05776(2) 0.68081(2) 1.11976(3)
Cu1K Cu 0.56919(2) 1.19224(2) 0.63024(3)
Cu1E Cu 0.30776(2) 1.36976(3) 1.06919(2)
Cu1RA Cu 0.55776(2) 0.68081(2) 0.88024(3)
Cu1W Cu 0.44224(2) 0.81919(2) 0.88024(3)
Cu1GA Cu 0.56919(2) 0.80776(2) 0.86976(3)
Cu1LA Cu 0.18081(2) 0.61976(3) 0.44224(2)
Cu1M Cu 0.31919(2) 0.61976(3) 0.55776(2)
Cu1BA Cu 0.30776(2) 0.63024(3) 0.43081(2)
Cu1C Cu -0.36976(3) 0.56919(2) 0.19224(2)
Cu1H_2 Cu -0.06919(2) 0.80776(2) 0.13024(3)
Cu1Y Cu -0.13024(3) 0.56919(2) 0.80776(2)
Cu1GA_2 Cu -0.43081(2) 0.80776(2) 0.86976(3)
Cu1E_2 Cu 0.30776(2) 1.36976(3) 0.06919(2)
Cu1A Cu 0.36976(3) 1.06919(2) 0.30776(2)
Cu1EA_2 Cu -0.30776(2) 1.13024(3) 0.06919(2)
Cu1X Cu -0.36976(3) 1.43081(2) 0.30776(2)
Cu2R Cu 0.21261(3) 1.0000 0.7500
Cu2F Cu -0.2500 0.96261(3) 0.5000
Cu2I Cu 0.0000 1.2500 0.46261(3)
Cu2D Cu -0.2500 1.03739(3) 1.0000
Cu2H Cu 0.0000 0.7500 1.03739(3)
Cu2U Cu 0.5000 1.2500 0.71261(3)
Cu2L Cu 0.2500 1.28739(3) 1.0000
Cu2W Cu 0.5000 0.7500 0.78739(3)
Cu2M Cu 0.2500 0.71261(3) 0.5000
Cu2K Cu -0.5000 1.2500 0.53739(3)
Cu2A Cu -0.53739(3) 1.0000 0.2500
Cu2B Cu -0.03739(3) 1.5000 0.7500
Cu2G Cu 0.2500 1.53739(3) 0.5000
Cu2J Cu -0.5000 0.7500 0.96261(3)
Cu2A_2 Cu -0.53739(3) 1.0000 1.2500
Cu2B_2 Cu -0.03739(3) 0.5000 0.7500
Cu2E Cu 0.2500 0.46261(3) 1.0000
Cu2J_2 Cu 0.5000 0.7500 0.96261(3)
Cu2G_2 Cu 0.2500 0.53739(3) 0.5000
Cu2O Cu -0.2500 0.78739(3) 0.5000
Cu2T Cu 0.0000 1.2500 0.28739(3)
N1J N 0.3800(2) 0.68989(19) 0.82606(18)
N1G N 0.18989(19) 0.67394(18) 0.6200(2)
N1R N 0.07606(18) 0.93989(19) 0.6300(2)
N1O N -0.1300(2) 0.92394(18) 0.43989(19)
N1T N 0.06011(19) 1.1300(2) 0.42394(18)
N1OA N 0.07606(18) 1.06011(19) 0.8700(2)
N1KA N -0.1300(2) 1.07606(18) 1.06011(19)
N1SA N 0.06011(19) 0.8700(2) 1.07606(18)
N1AA N 0.17394(18) 1.1200(2) 0.68989(19)
N1FA N 0.3800(2) 1.31011(19) 0.67394(18)
N1DA N 0.18989(19) 1.32606(18) 0.8800(2)
N1F N -0.31011(19) 0.82606(18) 0.3800(2)
N1C N -0.32606(18) 0.6200(2) 0.18989(19)
N1H N -0.1200(2) 0.81011(19) 0.17394(18)
N1CA N -0.18989(19) 0.82606(18) 0.6200(2)
N1Y N -0.17394(18) 0.6200(2) 0.81011(19)
N1GA N -0.3800(2) 0.81011(19) 0.82606(18)
N1I N 0.1200(2) 1.31011(19) 0.32606(18)
N1E N 0.31011(19) 1.32606(18) 0.1200(2)
N1A N 0.32606(18) 1.1200(2) 0.31011(19)
N1HA N -0.1200(2) 1.18989(19) 0.32606(18)
N1EA N -0.31011(19) 1.17394(18) 0.1200(2)
N1X N -0.32606(18) 1.3800(2) 0.31011(19)
N1EA_2 N -0.31011(19) 1.17394(18) 1.1200(2)
N1D N -0.18989(19) 1.17394(18) 0.8800(2)
N1IA N 0.1200(2) 0.68989(19) 1.17394(18)
N1H_2 N -0.1200(2) 0.81011(19) 1.17394(18)
N1U N 0.56011(19) 1.3700(2) 0.57606(18)
N1TA N 0.43989(19) 1.1300(2) 0.57606(18)
N1L N 0.1300(2) 1.42394(18) 1.06011(19)
N1MA N 0.3700(2) 1.42394(18) 0.93989(19)
N2J N 0.32151(15) 0.70666(17) 0.78700(17)
N2G N 0.20666(17) 0.71300(17) 0.67849(15)
N2R N 0.03700(17) 0.95666(17) 0.57151(15)
N2O N -0.07151(15) 0.96300(17) 0.45666(17)
N2T N 0.04334(17) 1.07151(15) 0.46300(17)
N2OA N 0.03700(17) 1.04334(17) 0.92849(15)
N2KA N -0.07151(15) 1.03700(17) 1.04334(17)
N2SA N 0.04334(17) 0.92849(15) 1.03700(17)
N2AA N 0.21300(17) 1.17849(15) 0.70666(17)
N2FA N 0.32151(15) 1.29334(17) 0.71300(17)
N2DA N 0.20666(17) 1.28700(17) 0.82151(15)
N2F N -0.29334(17) 0.78700(17) 0.32151(15)
N2C N -0.28700(17) 0.67849(15) 0.20666(17)
N2H N -0.17849(15) 0.79334(17) 0.21300(17)
N2CA N -0.20666(17) 0.78700(17) 0.67849(15)
N2Y N -0.21300(17) 0.67849(15) 0.79334(17)
N2GA N -0.32151(15) 0.79334(17) 0.78700(17)
N2I N 0.17849(15) 1.29334(17) 0.28700(17)
N2E N 0.29334(17) 1.28700(17) 0.17849(15)
N2A N 0.28700(17) 1.17849(15) 0.29334(17)
N2HA N -0.17849(15) 1.20666(17) 0.28700(17)
N2EA N -0.29334(17) 1.21300(17) 0.17849(15)
N2X N -0.28700(17) 1.32151(15) 0.29334(17)
N3F N -0.20286(17) 1.00733(16) 0.50736(17)
N3I N -0.00736(17) 1.20286(17) 0.50733(16)
N3AA N -0.00733(16) 0.99264(17) 0.79714(17)
N3EA N -0.20286(17) 0.99267(16) 0.99264(17)
N3IA N -0.00736(17) 0.79714(17) 0.99267(16)
N3R N 0.25733(16) 1.04714(17) 0.75736(17)
N3U N 0.45286(17) 1.24264(17) 0.75733(16)
N3L N 0.25736(17) 1.24267(16) 0.95286(17)
N3OA N 0.25733(16) 0.95286(17) 0.74264(17)
N3RA N 0.45286(17) 0.75736(17) 0.74267(16)
N3LA N 0.25736(17) 0.75733(16) 0.54714(17)
N3CA N -0.29714(17) 1.00733(16) 0.49264(17)
N3FA N -0.49264(17) 1.20286(17) 0.49267(16)
N3Z N -0.49267(16) 1.00736(17) 0.29714(17)
N3HA N 0.00736(17) 1.29714(17) 0.50733(16)
N3Y N 0.00733(16) 1.49264(17) 0.70286(17)
N3BA N 0.20286(17) 1.49267(16) 0.50736(17)
N3D N -0.29714(17) 0.99267(16) 1.00736(17)
N3J N -0.49264(17) 0.79714(17) 1.00733(16)
N3A N -0.49267(16) 0.99264(17) 1.20286(17)
N3H N 0.00736(17) 0.70286(17) 0.99267(16)
N3B N 0.00733(16) 0.50736(17) 0.79714(17)
N3E N 0.20286(17) 0.50733(16) 0.99264(17)
N3TA N 0.54714(17) 1.25736(17) 0.75733(16)
N3MA N 0.24264(17) 1.24267(16) 1.04714(17)
N3W N 0.54714(17) 0.74264(17) 0.74267(16)
N3M N 0.24264(17) 0.75733(16) 0.45286(17)
N3K N -0.50736(17) 1.29714(17) 0.49267(16)
N3A_2 N -0.49267(16) 0.99264(17) 0.20286(17)
N4F N -0.14639(18) 1.04114(18) 0.52723(16)
N4I N -0.02723(16) 1.14639(18) 0.54114(18)
N4AA N -0.04114(18) 0.97277(16) 0.85361(18)
N4EA N -0.14639(18) 0.95886(18) 0.97277(16)
N4IA N -0.02723(16) 0.85361(18) 0.95886(18)
N4R N 0.29114(18) 1.10361(18) 0.77723(16)
N4U N 0.39639(18) 1.22277(16) 0.79114(18)
N4L N 0.27723(16) 1.20886(18) 0.89639(18)
N4OA N 0.29114(18) 0.89639(18) 0.72277(16)
N4RA N 0.39639(18) 0.77723(16) 0.70886(18)
N4LA N 0.27723(16) 0.79114(18) 0.60361(18)
N4CA N -0.35361(18) 1.04114(18) 0.47277(16)
N4FA N -0.47277(16) 1.14639(18) 0.45886(18)
N4Z N -0.45886(18) 1.02723(16) 0.35361(18)
N4HA N 0.02723(16) 1.35361(18) 0.54114(18)
N4Y N 0.04114(18) 1.47277(16) 0.64639(18)
N4BA N 0.14639(18) 1.45886(18) 0.52723(16)
N4D N -0.35361(18) 0.95886(18) 1.02723(16)
N4J N -0.47277(16) 0.85361(18) 1.04114(18)
N4A N -0.45886(18) 0.97277(16) 1.14639(18)
N4H N 0.02723(16) 0.64639(18) 0.95886(18)
N4B N 0.04114(18) 0.52723(16) 0.85361(18)
N4E N 0.14639(18) 0.54114(18) 0.97277(16)
S1R S 0.16697(5) 1.00159(5) 0.69051(5)
S1OA S 0.16697(5) 0.99841(5) 0.80949(5)
S1AA S 0.08303(5) 1.05949(5) 0.75159(5)
S1F S -0.24841(5) 0.91697(5) 0.44051(5)
S1CA S -0.25159(5) 0.91697(5) 0.55949(5)
S1I S 0.05949(5) 1.24841(5) 0.41697(5)
S1HA S -0.05949(5) 1.25159(5) 0.41697(5)
S1EA S -0.24841(5) 1.08303(5) 1.05949(5)
S1D S -0.25159(5) 1.08303(5) 0.94051(5)
S1IA S 0.05949(5) 0.75159(5) 1.08303(5)
S1H S -0.05949(5) 0.74841(5) 1.08303(5)
S1U S 0.49841(5) 1.30949(5) 0.66697(5)
S1TA S 0.50159(5) 1.19051(5) 0.66697(5)
S1L S 0.19051(5) 1.33303(5) 0.99841(5)
S1MA S 0.30949(5) 1.33303(5) 1.00159(5)
S1RA S 0.49841(5) 0.69051(5) 0.83303(5)
S1W S 0.50159(5) 0.80949(5) 0.83303(5)
S1LA S 0.19051(5) 0.66697(5) 0.50159(5)
S1M S 0.30949(5) 0.66697(5) 0.49841(5)
S1J S 0.44051(5) 0.75159(5) 0.91697(5)
S1G S 0.25159(5) 0.58303(5) 0.55949(5)
S1O S -0.19051(5) 0.83303(5) 0.50159(5)
S1T S -0.00159(5) 1.19051(5) 0.33303(5)
S1KA S -0.19051(5) 1.16697(5) 0.99841(5)
S1SA S -0.00159(5) 0.80949(5) 1.16697(5)
S1FA S 0.44051(5) 1.24841(5) 0.58303(5)
S1DA S 0.25159(5) 1.41697(5) 0.94051(5)
S1JA S -0.30949(5) 0.83303(5) 0.49841(5)
S1UA S 0.00159(5) 1.30949(5) 0.33303(5)
S1N S -0.30949(5) 1.16697(5) 1.00159(5)
S1V S 0.00159(5) 0.69051(5) 1.16697(5)
S1K S 0.55949(5) 1.25159(5) 0.58303(5)
S1FA_2 S -0.55949(5) 1.24841(5) 0.58303(5)
S1K_2 S -0.44051(5) 1.25159(5) 0.58303(5)
S1Z S -0.58303(5) 0.94051(5) 0.25159(5)
S1A S -0.58303(5) 1.05949(5) 0.24841(5)
S1E S 0.24841(5) 1.41697(5) 1.05949(5)
W1F W -0.2500 0.8750 0.5000
W1I W 0.0000 1.2500 0.3750
W1D W -0.2500 1.1250 1.0000
W1H W 0.0000 0.7500 1.1250
W1K W 0.5000 1.2500 0.6250
W1E W 0.2500 1.3750 1.0000
W1J W 0.5000 0.7500 0.8750
W1G W 0.2500 0.6250 0.5000
O1? O 0.2454(5) 0.8084(4) 0.9728(4)
H9? H 0.2623 0.8287 0.9819
H10? H 0.2230 0.8069 0.9895
H25? H 0.3776 0.8867 0.6485
H26? H 0.3988 0.8901 0.6109
loop_
_geom_bond_atom_site_label_1
_geom_bond_atom_site_label_2
_geom_bond_site_symmetry_1
_geom_bond_site_symmetry_2
Br1 Cu1 1_555 1_555
C1 H1 1_555 1_555
C2 H2 1_555 1_555
C3 C2 1_555 1_555
H3 C3 1_555 1_555
C4 C5 1_555 1_555
C5 H4 1_555 1_555
C6 H5 1_555 1_555
C7 H6 1_555 1_555
C8 C7 1_555 1_555
H7 C8 1_555 1_555
C9 C10 1_555 1_555
C10 H8 1_555 1_555
Cu1 N1 1_555 1_555
Cu2 N3 1_555 1_555
N1 C1 1_555 1_555
N2 C1 1_555 1_555
N3 C6 1_555 1_555
N4 C6 1_555 1_555
O2 H11 1_555 1_555
H12 O2 1_555 1_555
O3 H13 1_555 1_555
H14 O3 1_555 1_555
O4 H15 1_555 1_555
H16 O4 1_555 1_555
O5 H17 1_555 1_555
H18 O5 1_555 1_555
O6 H19 1_555 1_555
H20 O6 1_555 1_555
O7 H21 1_555 1_555
H22 O7 1_555 1_555
O8 H23 1_555 1_555
H24 O8 1_555 1_555
S1 Cu1 1_555 1_555
W1 S1 1_555 1_555
Br1R Cu1R 1_555 1_555
Br1OA Cu1OA 1_555 1_555
Br1AA Cu1AA 1_555 1_555
Br1J Cu1J 1_555 1_555
Br1G Cu1G 1_555 1_555
Br1O Cu1O 1_555 1_555
Br1T Cu1T 1_555 1_555
Br1KA Cu1KA 1_555 1_555
Br1SA Cu1SA 1_555 1_555
Br1FA Cu1FA 1_555 1_555
Br1DA Cu1DA 1_555 1_555
Br1F Cu1F 1_555 1_555
Br1CA Cu1CA 1_555 1_555
Br1I Cu1I 1_555 1_555
Br1HA Cu1HA 1_555 1_555
Br1EA Cu1EA 1_555 1_555
Br1D Cu1D 1_555 1_555
Br1IA Cu1IA 1_555 1_555
Br1H Cu1H 1_555 1_555
Br1U Cu1U 1_555 1_555
Br1TA Cu1TA 1_555 1_555
Br1L Cu1L 1_555 1_555
Br1MA Cu1MA 1_555 1_555
C1J H1J 1_555 1_555
C1G H1G 1_555 1_555
C1R H1R 1_555 1_555
C1O H1O 1_555 1_555
C1T H1T 1_555 1_555
C1OA H1OA 1_555 1_555
C1KA H1KA 1_555 1_555
C1SA H1SA 1_555 1_555
C1AA H1AA 1_555 1_555
C1FA H1FA 1_555 1_555
C1DA H1DA 1_555 1_555
C1F H1F 1_555 1_555
C1C H1C 1_555 1_555
C1H H1H 1_555 1_555
C1CA H1CA 1_555 1_555
C1Y H1Y 1_555 1_555
C1GA H1GA 1_555 1_555
C1I H1I 1_555 1_555
C1E H1E 1_555 1_555
C1A H1A 1_555 1_555
C1HA H1HA 1_555 1_555
C1EA H1EA 1_555 1_555
C1X H1X 1_555 1_555
C2J H2J 1_555 1_555
C2G H2G 1_555 1_555
C2R H2R 1_555 1_555
C2O H2O 1_555 1_555
C2T H2T 1_555 1_555
C2OA H2OA 1_555 1_555
C2KA H2KA 1_555 1_555
C2SA H2SA 1_555 1_555
C2AA H2AA 1_555 1_555
C2FA H2FA 1_555 1_555
C2DA H2DA 1_555 1_555
C2F H2F 1_555 1_555
C2C H2C 1_555 1_555
C2H H2H 1_555 1_555
C2CA H2CA 1_555 1_555
C2Y H2Y 1_555 1_555
C2GA H2GA 1_555 1_555
C2I H2I 1_555 1_555
C2E H2E 1_555 1_555
C2A H2A 1_555 1_555
C2HA H2HA 1_555 1_555
C2EA H2EA 1_555 1_555
C2X H2X 1_555 1_555
C3J C2J 1_555 1_555
C3G C2G 1_555 1_555
C3R C2R 1_555 1_555
C3O C2O 1_555 1_555
C3T C2T 1_555 1_555
C3OA C2OA 1_555 1_555
C3KA C2KA 1_555 1_555
C3SA C2SA 1_555 1_555
C3AA C2AA 1_555 1_555
C3FA C2FA 1_555 1_555
C3DA C2DA 1_555 1_555
C3F C2F 1_555 1_555
C3C C2C 1_555 1_555
C3H C2H 1_555 1_555
C3CA C2CA 1_555 1_555
C3Y C2Y 1_555 1_555
C3GA C2GA 1_555 1_555
C3I C2I 1_555 1_555
C3E C2E 1_555 1_555
C3A C2A 1_555 1_555
C3HA C2HA 1_555 1_555
C3EA C2EA 1_555 1_555
C3X C2X 1_555 1_555
H3J C3J 1_555 1_555
H3G C3G 1_555 1_555
H3R C3R 1_555 1_555
H3O C3O 1_555 1_555
H3T C3T 1_555 1_555
H3OA C3OA 1_555 1_555
H3KA C3KA 1_555 1_555
H3SA C3SA 1_555 1_555
H3AA C3AA 1_555 1_555
H3FA C3FA 1_555 1_555
H3DA C3DA 1_555 1_555
H3F C3F 1_555 1_555
H3C C3C 1_555 1_555
H3H C3H 1_555 1_555
H3CA C3CA 1_555 1_555
H3Y C3Y 1_555 1_555
H3GA C3GA 1_555 1_555
H3I C3I 1_555 1_555
H3E C3E 1_555 1_555
H3A C3A 1_555 1_555
H3HA C3HA 1_555 1_555
H3EA C3EA 1_555 1_555
H3X C3X 1_555 1_555
C4G C5 1_555 1_555
C4J C5G 1_555 1_555
C4R C5R 1_555 1_555
C4T C5R 1_555 1_555
C4O C5T 1_555 1_555
C4OA C5OA 1_555 1_555
C4SA C5OA 1_555 1_555
C4KA C5SA 1_555 1_555
C4AA C5AA 1_555 1_555
C4DA C5AA 1_555 1_555
C4FA C5DA 1_555 1_555
C4F C5F 1_555 1_555
C4H C5F 1_555 1_555
C4C C5H 1_555 1_555
C4CA C5CA 1_555 1_555
C4GA C5CA 1_555 1_555
C4Y C5GA 1_555 1_555
C4I C5I 1_555 1_555
C4A C5I 1_555 1_555
C4E C5A 1_555 1_555
C4HA C5HA 1_555 1_555
C4X C5HA 1_555 1_555
C4EA C5X 1_555 1_555
C5G C4G 1_555 1_555
C5J C4 1_555 1_555
C5R H4R 1_555 1_555
C5T C4T 1_555 1_555
C5O C4R 1_555 1_555
C5OA H4OA 1_555 1_555
C5SA C4SA 1_555 1_555
C5KA C4OA 1_555 1_555
C5AA H4AA 1_555 1_555
C5DA C4DA 1_555 1_555
C5FA C4AA 1_555 1_555
C5F H4F 1_555 1_555
C5H C4H 1_555 1_555
C5C C4F 1_555 1_555
C5CA H4CA 1_555 1_555
C5GA C4GA 1_555 1_555
C5Y C4CA 1_555 1_555
C5I H4I 1_555 1_555
C5A C4A 1_555 1_555
C5E C4I 1_555 1_555
C5HA H4HA 1_555 1_555
C5X C4X 1_555 1_555
C5EA C4HA 1_555 1_555
H4J C5J 1_555 1_555
H4G C5G 1_555 1_555
H4O C5O 1_555 1_555
H4T C5T 1_555 1_555
H4KA C5KA 1_555 1_555
H4SA C5SA 1_555 1_555
H4FA C5FA 1_555 1_555
H4DA C5DA 1_555 1_555
H4C C5C 1_555 1_555
H4H C5H 1_555 1_555
H4Y C5Y 1_555 1_555
H4GA C5GA 1_555 1_555
H4E C5E 1_555 1_555
H4A C5A 1_555 1_555
H4EA C5EA 1_555 1_555
H4X C5X 1_555 1_555
C6F H5F 1_555 1_555
C6I H5I 1_555 1_555
C6AA H5AA 1_555 1_555
C6EA H5EA 1_555 1_555
C6IA H5IA 1_555 1_555
C6R H5R 1_555 1_555
C6U H5U 1_555 1_555
C6L H5L 1_555 1_555
C6OA H5OA 1_555 1_555
C6RA H5RA 1_555 1_555
C6LA H5LA 1_555 1_555
C6CA H5CA 1_555 1_555
C6FA H5FA 1_555 1_555
C6Z H5Z 1_555 1_555
C6HA H5HA 1_555 1_555
C6Y H5Y 1_555 1_555
C6BA H5BA 1_555 1_555
C6D H5D 1_555 1_555
C6J H5J 1_555 1_555
C6A H5A 1_555 1_555
C6H H5H 1_555 1_555
C6B H5B 1_555 1_555
C6E H5E 1_555 1_555
C7F H6F 1_555 1_555
C7I H6I 1_555 1_555
C7AA H6AA 1_555 1_555
C7EA H6EA 1_555 1_555
C7IA H6IA 1_555 1_555
C7R H6R 1_555 1_555
C7U H6U 1_555 1_555
C7L H6L 1_555 1_555
C7OA H6OA 1_555 1_555
C7RA H6RA 1_555 1_555
C7LA H6LA 1_555 1_555
C7CA H6CA 1_555 1_555
C7FA H6FA 1_555 1_555
C7Z H6Z 1_555 1_555
C7HA H6HA 1_555 1_555
C7Y H6Y 1_555 1_555
C7BA H6BA 1_555 1_555
C7D H6D 1_555 1_555
C7J H6J 1_555 1_555
C7A H6A 1_555 1_555
C7H H6H 1_555 1_555
C7B H6B 1_555 1_555
C7E H6E 1_555 1_555
C8F C7F 1_555 1_555
C8I C7I 1_555 1_555
C8AA C7AA 1_555 1_555
C8EA C7EA 1_555 1_555
C8IA C7IA 1_555 1_555
C8R C7R 1_555 1_555
C8U C7U 1_555 1_555
C8L C7L 1_555 1_555
C8OA C7OA 1_555 1_555
C8RA C7RA 1_555 1_555
C8LA C7LA 1_555 1_555
C8CA C7CA 1_555 1_555
C8FA C7FA 1_555 1_555
C8Z C7Z 1_555 1_555
C8HA C7HA 1_555 1_555
C8Y C7Y 1_555 1_555
C8BA C7BA 1_555 1_555
C8D C7D 1_555 1_555
C8J C7J 1_555 1_555
C8A C7A 1_555 1_555
C8H C7H 1_555 1_555
C8B C7B 1_555 1_555
C8E C7E 1_555 1_555
H7F C8F 1_555 1_555
H7I C8I 1_555 1_555
H7AA C8AA 1_555 1_555
H7EA C8EA 1_555 1_555
H7IA C8IA 1_555 1_555
H7R C8R 1_555 1_555
H7U C8U 1_555 1_555
H7L C8L 1_555 1_555
H7OA C8OA 1_555 1_555
H7RA C8RA 1_555 1_555
H7LA C8LA 1_555 1_555
H7CA C8CA 1_555 1_555
H7FA C8FA 1_555 1_555
H7Z C8Z 1_555 1_555
H7HA C8HA 1_555 1_555
H7Y C8Y 1_555 1_555
H7BA C8BA 1_555 1_555
H7D C8D 1_555 1_555
H7J C8J 1_555 1_555
H7A C8A 1_555 1_555
H7H C8H 1_555 1_555
H7B C8B 1_555 1_555
H7E C8E 1_555 1_555
C9I C10 1_555 1_555
C9F C10I 1_555 1_555
C9AA C10AA 1_555 1_555
C9IA C10AA 1_555 1_555
C9EA C10IA 1_555 1_555
C9R C10R 1_555 1_555
C9L C10R 1_555 1_555
C9U C10L 1_555 1_555
C9OA C10OA 1_555 1_555
C9LA C10OA 1_555 1_555
C9RA C10LA 1_555 1_555
C9CA C10CA 1_555 1_555
C9Z C10CA 1_555 1_555
C9FA C10Z 1_555 1_555
C9HA C10HA 1_555 1_555
C9BA C10HA 1_555 1_555
C9Y C10BA 1_555 1_555
C9D C10D 1_555 1_555
C9A C10D 1_555 1_555
C9J C10A 1_555 1_555
C9H C10H 1_555 1_555
C9E C10H 1_555 1_555
C9B C10E 1_555 1_555
C10I C9I 1_555 1_555
C10F C9 1_555 1_555
C10AA H8AA 1_555 1_555
C10IA C9IA 1_555 1_555
C10EA C9AA 1_555 1_555
C10R H8R 1_555 1_555
C10L C9L 1_555 1_555
C10U C9R 1_555 1_555
C10OA H8OA 1_555 1_555
C10LA C9LA 1_555 1_555
C10RA C9OA 1_555 1_555
C10CA H8CA 1_555 1_555
C10Z C9Z 1_555 1_555
C10FA C9CA 1_555 1_555
C10HA H8HA 1_555 1_555
C10BA C9BA 1_555 1_555
C10Y C9HA 1_555 1_555
C10D H8D 1_555 1_555
C10A C9A 1_555 1_555
C10J C9D 1_555 1_555
C10H H8H 1_555 1_555
C10E C9E 1_555 1_555
C10B C9H 1_555 1_555
H8F C10F 1_555 1_555
H8I C10I 1_555 1_555
H8EA C10EA 1_555 1_555
H8IA C10IA 1_555 1_555
H8U C10U 1_555 1_555
H8L C10L 1_555 1_555
H8RA C10RA 1_555 1_555
H8LA C10LA 1_555 1_555
H8FA C10FA 1_555 1_555
H8Z C10Z 1_555 1_555
H8Y C10Y 1_555 1_555
H8BA C10BA 1_555 1_555
H8J C10J 1_555 1_555
H8A C10A 1_555 1_555
H8B C10B 1_555 1_555
H8E C10E 1_555 1_555
Cu1R S1 1_555 1_555
Cu1OA N1OA 1_555 1_555
Cu1AA N1AA 1_555 1_555
Cu1J N1J 1_555 1_555
Cu1G N1G 1_555 1_555
Cu1O N1O 1_555 1_555
Cu1T N1T 1_555 1_555
Cu1KA N1KA 1_555 1_555
Cu1SA N1SA 1_555 1_555
Cu1FA N1FA 1_555 1_555
Cu1DA N1DA 1_555 1_555
Cu1F N1F 1_555 1_555
Cu1CA N1CA 1_555 1_555
Cu1I N1I 1_555 1_555
Cu1HA N1HA 1_555 1_555
Cu1EA N1EA_2 1_555 1_555
Cu1D N1D 1_555 1_555
Cu1IA N1IA 1_555 1_555
Cu1H N1H_2 1_555 1_555
Cu1U N1U 1_555 1_555
Cu1TA N1TA 1_555 1_555
Cu1L N1L 1_555 1_555
Cu1MA N1MA 1_555 1_555
Cu1JA S1CA 1_555 1_555
Cu1UA S1HA 1_555 1_555
Cu1N S1D 1_555 1_555
Cu1V S1H 1_555 1_555
Cu1K S1TA 1_555 1_555
Cu1E S1MA 1_555 1_555
Cu1RA S1RA 1_555 1_555
Cu1W S1W 1_555 1_555
Cu1GA S1W 1_555 1_555
Cu1LA S1LA 1_555 1_555
Cu1M S1M 1_555 1_555
Cu1BA S1M 1_555 1_555
Cu1C N1C 1_555 1_555
Cu1H_2 N1H 1_555 1_555
Cu1Y N1Y 1_555 1_555
Cu1GA_2 N1GA 1_555 1_555
Cu1E_2 N1E 1_555 1_555
Cu1A N1A 1_555 1_555
Cu1EA_2 N1EA 1_555 1_555
Cu1X N1X 1_555 1_555
Cu2R N3R 1_555 1_555
Cu2F N3F 1_555 1_555
Cu2I N3I 1_555 1_555
Cu2D N3EA 1_555 1_555
Cu2H N3IA 1_555 1_555
Cu2U N3U 1_555 1_555
Cu2L N3L 1_555 1_555
Cu2W N3RA 1_555 1_555
Cu2M N3LA 1_555 1_555
Cu2K N3FA 1_555 1_555
Cu2A N3Z 1_555 1_555
Cu2B N3Y 1_555 1_555
Cu2G N3BA 1_555 1_555
Cu2J N3J 1_555 1_555
Cu2A_2 N3A 1_555 1_555
Cu2B_2 N3B 1_555 1_555
Cu2E N3E 1_555 1_555
Cu2J_2 S1J 1_555 1_555
Cu2G_2 S1G 1_555 1_555
Cu2O S1O 1_555 1_555
Cu2T S1T 1_555 1_555
N1J C1J 1_555 1_555
N1G C1G 1_555 1_555
N1R C1R 1_555 1_555
N1O C1O 1_555 1_555
N1T C1T 1_555 1_555
N1OA C1OA 1_555 1_555
N1KA C1KA 1_555 1_555
N1SA C1SA 1_555 1_555
N1AA C1AA 1_555 1_555
N1FA C1FA 1_555 1_555
N1DA C1DA 1_555 1_555
N1F C1F 1_555 1_555
N1C C1C 1_555 1_555
N1H C1H 1_555 1_555
N1CA C1CA 1_555 1_555
N1Y C1Y 1_555 1_555
N1GA C1GA 1_555 1_555
N1I C1I 1_555 1_555
N1E C1E 1_555 1_555
N1A C1A 1_555 1_555
N1HA C1HA 1_555 1_555
N1EA C1EA 1_555 1_555
N1X C1X 1_555 1_555
N2J C1J 1_555 1_555
N2G C1G 1_555 1_555
N2R C1R 1_555 1_555
N2O C1O 1_555 1_555
N2T C1T 1_555 1_555
N2OA C1OA 1_555 1_555
N2KA C1KA 1_555 1_555
N2SA C1SA 1_555 1_555
N2AA C1AA 1_555 1_555
N2FA C1FA 1_555 1_555
N2DA C1DA 1_555 1_555
N2F C1F 1_555 1_555
N2C C1C 1_555 1_555
N2H C1H 1_555 1_555
N2CA C1CA 1_555 1_555
N2Y C1Y 1_555 1_555
N2GA C1GA 1_555 1_555
N2I C1I 1_555 1_555
N2E C1E 1_555 1_555
N2A C1A 1_555 1_555
N2HA C1HA 1_555 1_555
N2EA C1EA 1_555 1_555
N2X C1X 1_555 1_555
N3F C6F 1_555 1_555
N3I C6I 1_555 1_555
N3AA Cu2 1_555 1_555
N3EA C6EA 1_555 1_555
N3IA C6IA 1_555 1_555
N3R C6R 1_555 1_555
N3U C6U 1_555 1_555
N3L C6L 1_555 1_555
N3OA C6OA 1_555 1_555
N3RA C6RA 1_555 1_555
N3LA C6LA 1_555 1_555
N3CA C6CA 1_555 1_555
N3FA C6FA 1_555 1_555
N3Z C6Z 1_555 1_555
N3HA C6HA 1_555 1_555
N3Y C6Y 1_555 1_555
N3BA C6BA 1_555 1_555
N3D C6D 1_555 1_555
N3J C6J 1_555 1_555
N3A C6A 1_555 1_555
N3H C6H 1_555 1_555
N3B C6B 1_555 1_555
N3E C6E 1_555 1_555
N3TA Cu2U 1_555 1_555
N3MA Cu2L 1_555 1_555
N3W Cu2W 1_555 1_555
N3M Cu2M 1_555 1_555
N3K Cu2K 1_555 1_555
N3A_2 Cu2A 1_555 1_555
N4F C6F 1_555 1_555
N4I C6I 1_555 1_555
N4AA C6AA 1_555 1_555
N4EA C6EA 1_555 1_555
N4IA C6IA 1_555 1_555
N4R C6R 1_555 1_555
N4U C6U 1_555 1_555
N4L C6L 1_555 1_555
N4OA C6OA 1_555 1_555
N4RA C6RA 1_555 1_555
N4LA C6LA 1_555 1_555
N4CA C6CA 1_555 1_555
N4FA C6FA 1_555 1_555
N4Z C6Z 1_555 1_555
N4HA C6HA 1_555 1_555
N4Y C6Y 1_555 1_555
N4BA C6BA 1_555 1_555
N4D C6D 1_555 1_555
N4J C6J 1_555 1_555
N4A C6A 1_555 1_555
N4H C6H 1_555 1_555
N4B C6B 1_555 1_555
N4E C6E 1_555 1_555
S1R W1 1_555 1_555
S1OA Cu1 1_555 1_555
S1AA Cu2 1_555 1_555
S1F Cu1O 1_555 1_555
S1CA Cu1CA 1_555 1_555
S1I Cu1T 1_555 1_555
S1HA Cu1HA 1_555 1_555
S1EA Cu1KA 1_555 1_555
S1D Cu1D 1_555 1_555
S1IA Cu1SA 1_555 1_555
S1H Cu1H 1_555 1_555
S1U Cu1FA 1_555 1_555
S1TA Cu1TA 1_555 1_555
S1L Cu1DA 1_555 1_555
S1MA Cu1MA 1_555 1_555
S1RA Cu1J 1_555 1_555
S1W Cu2W 1_555 1_555
S1LA Cu1G 1_555 1_555
S1M Cu2M 1_555 1_555
S1J Cu1J 1_555 1_555
S1G Cu1G 1_555 1_555
S1O Cu1O 1_555 1_555
S1T Cu1T 1_555 1_555
S1KA Cu1KA 1_555 1_555
S1SA Cu1SA 1_555 1_555
S1FA Cu1FA 1_555 1_555
S1DA Cu1DA 1_555 1_555
S1JA Cu1F 1_555 1_555
S1UA Cu1I 1_555 1_555
S1N Cu1EA 1_555 1_555
S1V Cu1IA 1_555 1_555
S1K Cu1U 1_555 1_555
S1FA_2 Cu2K 1_555 1_555
S1K_2 Cu2K 1_555 1_555
S1Z Cu2A 1_555 1_555
S1A Cu2A 1_555 1_555
S1E Cu1L 1_555 1_555
W1F S1F 1_555 1_555
W1I S1I 1_555 1_555
W1D S1EA 1_555 1_555
W1H S1IA 1_555 1_555
W1K S1U 1_555 1_555
W1E S1L 1_555 1_555
W1J S1RA 1_555 1_555
W1G S1LA 1_555 1_555
C2 N1 1_555 1_555
C3 N2 1_555 1_555
C4 N2 1_555 1_555
C7 N3 1_555 1_555
C8 N4 1_555 1_555
C9 N4 1_555 1_555
Cu2 S1 1_555 1_555
W1 S1OA 1_555 1_555
W1 S1AA 1_555 1_555
C2J N1J 1_555 1_555
C2G N1G 1_555 1_555
C2R N1R 1_555 1_555
C2O N1O 1_555 1_555
C2T N1T 1_555 1_555
C2OA N1OA 1_555 1_555
C2KA N1KA 1_555 1_555
C2SA N1SA 1_555 1_555
C2AA N1AA 1_555 1_555
C2FA N1FA 1_555 1_555
C2DA N1DA 1_555 1_555
C2F N1F 1_555 1_555
C2C N1C 1_555 1_555
C2H N1H 1_555 1_555
C2CA N1CA 1_555 1_555
C2Y N1Y 1_555 1_555
C2GA N1GA 1_555 1_555
C2I N1I 1_555 1_555
C2E N1E 1_555 1_555
C2A N1A 1_555 1_555
C2HA N1HA 1_555 1_555
C2EA N1EA 1_555 1_555
C2X N1X 1_555 1_555
C3J N2J 1_555 1_555
C3G N2G 1_555 1_555
C3R N2R 1_555 1_555
C3O N2O 1_555 1_555
C3T N2T 1_555 1_555
C3OA N2OA 1_555 1_555
C3KA N2KA 1_555 1_555
C3SA N2SA 1_555 1_555
C3AA N2AA 1_555 1_555
C3FA N2FA 1_555 1_555
C3DA N2DA 1_555 1_555
C3F N2F 1_555 1_555
C3C N2C 1_555 1_555
C3H N2H 1_555 1_555
C3CA N2CA 1_555 1_555
C3Y N2Y 1_555 1_555
C3GA N2GA 1_555 1_555
C3I N2I 1_555 1_555
C3E N2E 1_555 1_555
C3A N2A 1_555 1_555
C3HA N2HA 1_555 1_555
C3EA N2EA 1_555 1_555
C3X N2X 1_555 1_555
C4G N2G 1_555 1_555
C4J C5J 1_555 1_555
C4J N2J 1_555 1_555
C4R N2R 1_555 1_555
C4T N2T 1_555 1_555
C4O C5O 1_555 1_555
C4O N2O 1_555 1_555
C4OA N2OA 1_555 1_555
C4SA N2SA 1_555 1_555
C4KA C5KA 1_555 1_555
C4KA N2KA 1_555 1_555
C4AA N2AA 1_555 1_555
C4DA N2DA 1_555 1_555
C4FA C5FA 1_555 1_555
C4FA N2FA 1_555 1_555
C4F N2F 1_555 1_555
C4H N2H 1_555 1_555
C4C C5C 1_555 1_555
C4C N2C 1_555 1_555
C4CA N2CA 1_555 1_555
C4GA N2GA 1_555 1_555
C4Y C5Y 1_555 1_555
C4Y N2Y 1_555 1_555
C4I N2I 1_555 1_555
C4A N2A 1_555 1_555
C4E C5E 1_555 1_555
C4E N2E 1_555 1_555
C4HA N2HA 1_555 1_555
C4X N2X 1_555 1_555
C4EA C5EA 1_555 1_555
C4EA N2EA 1_555 1_555
C6AA N3AA 1_555 1_555
C7F N3F 1_555 1_555
C7I N3I 1_555 1_555
C7AA N3AA 1_555 1_555
C7EA N3EA 1_555 1_555
C7IA N3IA 1_555 1_555
C7R N3R 1_555 1_555
C7U N3U 1_555 1_555
C7L N3L 1_555 1_555
C7OA N3OA 1_555 1_555
C7RA N3RA 1_555 1_555
C7LA N3LA 1_555 1_555
C7CA N3CA 1_555 1_555
C7FA N3FA 1_555 1_555
C7Z N3Z 1_555 1_555
C7HA N3HA 1_555 1_555
C7Y N3Y 1_555 1_555
C7BA N3BA 1_555 1_555
C7D N3D 1_555 1_555
C7J N3J 1_555 1_555
C7A N3A 1_555 1_555
C7H N3H 1_555 1_555
C7B N3B 1_555 1_555
C7E N3E 1_555 1_555
C8F N4F 1_555 1_555
C8I N4I 1_555 1_555
C8AA N4AA 1_555 1_555
C8EA N4EA 1_555 1_555
C8IA N4IA 1_555 1_555
C8R N4R 1_555 1_555
C8U N4U 1_555 1_555
C8L N4L 1_555 1_555
C8OA N4OA 1_555 1_555
C8RA N4RA 1_555 1_555
C8LA N4LA 1_555 1_555
C8CA N4CA 1_555 1_555
C8FA N4FA 1_555 1_555
C8Z N4Z 1_555 1_555
C8HA N4HA 1_555 1_555
C8Y N4Y 1_555 1_555
C8BA N4BA 1_555 1_555
C8D N4D 1_555 1_555
C8J N4J 1_555 1_555
C8A N4A 1_555 1_555
C8H N4H 1_555 1_555
C8B N4B 1_555 1_555
C8E N4E 1_555 1_555
C9I N4I 1_555 1_555
C9F C10F 1_555 1_555
C9F N4F 1_555 1_555
C9AA N4AA 1_555 1_555
C9IA N4IA 1_555 1_555
C9EA C10EA 1_555 1_555
C9EA N4EA 1_555 1_555
C9R N4R 1_555 1_555
C9L N4L 1_555 1_555
C9U C10U 1_555 1_555
C9U N4U 1_555 1_555
C9OA N4OA 1_555 1_555
C9LA N4LA 1_555 1_555
C9RA C10RA 1_555 1_555
C9RA N4RA 1_555 1_555
C9CA N4CA 1_555 1_555
C9Z N4Z 1_555 1_555
C9FA C10FA 1_555 1_555
C9FA N4FA 1_555 1_555
C9HA N4HA 1_555 1_555
C9BA N4BA 1_555 1_555
C9Y C10Y 1_555 1_555
C9Y N4Y 1_555 1_555
C9D N4D 1_555 1_555
C9A N4A 1_555 1_555
C9J C10J 1_555 1_555
C9J N4J 1_555 1_555
C9H N4H 1_555 1_555
C9E N4E 1_555 1_555
C9B C10B 1_555 1_555
C9B N4B 1_555 1_555
Cu1R N1R 1_555 1_555
Cu1R S1R 1_555 1_555
Cu1OA S1OA 1_555 1_555
Cu1OA S1AA 1_555 1_555
Cu1AA S1R 1_555 1_555
Cu1AA S1AA 1_555 1_555
Cu1F S1F 1_555 1_555
Cu1CA S1O 1_555 1_555
Cu1I S1I 1_555 1_555
Cu1HA S1T 1_555 1_555
Cu1EA S1EA 1_555 1_555
Cu1D S1KA 1_555 1_555
Cu1IA S1IA 1_555 1_555
Cu1H S1SA 1_555 1_555
Cu1U S1U 1_555 1_555
Cu1TA S1FA 1_555 1_555
Cu1L S1L 1_555 1_555
Cu1MA S1DA 1_555 1_555
Cu1JA S1JA 1_555 1_555
Cu1UA S1UA 1_555 1_555
Cu1N S1N 1_555 1_555
Cu1V S1V 1_555 1_555
Cu1K S1K 1_555 1_555
Cu1E S1E 1_555 1_555
Cu1W S1J 1_555 1_555
Cu1M S1G 1_555 1_555
Cu2R N3OA 1_555 1_555
Cu2R S1R 1_555 1_555
Cu2R S1OA 1_555 1_555
Cu2F N3CA 1_555 1_555
Cu2F S1F 1_555 1_555
Cu2F S1CA 1_555 1_555
Cu2I N3HA 1_555 1_555
Cu2I S1I 1_555 1_555
Cu2I S1HA 1_555 1_555
Cu2D N3D 1_555 1_555
Cu2D S1EA 1_555 1_555
Cu2D S1D 1_555 1_555
Cu2H N3H 1_555 1_555
Cu2H S1IA 1_555 1_555
Cu2H S1H 1_555 1_555
Cu2U S1U 1_555 1_555
Cu2U S1TA 1_555 1_555
Cu2L S1L 1_555 1_555
Cu2L S1MA 1_555 1_555
Cu2W S1RA 1_555 1_555
Cu2M S1LA 1_555 1_555
Cu2O S1JA 1_555 1_555
Cu2T S1UA 1_555 1_555
S1CA W1F 1_555 1_555
S1HA W1I 1_555 1_555
S1D W1D 1_555 1_555
S1H W1H 1_555 1_555
S1TA W1K 1_555 1_555
S1MA W1E 1_555 1_555
S1W W1J 1_555 1_555
S1M W1G 1_555 1_555
S1J W1J 1_555 1_555
S1G W1G 1_555 1_555
S1O W1F 1_555 1_555
S1T W1I 1_555 1_555
S1KA W1D 1_555 1_555
S1SA W1H 1_555 1_555
S1FA W1K 1_555 1_555
S1DA W1E 1_555 1_555
S1JA W1F 1_555 1_555
S1UA W1I 1_555 1_555
S1N W1D 1_555 1_555
S1V W1H 1_555 1_555
S1K W1K 1_555 1_555
S1E W1E 1_555 1_555

#END
