
#######################################################################
#
#                 Cambridge Crystallographic Data Centre
#                                CCDC 
#
#######################################################################
#
# If this CIF has been generated from an entry in the Cambridge 
# Structural Database, then it will include bibliographic, chemical, 
# crystal, experimental, refinement or atomic coordinate data resulting 
# from the CCDC's data processing and validation procedures.
#
#######################################################################

data_NUHQIS
_symmetry_cell_setting           triclinic
_symmetry_space_group_name_H-M   'P -1'
_symmetry_Int_Tables_number      2
_space_group_name_Hall           '-P 1'
loop_
_symmetry_equiv_pos_site_id
_symmetry_equiv_pos_as_xyz
1 x,y,z
2 -x,-y,-z
_cell_length_a                   13.013(3)
_cell_length_b                   13.846(3)
_cell_length_c                   28.029(6)
_cell_angle_alpha                75.71(3)
_cell_angle_beta                 79.28(3)
_cell_angle_gamma                85.59(3)
_cell_volume                     4805.99
loop_
_atom_site_label
_atom_site_type_symbol
_atom_site_fract_x
_atom_site_fract_y
_atom_site_fract_z
Eu1 Eu -0.52842(3) 1.53808(2) -0.584871(11)
Eu2 Eu 0.03064(2) 1.87534(2) -0.939400(10)
Eu3 Eu -0.48279(3) 1.48092(2) -0.085903(11)
Tb1 Tb -0.11955(2) 2.02113(2) -0.445875(10)
O1 O -0.0553(4) 1.9321(3) -0.52760(16)
O2 O -0.2011(4) 1.8989(3) -0.47385(17)
O3 O -0.4000(4) 1.5671(4) -0.54318(19)
O4 O -0.3754(4) 1.5906(3) -0.47102(17)
O5 O 0.0447(4) 1.8889(4) -0.85517(18)
O6 O -0.0695(5) 1.7859(4) -0.85899(16)
O7 O -0.3602(4) 1.5170(3) -0.64190(17)
O8 O -0.4043(4) 1.3919(3) -0.57651(17)
O9 O -0.1312(4) 1.1353(3) -0.52387(16)
O10 O 0.0188(4) 1.1269(3) -0.57781(16)
O11 O 0.2594(4) 1.6596(4) -0.8528(2)
O12 O 0.3246(4) 1.5082(3) -0.85869(18)
O13 O -0.1108(4) 1.9842(3) -0.92247(17)
O14 O -0.1236(4) 2.1275(3) -0.97834(16)
O15 O -0.4960(4) 2.3508(3) -0.86176(17)
O16 O -0.3871(4) 2.3867(3) -0.93314(15)
O17 O -0.5092(4) 1.6945(3) -0.63686(18)
O18 O -0.5567(6) 1.8150(4) -0.5969(2)
O19 O -0.4018(4) 1.5720(3) -0.04495(18)
O20 O -0.3887(4) 1.6071(4) 0.02570(17)
O21 O -0.0984(4) 1.9676(3) -0.03301(17)
O22 O -0.1074(4) 1.8269(3) 0.02565(17)
O23 O -0.2204(4) 1.9355(5) -0.36426(18)
O24 O -0.0871(5) 2.0179(4) -0.36136(16)
O25 O -0.3081(5) 2.0606(5) -0.4442(3)
O26 O -0.1436(6) 2.1884(4) -0.4314(2)
O27 O -0.5710(5) 1.4627(5) -0.6446(2)
O28 O -0.6104(5) 1.6435(4) -0.52769(18)
O29 O -0.7136(4) 1.5816(4) -0.5930(2)
O30 O 0.0580(5) 1.6993(4) -0.9361(2)
O31 O 0.2124(4) 1.8326(4) -0.9258(2)
O32 O -0.6229(6) 1.4762(5) -0.1331(2)
O33 O -0.4632(4) 1.3217(4) -0.1102(2)
O34 O -0.3825(4) 1.3621(3) -0.02946(17)
C1 C -0.1755(5) 1.8228(5) -0.5424(2)
C2 C -0.2492(5) 1.7522(4) -0.5183(2)
H1 H -0.2748 1.7443 -0.4843
C3 C -0.2852(5) 1.6931(4) -0.5447(2)
C4 C -0.2470(6) 1.7052(5) -0.5954(2)
H2 H -0.2721 1.6661 -0.6131
C5 C -0.1706(5) 1.7764(5) -0.6207(2)
C6 C -0.1349(5) 1.8334(5) -0.5931(2)
H3 H -0.0833 1.8793 -0.6085
C7 C -0.1328(6) 1.7884(5) -0.6756(2)
C8 C -0.0380(7) 1.8321(7) -0.6983(3)
H4 H 0.0031 1.8534 -0.6793
C9 C -0.0047(7) 1.8440(7) -0.7494(3)
H5 H 0.0592 1.8729 -0.7641
C10 C -0.0633(6) 1.8145(5) -0.7787(2)
C11 C -0.1529(7) 1.7640(6) -0.7555(3)
H6 H -0.1913 1.7383 -0.7742
C12 C -0.1860(6) 1.7512(6) -0.7046(3)
H7 H -0.2464 1.7163 -0.6895
C13 C -0.1408(5) 1.8883(5) -0.5133(2)
C14 C -0.3605(5) 1.6118(4) -0.5177(3)
C15 C -0.0268(6) 1.8309(5) -0.8344(2)
C16 C -0.2338(5) 1.3838(5) -0.6252(2)
C17 C -0.2044(5) 1.2999(5) -0.5918(2)
H8 H -0.2496 1.2740 -0.5622
C18 C -0.1061(6) 1.2537(5) -0.6026(2)
C19 C -0.0391(6) 1.2938(5) -0.6464(2)
H9 H 0.0257 1.2624 -0.6535
C20 C -0.0659(6) 1.3795(5) -0.6801(2)
C21 C -0.1641(6) 1.4233(5) -0.6687(2)
H10 H -0.1839 1.4807 -0.6907
C22 C 0.0103(6) 1.4274(5) -0.7241(2)
C23 C 0.0168(7) 1.5297(6) -0.7400(3)
H11 H -0.0321 1.5695 -0.7242
C24 C 0.0936(7) 1.5755(6) -0.7785(3)
H12 H 0.0963 1.6447 -0.7880
C25 C 0.1665(6) 1.5168(5) -0.8028(3)
C26 C 0.1594(6) 1.4160(5) -0.7888(3)
H13 H 0.2071 1.3766 -0.8054
C27 C 0.0818(6) 1.3707(5) -0.7500(3)
H14 H 0.0780 1.3016 -0.7414
C28 C -0.3391(6) 1.4328(5) -0.6142(2)
C29 C -0.0705(6) 1.1644(5) -0.5646(2)
C30 C 0.2557(6) 1.5656(5) -0.8412(2)
C31 C -0.2390(5) 2.1030(4) -0.8998(2)
C32 C -0.2855(5) 2.1972(4) -0.9122(2)
H15 H -0.2618 2.2406 -0.9427
C33 C -0.3675(5) 2.2265(5) -0.8789(2)
C34 C -0.4026(6) 2.1614(5) -0.8340(3)
H16 H -0.4583 2.1813 -0.8121
C35 C -0.3573(6) 2.0670(5) -0.8206(2)
C36 C -0.2734(6) 2.0382(5) -0.8543(2)
H17 H -0.2409 1.9756 -0.8459
C37 C -0.3991(6) 1.9955(5) -0.7725(2)
C38 C -0.4014(7) 1.8957(5) -0.7704(3)
H18 H -0.3760 1.8726 -0.7989
C39 C -0.4411(7) 1.8284(5) -0.7261(3)
H19 H -0.4412 1.7609 -0.7255
C40 C -0.4800(6) 1.8598(5) -0.6834(2)
C41 C -0.4800(7) 1.9599(5) -0.6847(3)
H20 H -0.5073 1.9829 -0.6562
C42 C -0.4385(8) 2.0269(5) -0.7291(3)
H21 H -0.4373 2.0942 -0.7296
C43 C -0.1518(5) 2.0683(4) -0.9364(2)
C44 C -0.4203(6) 2.3279(5) -0.8920(2)
C45 C -0.5196(6) 1.7848(5) -0.6351(3)
C46 C -0.3005(5) 1.7082(4) -0.0478(2)
C47 C -0.2471(5) 1.7529(4) -0.0207(2)
H22 H -0.2528 1.7283 0.0137
C48 C -0.1853(5) 1.8344(4) -0.0449(2)
C49 C -0.1764(5) 1.8692(5) -0.0959(2)
H23 H -0.1371 1.9251 -0.1118
C50 C -0.2246(5) 1.8229(5) -0.1242(2)
C51 C -0.2869(5) 1.7420(4) -0.1001(2)
H24 H -0.3197 1.7103 -0.1185
C52 C -0.2090(6) 1.8583(5) -0.1796(2)
C53 C -0.2862(6) 1.8508(6) -0.2065(2)
H25 H -0.3498 1.8238 -0.1895
C54 C -0.2710(6) 1.8823(6) -0.2581(3)
H26 H -0.3239 1.8757 -0.2752
C55 C -0.1779(6) 1.9235(5) -0.2844(2)
C56 C -0.1000(6) 1.9310(5) -0.2586(3)
H27 H -0.0365 1.9579 -0.2759
C57 C -0.1152(6) 1.8988(6) -0.2068(2)
H28 H -0.0615 1.9044 -0.1900
C58 C -0.3692(5) 1.6239(4) -0.0208(2)
C59 C -0.1269(5) 1.8800(5) -0.0149(2)
C60 C -0.1608(6) 1.9614(5) -0.3404(2)
N1 N -0.6224(11) 1.3740(10) -0.6915(5)
N2 N 0.1083(8) 1.5676(7) -0.9728(4)
C61 C -0.563(2) 1.4291(17) -0.6746(9)
H29 H -0.4980 1.4403 -0.6951
C62 C -0.708(2) 1.3174(18) -0.6616(9)
H30 H -0.7374 1.2830 -0.6816
H31 H -0.7611 1.3613 -0.6487
H32 H -0.6849 1.2698 -0.6343
C63 C -0.5706(18) 1.3525(15) -0.7414(8)
H33 H -0.6146 1.3111 -0.7513
H34 H -0.5041 1.3187 -0.7380
H35 H -0.5604 1.4141 -0.7663
C64 C 0.0755(9) 1.6604(9) -0.9741(5)
H36 H 0.0642 1.7007 -1.0047
C65 C 0.1390(11) 1.5332(10) -1.0197(5)
H37 H 0.1599 1.4639 -1.0119
H38 H 0.1963 1.5713 -1.0405
H39 H 0.0806 1.5422 -1.0370
C66 C 0.1126(13) 1.5024(11) -0.9236(6)
H40 H 0.1366 1.4368 -0.9272
H41 H 0.0440 1.4991 -0.9035
H42 H 0.1599 1.5284 -0.9078
H43 H -0.364(3) 2.013(6) -0.444(9)
H44 H -0.348(4) 2.124(7) -0.439(9)
H45 H -0.193(14) 2.213(4) -0.404(5)
H46 H -0.112(15) 2.253(3) -0.453(5)
H47 H -0.612(14) 1.620(7) -0.4908(11)
H48 H -0.682(7) 1.676(12) -0.531(5)
H49 H -0.742(4) 1.645(6) -0.613(7)
H50 H -0.772(4) 1.534(3) -0.587(8)
H51 H 0.277(3) 1.871(8) -0.944(6)
H52 H 0.242(4) 1.765(5) -0.910(7)
H53 H -0.6987(15) 1.483(16) -0.120(3)
H54 H -0.617(6) 1.437(13) -0.159(6)
H55 H -0.395(6) 1.282(8) -0.110(8)
H56 H -0.493(14) 1.312(6) -0.139(5)
H57 H -0.366(16) 1.367(9) 0.004(4)
H58 H -0.346(16) 1.297(9) -0.034(4)
Eu1A Eu -0.47158(3) 1.46192(2) -0.415129(11)
Eu2_2 Eu 0.03064(2) 1.87534(2) 0.060600(10)
Eu2A Eu -0.03064(2) 2.12466(2) -1.060600(10)
Eu2A_2 Eu -0.03064(2) 2.12466(2) -0.060600(10)
Eu3A Eu -0.51721(3) 1.51908(2) 0.085903(11)
Eu3A_2 Eu -0.51721(3) 2.51908(2) -0.914097(11)
Eu3A_3 Eu 0.48279(3) 1.51908(2) -0.914097(11)
Tb1_2 Tb -0.11955(2) 1.02113(2) -0.445875(10)
Tb1A Tb 0.11955(2) 0.97887(2) -0.554125(10)
Tb1A_2 Tb 0.11955(2) 1.97887(2) -0.554125(10)
O1A O 0.0553(4) 2.0679(3) -0.47240(16)
O4A O -0.6246(4) 1.4094(3) -0.52898(17)
O9_2 O -0.1312(4) 2.1353(3) -0.52387(16)
O10A O -0.0188(4) 1.8731(3) -0.42219(16)
O12A O -0.3246(4) 1.4918(3) -0.14131(18)
O14A O 0.1236(4) 1.8725(3) -1.02166(16)
O15A O -0.5040(4) 1.6492(3) -0.13824(17)
O16A O -0.6129(4) 1.6133(3) -0.06686(15)
O20A O -0.6113(4) 1.3929(4) -0.02570(17)
O21A O 0.0984(4) 2.0324(3) -0.96699(17)
O22_2 O -0.1074(4) 1.8269(3) -0.97435(17)
O35 O 0.6025(5) 0.1540(5) -0.0042(2)
N3 N 0.5449(6) 0.0185(5) 0.0562(3)
C67 C 0.5402(9) 0.1128(8) 0.0337(4)
H59 H 0.4866 0.1523 0.0468
C68 C 0.4660(12) -0.0189(10) 0.0994(5)
H60 H 0.4796 -0.0887 0.1124
H61 H 0.3982 -0.0093 0.0898
H62 H 0.4679 0.0165 0.1246
C69 C 0.6257(10) -0.0479(9) 0.0428(5)
H63 H 0.6139 -0.1129 0.0646
H64 H 0.6915 -0.0249 0.0457
H65 H 0.6271 -0.0514 0.0089
O36 O 0.2188(6) 0.7487(5) 0.3448(3)
N4 N 0.2867(6) 0.7732(6) 0.2632(3)
C70 C 0.2414(9) 0.8034(8) 0.3025(4)
H66 H 0.2246 0.8711 0.2986
C71 C 0.3055(10) 0.8431(9) 0.2145(4)
H67 H 0.3398 0.8086 0.1898
H68 H 0.3492 0.8949 0.2158
H69 H 0.2400 0.8719 0.2058
C72 C 0.3216(10) 0.6691(8) 0.2685(4)
H70 H 0.3536 0.6585 0.2364
H71 H 0.2626 0.6271 0.2818
H72 H 0.3715 0.6532 0.2907
O37 O 0.8660(6) 0.3873(5) 0.5106(3)
N5 N 0.9855(6) 0.4534(5) 0.4437(3)
C73 C 0.8909(8) 0.4499(7) 0.4714(4)
H73 H 0.8407 0.4976 0.4605
C74 C 1.0062(10) 0.5340(9) 0.4001(4)
H74 H 1.0773 0.5281 0.3838
H75 H 0.9953 0.5964 0.4098
H76 H 0.9597 0.5315 0.3776
C75 C 1.0631(10) 0.3827(8) 0.4572(4)
H77 H 1.1262 0.3972 0.4331
H78 H 1.0407 0.3177 0.4582
H79 H 1.0760 0.3843 0.4896
O38 O 0.7075(14) 0.4163(13) 0.2111(6)
N6 N 0.810(3) 0.253(2) 0.2251(12)
C76 C 0.731(2) 0.311(2) 0.2452(12)
H80 H 0.6930 0.2887 0.2773
C77 C 0.860(3) 0.297(3) 0.1769(12)
H81 H 0.9148 0.2527 0.1661
H82 H 0.8891 0.3583 0.1771
H83 H 0.8103 0.3101 0.1545
C78 C 0.807(3) 0.171(2) 0.2677(12)
H84 H 0.8605 0.1219 0.2605
H85 H 0.7398 0.1408 0.2755
H86 H 0.8189 0.1938 0.2957
O39 O 0.6075(17) 0.2054(15) 0.3353(8)
N7 N 0.559(3) 0.106(3) 0.4299(14)
C79 C 0.540(3) 0.178(3) 0.3842(12)
H87 H 0.4757 0.2116 0.3866
C80 C 0.532(3) 0.144(2) 0.4734(12)
H88 H 0.4743 0.1908 0.4701
H89 H 0.5915 0.1768 0.4775
H90 H 0.5139 0.0901 0.5021
C81 C 0.655(2) 0.054(2) 0.4139(10)
H91 H 0.6589 0.0509 0.3798
H92 H 0.6566 -0.0121 0.4348
H93 H 0.7136 0.0896 0.4165
O40 O 0.6457(8) 0.5788(7) 0.2517(4)
O41 O 0.5927(8) 0.7207(7) 0.1687(4)
O42 O 0.7813(13) 0.6872(11) 0.1122(6)
Tb2? Tb -0.52842(3) 1.53808(2) -0.584871(11)
Tb3? Tb 0.03064(2) 1.87534(2) -0.939400(10)
Tb4? Tb -0.48279(3) 1.48092(2) -0.085903(11)
Eu4? Eu -0.11955(2) 2.02113(2) -0.445875(10)
loop_
_geom_bond_atom_site_label_1
_geom_bond_atom_site_label_2
_geom_bond_site_symmetry_1
_geom_bond_site_symmetry_2
Eu1 O3 1_555 1_555
Eu2 O5 1_555 1_555
Eu3 O19 1_555 1_555
Tb1 O1 1_555 1_555
O1 C13 1_555 1_555
O2 Tb1 1_555 1_555
O3 C14 1_555 1_555
O4 C14 1_555 1_555
O5 C15 1_555 1_555
O6 Eu2 1_555 1_555
O7 Eu1 1_555 1_555
O8 Eu1 1_555 1_555
O9 C29 1_555 1_555
O10 C29 1_555 1_555
O11 C30 1_555 1_555
O12 C30 1_555 1_555
O13 Eu2 1_555 1_555
O14 C43 1_555 1_555
O15 C44 1_555 1_555
O16 C44 1_555 1_555
O17 Eu1 1_555 1_555
O18 C45 1_555 1_555
O19 C58 1_555 1_555
O20 C58 1_555 1_555
O21 C59 1_555 1_555
O22 C59 1_555 1_555
O23 Tb1 1_555 1_555
O24 Tb1 1_555 1_555
O25 Tb1 1_555 1_555
O26 Tb1 1_555 1_555
O27 Eu1 1_555 1_555
O28 Eu1 1_555 1_555
O29 Eu1 1_555 1_555
O30 Eu2 1_555 1_555
O31 Eu2 1_555 1_555
O32 Eu3 1_555 1_555
O33 Eu3 1_555 1_555
O34 Eu3 1_555 1_555
C1 C2 1_555 1_555
C2 H1 1_555 1_555
C3 C2 1_555 1_555
C4 C3 1_555 1_555
H2 C4 1_555 1_555
C5 C4 1_555 1_555
C6 C1 1_555 1_555
H3 C6 1_555 1_555
C7 C5 1_555 1_555
C8 C7 1_555 1_555
H4 C8 1_555 1_555
C9 C8 1_555 1_555
H5 C9 1_555 1_555
C10 C9 1_555 1_555
C11 C10 1_555 1_555
H6 C11 1_555 1_555
C12 C7 1_555 1_555
H7 C12 1_555 1_555
C13 O2 1_555 1_555
C14 C3 1_555 1_555
C15 O6 1_555 1_555
C16 C17 1_555 1_555
C17 H8 1_555 1_555
C18 C17 1_555 1_555
C19 C18 1_555 1_555
H9 C19 1_555 1_555
C20 C19 1_555 1_555
C21 C16 1_555 1_555
H10 C21 1_555 1_555
C22 C20 1_555 1_555
C23 C22 1_555 1_555
H11 C23 1_555 1_555
C24 C23 1_555 1_555
H12 C24 1_555 1_555
C25 C24 1_555 1_555
C26 C25 1_555 1_555
H13 C26 1_555 1_555
C27 C22 1_555 1_555
H14 C27 1_555 1_555
C28 O7 1_555 1_555
C29 C18 1_555 1_555
C30 C25 1_555 1_555
C31 C32 1_555 1_555
C32 H15 1_555 1_555
C33 C32 1_555 1_555
C34 C33 1_555 1_555
H16 C34 1_555 1_555
C35 C34 1_555 1_555
C36 C31 1_555 1_555
H17 C36 1_555 1_555
C37 C35 1_555 1_555
C38 C37 1_555 1_555
H18 C38 1_555 1_555
C39 C38 1_555 1_555
H19 C39 1_555 1_555
C40 C39 1_555 1_555
C41 C40 1_555 1_555
H20 C41 1_555 1_555
C42 C37 1_555 1_555
H21 C42 1_555 1_555
C43 O13 1_555 1_555
C44 C33 1_555 1_555
C45 O17 1_555 1_555
C46 C47 1_555 1_555
C47 H22 1_555 1_555
C48 C47 1_555 1_555
C49 C48 1_555 1_555
H23 C49 1_555 1_555
C50 C49 1_555 1_555
C51 C46 1_555 1_555
H24 C51 1_555 1_555
C52 C50 1_555 1_555
C53 C52 1_555 1_555
H25 C53 1_555 1_555
C54 C53 1_555 1_555
H26 C54 1_555 1_555
C55 C54 1_555 1_555
C56 C55 1_555 1_555
H27 C56 1_555 1_555
C57 C52 1_555 1_555
H28 C57 1_555 1_555
C58 C46 1_555 1_555
C59 C48 1_555 1_555
C60 O23 1_555 1_555
N1 C61 1_555 1_555
N2 C64 1_555 1_555
C61 O27 1_555 1_555
H29 C61 1_555 1_555
C62 N1 1_555 1_555
H30 C62 1_555 1_555
H31 C62 1_555 1_555
H32 C62 1_555 1_555
C63 N1 1_555 1_555
H33 C63 1_555 1_555
H34 C63 1_555 1_555
H35 C63 1_555 1_555
C64 O30 1_555 1_555
H36 C64 1_555 1_555
C65 N2 1_555 1_555
H37 C65 1_555 1_555
H38 C65 1_555 1_555
H39 C65 1_555 1_555
C66 N2 1_555 1_555
H40 C66 1_555 1_555
H41 C66 1_555 1_555
H42 C66 1_555 1_555
H43 O25 1_555 1_555
H44 O25 1_555 1_555
H45 O26 1_555 1_555
H46 O26 1_555 1_555
H47 O28 1_555 1_555
H48 O28 1_555 1_555
H49 O29 1_555 1_555
H50 O29 1_555 1_555
H51 O31 1_555 1_555
H52 O31 1_555 1_555
H53 O32 1_555 1_555
H54 O32 1_555 1_555
H55 O33 1_555 1_555
H56 O33 1_555 1_555
H57 O34 1_555 1_555
H58 O34 1_555 1_555
O35 C67 1_555 1_555
N3 C67 1_555 1_555
C67 H59 1_555 1_555
C68 N3 1_555 1_555
H60 C68 1_555 1_555
H61 C68 1_555 1_555
H62 C68 1_555 1_555
C69 N3 1_555 1_555
H63 C69 1_555 1_555
H64 C69 1_555 1_555
H65 C69 1_555 1_555
O36 C70 1_555 1_555
N4 C70 1_555 1_555
C70 H66 1_555 1_555
C71 N4 1_555 1_555
H67 C71 1_555 1_555
H68 C71 1_555 1_555
H69 C71 1_555 1_555
C72 N4 1_555 1_555
H70 C72 1_555 1_555
H71 C72 1_555 1_555
H72 C72 1_555 1_555
O37 C73 1_555 1_555
N5 C73 1_555 1_555
C73 H73 1_555 1_555
C74 N5 1_555 1_555
H74 C74 1_555 1_555
H75 C74 1_555 1_555
H76 C74 1_555 1_555
C75 N5 1_555 1_555
H77 C75 1_555 1_555
H78 C75 1_555 1_555
H79 C75 1_555 1_555
O38 C76 1_555 1_555
N6 C76 1_555 1_555
C76 H80 1_555 1_555
C77 N6 1_555 1_555
H81 C77 1_555 1_555
H82 C77 1_555 1_555
H83 C77 1_555 1_555
C78 N6 1_555 1_555
H84 C78 1_555 1_555
H85 C78 1_555 1_555
H86 C78 1_555 1_555
O39 C79 1_555 1_555
N7 C79 1_555 1_555
C79 H87 1_555 1_555
C80 N7 1_555 1_555
H88 C80 1_555 1_555
H89 C80 1_555 1_555
H90 C80 1_555 1_555
C81 N7 1_555 1_555
H91 C81 1_555 1_555
H92 C81 1_555 1_555
H93 C81 1_555 1_555
Eu1A O4 1_555 1_555
Eu2_2 O22 1_555 1_555
Eu2A O14 1_555 1_555
Eu2A_2 O21 1_555 1_555
Eu3A O20 1_555 1_555
Eu3A_2 O15 1_555 1_555
Eu3A_3 O12 1_555 1_555
Tb1_2 O9 1_555 1_555
Tb1A O10 1_555 1_555
Tb1A_2 O1 1_555 1_555
O1A Tb1 1_555 1_555
O4A Eu1 1_555 1_555
O9_2 Tb1 1_555 1_555
O10A Tb1 1_555 1_555
O12A Eu3 1_555 1_555
O14A Eu2 1_555 1_555
O15A Eu3 1_555 1_555
O16A Eu3 1_555 1_555
O20A Eu3 1_555 1_555
O21A Eu2 1_555 1_555
O22_2 Eu2 1_555 1_555
O8 C28 1_555 1_555
O16 Eu3A_2 1_555 1_555
O24 C60 1_555 1_555
C1 C13 1_555 1_555
C5 C6 1_555 1_555
C10 C15 1_555 1_555
C11 C12 1_555 1_555
C16 C28 1_555 1_555
C20 C21 1_555 1_555
C26 C27 1_555 1_555
C31 C43 1_555 1_555
C35 C36 1_555 1_555
C40 C45 1_555 1_555
C41 C42 1_555 1_555
C50 C51 1_555 1_555
C55 C60 1_555 1_555
C56 C57 1_555 1_555
Tb1A_2 O1A 1_555 1_555

#END
