
#######################################################################
#
#                 Cambridge Crystallographic Data Centre
#                                CCDC 
#
#######################################################################
#
# If this CIF has been generated from an entry in the Cambridge 
# Structural Database, then it will include bibliographic, chemical, 
# crystal, experimental, refinement or atomic coordinate data resulting 
# from the CCDC's data processing and validation procedures.
#
#######################################################################

data_NUHQOY
_symmetry_cell_setting           triclinic
_symmetry_space_group_name_H-M   'P -1'
_symmetry_Int_Tables_number      2
_space_group_name_Hall           '-P 1'
loop_
_symmetry_equiv_pos_site_id
_symmetry_equiv_pos_as_xyz
1 x,y,z
2 -x,-y,-z
_cell_length_a                   13.006(3)
_cell_length_b                   13.821(3)
_cell_length_c                   27.982(6)
_cell_angle_alpha                75.67(3)
_cell_angle_beta                 79.35(3)
_cell_angle_gamma                85.62(3)
_cell_volume                     4787
loop_
_atom_site_label
_atom_site_type_symbol
_atom_site_fract_x
_atom_site_fract_y
_atom_site_fract_z
Tb1 Tb -0.11972(2) 2.02118(2) -0.445945(10)
Eu1 Eu -0.52855(2) 1.53782(2) -0.584917(10)
Tb2 Tb 0.03068(2) 1.87524(2) -0.939496(10)
Eu2 Eu -0.48291(2) 1.48078(2) -0.085854(10)
O1 O -0.0543(4) 1.9320(3) -0.52785(16)
O2 O -0.2009(4) 1.8990(4) -0.47411(16)
O3 O -0.4003(4) 1.5673(4) -0.54330(19)
O4 O -0.3762(4) 1.5906(3) -0.47122(16)
O5 O 0.0452(4) 1.8896(4) -0.85553(17)
O6 O -0.0687(4) 1.7858(3) -0.85913(16)
O7 O -0.3601(4) 1.5169(3) -0.64192(17)
O8 O -0.4045(3) 1.3925(3) -0.57646(16)
O9 O -0.1313(4) 1.1351(3) -0.52411(15)
O10 O 0.0188(4) 1.1266(3) -0.57754(16)
O11 O 0.2599(4) 1.6593(4) -0.85308(18)
O12 O 0.3257(4) 1.5080(4) -0.85847(18)
O13 O -0.1109(4) 1.9836(3) -0.92243(16)
O14 O -0.1241(4) 2.1273(3) -0.97848(15)
O15 O -0.4959(4) 2.3511(3) -0.86167(17)
O16 O -0.3876(4) 2.3872(3) -0.93319(15)
O17 O -0.5095(4) 1.6942(3) -0.63682(17)
O18 O -0.5561(5) 1.8144(4) -0.5970(2)
O19 O -0.4024(4) 1.5720(3) -0.04520(18)
O20 O -0.3887(4) 1.6070(3) 0.02558(17)
O21 O -0.0988(4) 1.9679(3) -0.03281(17)
O22 O -0.1062(4) 1.8267(3) 0.02536(17)
O23 O -0.2217(4) 1.9354(5) -0.36484(18)
O24 O -0.0870(4) 2.0176(4) -0.36163(16)
O25 O -0.3083(5) 2.0604(5) -0.4443(3)
O26 O -0.1437(6) 2.1880(4) -0.43138(19)
O27 O -0.5726(5) 1.4618(5) -0.6439(2)
O28 O -0.6099(4) 1.6429(4) -0.52784(17)
O29 O -0.7133(4) 1.5816(4) -0.5927(2)
O30 O 0.0586(5) 1.6999(4) -0.9366(2)
O31 O 0.2118(4) 1.8324(4) -0.92598(19)
O32 O -0.6227(6) 1.4760(5) -0.1330(3)
O33 O -0.4639(4) 1.3215(4) -0.1098(2)
O34 O -0.3817(4) 1.3621(3) -0.02961(17)
C1 C -0.1747(5) 1.8229(4) -0.5427(2)
C2 C -0.2493(5) 1.7525(4) -0.5185(2)
H1 H -0.2757 1.7451 -0.4846
C3 C -0.2842(5) 1.6931(4) -0.5451(2)
C4 C -0.2480(5) 1.7058(5) -0.5955(2)
H2 H -0.2741 1.6671 -0.6132
C5 C -0.1716(5) 1.7766(5) -0.6209(2)
C6 C -0.1344(5) 1.8335(5) -0.5933(2)
H3 H -0.0822 1.8789 -0.6089
C7 C -0.1339(6) 1.7888(5) -0.6756(2)
C8 C -0.0379(7) 1.8334(7) -0.6988(3)
H4 H 0.0034 1.8551 -0.6799
C9 C -0.0051(7) 1.8449(7) -0.7499(3)
H5 H 0.0587 1.8740 -0.7647
C10 C -0.0635(6) 1.8148(5) -0.7792(2)
C11 C -0.1533(6) 1.7629(6) -0.7557(3)
H6 H -0.1908 1.7355 -0.7741
C12 C -0.1872(6) 1.7520(6) -0.7048(3)
H7 H -0.2486 1.7184 -0.6899
C13 C -0.1402(5) 1.8887(5) -0.5133(2)
C14 C -0.3598(5) 1.6126(4) -0.5178(2)
C15 C -0.0264(6) 1.8305(5) -0.8346(2)
C16 C -0.2343(5) 1.3835(5) -0.6251(2)
C17 C -0.2043(5) 1.2985(5) -0.5922(2)
H8 H -0.2499 1.2715 -0.5629
C18 C -0.1056(5) 1.2529(5) -0.6027(2)
C19 C -0.0387(5) 1.2931(5) -0.6461(2)
H9 H 0.0266 1.2623 -0.6531
C20 C -0.0670(6) 1.3793(5) -0.6800(2)
C21 C -0.1647(5) 1.4230(5) -0.6685(2)
H10 H -0.1845 1.4806 -0.6905
C22 C 0.0110(5) 1.4264(5) -0.7247(2)
C23 C 0.0166(6) 1.5294(6) -0.7401(3)
H11 H -0.0319 1.5689 -0.7240
C24 C 0.0929(6) 1.5750(6) -0.7792(3)
H12 H 0.0942 1.6443 -0.7894
C25 C 0.1670(5) 1.5173(5) -0.8029(2)
C26 C 0.1594(6) 1.4147(5) -0.7889(3)
H13 H 0.2067 1.3750 -0.8056
C27 C 0.0818(6) 1.3700(6) -0.7503(3)
H14 H 0.0776 1.3008 -0.7415
C28 C -0.3389(5) 1.4329(5) -0.6143(2)
C29 C -0.0704(5) 1.1629(5) -0.5647(2)
C30 C 0.2559(5) 1.5661(5) -0.8410(2)
C31 C -0.2380(5) 2.1027(4) -0.8999(2)
C32 C -0.2852(5) 2.1969(4) -0.9121(2)
H15 H -0.2618 2.2404 -0.9427
C33 C -0.3673(5) 2.2268(5) -0.8789(2)
C34 C -0.4017(5) 2.1617(5) -0.8334(2)
H16 H -0.4561 2.1823 -0.8111
C35 C -0.3571(5) 2.0665(5) -0.8203(2)
C36 C -0.2740(5) 2.0387(5) -0.8544(2)
H17 H -0.2422 1.9756 -0.8462
C37 C -0.3993(6) 1.9961(5) -0.7726(2)
C38 C -0.4003(6) 1.8949(5) -0.7702(3)
H18 H -0.3734 1.8714 -0.7985
C39 C -0.4409(6) 1.8278(5) -0.7260(3)
H19 H -0.4416 1.7603 -0.7253
C40 C -0.4802(6) 1.8601(5) -0.6831(2)
C41 C -0.4787(7) 1.9605(5) -0.6844(3)
H20 H -0.5041 1.9833 -0.6557
C42 C -0.4390(7) 2.0274(5) -0.7290(3)
H21 H -0.4389 2.0950 -0.7296
C43 C -0.1509(5) 2.0684(4) -0.9360(2)
C44 C -0.4198(5) 2.3280(5) -0.8919(2)
C45 C -0.5192(6) 1.7848(5) -0.6349(2)
C46 C -0.3000(5) 1.7080(4) -0.0480(2)
C47 C -0.2482(5) 1.7534(4) -0.0210(2)
H22 H -0.2553 1.7295 0.0136
C48 C -0.1853(5) 1.8344(4) -0.0449(2)
C49 C -0.1764(5) 1.8700(5) -0.0960(2)
H23 H -0.1374 1.9263 -0.1118
C50 C -0.2246(5) 1.8233(5) -0.1246(2)
C51 C -0.2871(5) 1.7427(5) -0.1002(2)
H24 H -0.3207 1.7114 -0.1185
C52 C -0.2096(6) 1.8589(5) -0.1800(2)
C53 C -0.2857(6) 1.8509(6) -0.2068(2)
H25 H -0.3488 1.8226 -0.1898
C54 C -0.2716(6) 1.8833(6) -0.2582(2)
H26 H -0.3251 1.8776 -0.2751
C55 C -0.1783(6) 1.9243(5) -0.2846(2)
C56 C -0.1002(6) 1.9316(5) -0.2591(2)
H27 H -0.0363 1.9575 -0.2765
C57 C -0.1159(6) 1.9001(6) -0.2067(2)
H28 H -0.0630 1.9070 -0.1897
C58 C -0.3696(5) 1.6234(4) -0.0211(2)
C59 C -0.1270(5) 1.8801(4) -0.0153(2)
C60 C -0.1613(6) 1.9611(5) -0.3407(2)
N1 N -0.6198(11) 1.3724(10) -0.6928(5)
N2 N 0.1089(7) 1.5665(7) -0.9726(3)
C61 C -0.564(2) 1.4266(17) -0.6735(9)
H29 H -0.4971 1.4356 -0.6923
C62 C -0.702(2) 1.3151(19) -0.6589(10)
H30 H -0.7348 1.2783 -0.6766
H31 H -0.7529 1.3592 -0.6450
H32 H -0.6733 1.2694 -0.6324
C63 C -0.5716(17) 1.3535(15) -0.7431(8)
H33 H -0.6163 1.3121 -0.7526
H34 H -0.5044 1.3204 -0.7410
H35 H -0.5635 1.4160 -0.7676
C64 C 0.0771(9) 1.6618(8) -0.9748(4)
H36 H 0.0680 1.7025 -1.0057
C65 C 0.1389(11) 1.5333(10) -1.0198(5)
H37 H 0.1600 1.4638 -1.0123
H38 H 0.1959 1.5718 -1.0406
H39 H 0.0802 1.5425 -1.0370
C66 C 0.1146(12) 1.5013(11) -0.9241(6)
H40 H 0.1387 1.4359 -0.9279
H41 H 0.0465 1.4975 -0.9036
H42 H 0.1625 1.5274 -0.9084
H43 H -0.364(3) 2.012(6) -0.445(8)
H44 H -0.352(4) 2.115(10) -0.431(8)
H45 H -0.192(15) 2.213(4) -0.403(5)
H46 H -0.105(14) 2.252(5) -0.451(6)
H47 H -0.665(11) 1.618(5) -0.498(4)
H48 H -0.625(15) 1.716(3) -0.5406(19)
H49 H -0.744(4) 1.649(5) -0.609(8)
H50 H -0.772(4) 1.535(3) -0.587(8)
H51 H 0.278(2) 1.867(10) -0.946(6)
H52 H 0.241(4) 1.766(6) -0.908(7)
H53 H -0.697(3) 1.496(15) -0.123(5)
H54 H -0.622(8) 1.429(11) -0.155(6)
H55 H -0.398(7) 1.278(8) -0.108(7)
H56 H -0.490(15) 1.312(5) -0.140(5)
H57 H -0.357(15) 1.372(6) 0.001(5)
H58 H -0.368(15) 1.288(4) -0.027(6)
Tb1_2 Tb -0.11972(2) 1.02118(2) -0.445945(10)
Tb1A Tb 0.11972(2) 0.97882(2) -0.554055(10)
Tb1A_2 Tb 0.11972(2) 1.97882(2) -0.554055(10)
Eu1A Eu -0.47145(2) 1.46218(2) -0.415083(10)
Tb2_2 Tb 0.03068(2) 1.87524(2) 0.060504(10)
Tb2A Tb -0.03068(2) 2.12476(2) -1.060504(10)
Tb2A_2 Tb -0.03068(2) 2.12476(2) -0.060504(10)
Eu2A Eu -0.51709(2) 1.51922(2) 0.085854(10)
Eu2A_2 Eu -0.51709(2) 2.51922(2) -0.914146(10)
Eu2A_3 Eu 0.48291(2) 1.51922(2) -0.914146(10)
O1A O 0.0543(4) 2.0680(3) -0.47215(16)
O4A O -0.6238(4) 1.4094(3) -0.52878(16)
O9_2 O -0.1313(4) 2.1351(3) -0.52411(15)
O10A O -0.0188(4) 1.8734(3) -0.42246(16)
O12A O -0.3257(4) 1.4920(4) -0.14153(18)
O14A O 0.1241(4) 1.8727(3) -1.02152(15)
O15A O -0.5041(4) 1.6489(3) -0.13833(17)
O16A O -0.6124(4) 1.6128(3) -0.06681(15)
O20A O -0.6113(4) 1.3930(3) -0.02558(17)
O21A O 0.0988(4) 2.0321(3) -0.96719(17)
O22_2 O -0.1062(4) 1.8267(3) -0.97464(17)
O35 O 0.6030(5) 0.1529(5) -0.0040(2)
N3 N 0.5442(6) 0.0177(5) 0.0565(3)
C67 C 0.5395(9) 0.1139(8) 0.0334(4)
H59 H 0.4859 0.1540 0.0460
C68 C 0.4647(11) -0.0189(10) 0.0996(5)
H60 H 0.4777 -0.0889 0.1129
H61 H 0.3970 -0.0090 0.0898
H62 H 0.4667 0.0168 0.1248
C69 C 0.6258(10) -0.0492(9) 0.0421(5)
H63 H 0.6146 -0.1146 0.0638
H64 H 0.6919 -0.0261 0.0446
H65 H 0.6261 -0.0522 0.0081
O36 O 0.2176(6) 0.7490(5) 0.3446(3)
N4 N 0.2864(6) 0.7729(6) 0.2629(3)
C70 C 0.2424(8) 0.8040(8) 0.3027(4)
H66 H 0.2289 0.8723 0.2990
C71 C 0.3081(10) 0.8437(9) 0.2139(4)
H67 H 0.3424 0.8088 0.1893
H68 H 0.3527 0.8945 0.2156
H69 H 0.2436 0.8740 0.2045
C72 C 0.3213(10) 0.6679(8) 0.2678(4)
H70 H 0.3533 0.6579 0.2355
H71 H 0.2622 0.6258 0.2809
H72 H 0.3713 0.6513 0.2901
O37 O 0.8654(6) 0.3866(5) 0.5109(3)
N5 N 0.9852(6) 0.4541(5) 0.4433(3)
C73 C 0.8918(8) 0.4494(7) 0.4714(4)
H73 H 0.8416 0.4973 0.4607
C74 C 1.0070(10) 0.5342(9) 0.3990(4)
H74 H 1.0782 0.5276 0.3830
H75 H 0.9964 0.5972 0.4081
H76 H 0.9609 0.5312 0.3763
C75 C 1.0637(9) 0.3816(8) 0.4564(4)
H77 H 1.1266 0.3964 0.4322
H78 H 1.0409 0.3168 0.4569
H79 H 1.0772 0.3821 0.4889
O38 O 0.7068(12) 0.4129(12) 0.2112(6)
N6 N 0.808(2) 0.252(2) 0.2257(11)
C76 C 0.728(2) 0.310(2) 0.2455(12)
H80 H 0.6890 0.2885 0.2774
C77 C 0.859(3) 0.292(2) 0.1776(12)
H81 H 0.9136 0.2461 0.1681
H82 H 0.8899 0.3540 0.1767
H83 H 0.8106 0.3046 0.1548
C78 C 0.805(3) 0.169(2) 0.2675(12)
H84 H 0.8591 0.1208 0.2598
H85 H 0.7382 0.1389 0.2747
H86 H 0.8168 0.1907 0.2960
O39 O 0.6115(19) 0.2065(16) 0.3339(9)
N7 N 0.560(3) 0.115(3) 0.4253(13)
C79 C 0.540(3) 0.187(3) 0.3802(12)
H87 H 0.4761 0.2229 0.3816
C80 C 0.529(3) 0.145(2) 0.4713(11)
H88 H 0.4709 0.1920 0.4684
H89 H 0.5865 0.1756 0.4783
H90 H 0.5087 0.0876 0.4979
C81 C 0.654(2) 0.057(2) 0.4117(11)
H91 H 0.6592 0.0523 0.3776
H92 H 0.6498 -0.0093 0.4333
H93 H 0.7141 0.0884 0.4152
O40 O 0.6449(8) 0.5802(7) 0.2514(4)
O41 O 0.5949(8) 0.7219(8) 0.1684(4)
O42 O 0.7829(13) 0.6879(12) 0.1110(6)
Eu3? Eu -0.11972(2) 2.02118(2) -0.445945(10)
Tb3? Tb -0.52855(2) 1.53782(2) -0.584917(10)
Eu4? Eu 0.03068(2) 1.87524(2) -0.939496(10)
Tb4? Tb -0.48291(2) 1.48078(2) -0.085854(10)
loop_
_geom_bond_atom_site_label_1
_geom_bond_atom_site_label_2
_geom_bond_site_symmetry_1
_geom_bond_site_symmetry_2
Tb1 O1 1_555 1_555
Eu1 O3 1_555 1_555
Tb2 O5 1_555 1_555
Eu2 O19 1_555 1_555
O1 C13 1_555 1_555
O2 Tb1 1_555 1_555
O3 C14 1_555 1_555
O4 C14 1_555 1_555
O5 C15 1_555 1_555
O6 Tb2 1_555 1_555
O7 Eu1 1_555 1_555
O8 Eu1 1_555 1_555
O9 C29 1_555 1_555
O10 C29 1_555 1_555
O11 C30 1_555 1_555
O12 C30 1_555 1_555
O13 Tb2 1_555 1_555
O14 C43 1_555 1_555
O15 C44 1_555 1_555
O16 C44 1_555 1_555
O17 Eu1 1_555 1_555
O18 C45 1_555 1_555
O19 C58 1_555 1_555
O20 C58 1_555 1_555
O21 C59 1_555 1_555
O22 C59 1_555 1_555
O23 Tb1 1_555 1_555
O24 Tb1 1_555 1_555
O25 Tb1 1_555 1_555
O26 Tb1 1_555 1_555
O27 Eu1 1_555 1_555
O28 Eu1 1_555 1_555
O29 Eu1 1_555 1_555
O30 Tb2 1_555 1_555
O31 Tb2 1_555 1_555
O32 Eu2 1_555 1_555
O33 Eu2 1_555 1_555
O34 Eu2 1_555 1_555
C1 C2 1_555 1_555
C2 H1 1_555 1_555
C3 C2 1_555 1_555
C4 C3 1_555 1_555
H2 C4 1_555 1_555
C5 C4 1_555 1_555
C6 C1 1_555 1_555
H3 C6 1_555 1_555
C7 C5 1_555 1_555
C8 C7 1_555 1_555
H4 C8 1_555 1_555
C9 C8 1_555 1_555
H5 C9 1_555 1_555
C10 C9 1_555 1_555
C11 C10 1_555 1_555
H6 C11 1_555 1_555
C12 C7 1_555 1_555
H7 C12 1_555 1_555
C13 O2 1_555 1_555
C14 C3 1_555 1_555
C15 O6 1_555 1_555
C16 C17 1_555 1_555
C17 H8 1_555 1_555
C18 C17 1_555 1_555
C19 C18 1_555 1_555
H9 C19 1_555 1_555
C20 C19 1_555 1_555
C21 C16 1_555 1_555
H10 C21 1_555 1_555
C22 C20 1_555 1_555
C23 C22 1_555 1_555
H11 C23 1_555 1_555
C24 C23 1_555 1_555
H12 C24 1_555 1_555
C25 C24 1_555 1_555
C26 C25 1_555 1_555
H13 C26 1_555 1_555
C27 C22 1_555 1_555
H14 C27 1_555 1_555
C28 O7 1_555 1_555
C29 C18 1_555 1_555
C30 C25 1_555 1_555
C31 C32 1_555 1_555
C32 H15 1_555 1_555
C33 C32 1_555 1_555
C34 C33 1_555 1_555
H16 C34 1_555 1_555
C35 C34 1_555 1_555
C36 C31 1_555 1_555
H17 C36 1_555 1_555
C37 C35 1_555 1_555
C38 C37 1_555 1_555
H18 C38 1_555 1_555
C39 C38 1_555 1_555
H19 C39 1_555 1_555
C40 C39 1_555 1_555
C41 C40 1_555 1_555
H20 C41 1_555 1_555
C42 C37 1_555 1_555
H21 C42 1_555 1_555
C43 O13 1_555 1_555
C44 C33 1_555 1_555
C45 O17 1_555 1_555
C46 C47 1_555 1_555
C47 H22 1_555 1_555
C48 C47 1_555 1_555
C49 C48 1_555 1_555
H23 C49 1_555 1_555
C50 C49 1_555 1_555
C51 C46 1_555 1_555
H24 C51 1_555 1_555
C52 C50 1_555 1_555
C53 C52 1_555 1_555
H25 C53 1_555 1_555
C54 C53 1_555 1_555
H26 C54 1_555 1_555
C55 C54 1_555 1_555
C56 C55 1_555 1_555
H27 C56 1_555 1_555
C57 C52 1_555 1_555
H28 C57 1_555 1_555
C58 C46 1_555 1_555
C59 C48 1_555 1_555
C60 O23 1_555 1_555
N1 C61 1_555 1_555
N2 C64 1_555 1_555
C61 O27 1_555 1_555
H29 C61 1_555 1_555
C62 N1 1_555 1_555
H30 C62 1_555 1_555
H31 C62 1_555 1_555
H32 C62 1_555 1_555
C63 N1 1_555 1_555
H33 C63 1_555 1_555
H34 C63 1_555 1_555
H35 C63 1_555 1_555
C64 O30 1_555 1_555
H36 C64 1_555 1_555
C65 N2 1_555 1_555
H37 C65 1_555 1_555
H38 C65 1_555 1_555
H39 C65 1_555 1_555
C66 N2 1_555 1_555
H40 C66 1_555 1_555
H41 C66 1_555 1_555
H42 C66 1_555 1_555
H43 O25 1_555 1_555
H44 O25 1_555 1_555
H45 O26 1_555 1_555
H46 O26 1_555 1_555
H47 O28 1_555 1_555
H48 O28 1_555 1_555
H49 O29 1_555 1_555
H50 O29 1_555 1_555
H51 O31 1_555 1_555
H52 O31 1_555 1_555
H53 O32 1_555 1_555
H54 O32 1_555 1_555
H55 O33 1_555 1_555
H56 O33 1_555 1_555
H57 O34 1_555 1_555
H58 O34 1_555 1_555
O35 C67 1_555 1_555
N3 C67 1_555 1_555
C67 H59 1_555 1_555
C68 N3 1_555 1_555
H60 C68 1_555 1_555
H61 C68 1_555 1_555
H62 C68 1_555 1_555
C69 N3 1_555 1_555
H63 C69 1_555 1_555
H64 C69 1_555 1_555
H65 C69 1_555 1_555
O36 C70 1_555 1_555
N4 C70 1_555 1_555
C70 H66 1_555 1_555
C71 N4 1_555 1_555
H67 C71 1_555 1_555
H68 C71 1_555 1_555
H69 C71 1_555 1_555
C72 N4 1_555 1_555
H70 C72 1_555 1_555
H71 C72 1_555 1_555
H72 C72 1_555 1_555
O37 C73 1_555 1_555
N5 C73 1_555 1_555
C73 H73 1_555 1_555
C74 N5 1_555 1_555
H74 C74 1_555 1_555
H75 C74 1_555 1_555
H76 C74 1_555 1_555
C75 N5 1_555 1_555
H77 C75 1_555 1_555
H78 C75 1_555 1_555
H79 C75 1_555 1_555
O38 C76 1_555 1_555
N6 C76 1_555 1_555
C76 H80 1_555 1_555
C77 N6 1_555 1_555
H81 C77 1_555 1_555
H82 C77 1_555 1_555
H83 C77 1_555 1_555
C78 N6 1_555 1_555
H84 C78 1_555 1_555
H85 C78 1_555 1_555
H86 C78 1_555 1_555
O39 C79 1_555 1_555
N7 C79 1_555 1_555
C79 H87 1_555 1_555
C80 N7 1_555 1_555
H88 C80 1_555 1_555
H89 C80 1_555 1_555
H90 C80 1_555 1_555
C81 N7 1_555 1_555
H91 C81 1_555 1_555
H92 C81 1_555 1_555
H93 C81 1_555 1_555
Tb1_2 O9 1_555 1_555
Tb1A O10 1_555 1_555
Tb1A_2 O1 1_555 1_555
Eu1A O4 1_555 1_555
Tb2_2 O22 1_555 1_555
Tb2A O14 1_555 1_555
Tb2A_2 O21 1_555 1_555
Eu2A O20 1_555 1_555
Eu2A_2 O15 1_555 1_555
Eu2A_3 O12 1_555 1_555
O1A Tb1 1_555 1_555
O4A Eu1 1_555 1_555
O9_2 Tb1 1_555 1_555
O10A Tb1 1_555 1_555
O12A Eu2 1_555 1_555
O14A Tb2 1_555 1_555
O15A Eu2 1_555 1_555
O16A Eu2 1_555 1_555
O20A Eu2 1_555 1_555
O21A Tb2 1_555 1_555
O22_2 Tb2 1_555 1_555
O8 C28 1_555 1_555
O16 Eu2A_2 1_555 1_555
O24 C60 1_555 1_555
C1 C13 1_555 1_555
C5 C6 1_555 1_555
C10 C15 1_555 1_555
C11 C12 1_555 1_555
C16 C28 1_555 1_555
C20 C21 1_555 1_555
C26 C27 1_555 1_555
C31 C43 1_555 1_555
C35 C36 1_555 1_555
C40 C45 1_555 1_555
C41 C42 1_555 1_555
C50 C51 1_555 1_555
C55 C60 1_555 1_555
C56 C57 1_555 1_555
Tb1A_2 O1A 1_555 1_555

#END
