
#######################################################################
#
#                 Cambridge Crystallographic Data Centre
#                                CCDC 
#
#######################################################################
#
# If this CIF has been generated from an entry in the Cambridge 
# Structural Database, then it will include bibliographic, chemical, 
# crystal, experimental, refinement or atomic coordinate data resulting 
# from the CCDC's data processing and validation procedures.
#
#######################################################################

data_OBEDII
_symmetry_cell_setting           triclinic
_symmetry_space_group_name_H-M   'P -1'
_symmetry_Int_Tables_number      2
_space_group_name_Hall           '-P 1'
loop_
_symmetry_equiv_pos_site_id
_symmetry_equiv_pos_as_xyz
1 x,y,z
2 -x,-y,-z
_cell_length_a                   14.4951(2)
_cell_length_b                   16.59540(10)
_cell_length_c                   17.03870(10)
_cell_angle_alpha                84.3600(10)
_cell_angle_beta                 79.7280(10)
_cell_angle_gamma                73.1180(10)
_cell_volume                     3854.49
loop_
_atom_site_label
_atom_site_type_symbol
_atom_site_fract_x
_atom_site_fract_y
_atom_site_fract_z
Ag1 Ag 0.1031(1) 0.9207(1) 0.1207(1)
C1 C 0.1463(8) 0.7346(7) 0.9162(7)
C2 C 0.1335(9) 0.5960(8) 0.8894(8)
O1 O 0.1403(7) 0.5617(6) 0.7572(6)
C4 C 0.1532(9) 0.7545(9) 0.8323(8)
C5 C 0.1392(9) 0.6527(8) 0.9444(8)
N1 N 0.1537(10) 0.8633(9) 0.2359(9)
C6 C 0.1246(10) 0.5142(9) 0.9180(8)
C7 C 0.1213(10) 0.4453(9) 0.9437(8)
C9 C 0.1511(9) 0.6996(8) 0.7769(8)
N2 N 0.1047(10) 0.0531(10) 1.0812(9)
C14 C 0.1596(10) 0.7409(9) 0.6278(10)
C17 C 0.1033(11) 0.1204(11) 1.0555(10)
C19 C 0.0957(10) 0.3098(9) 0.9236(9)
C21 C 0.1470(9) 0.7916(9) 0.9705(9)
C22 C 0.1595(10) 0.7654(9) 0.5445(9)
C23 C 0.1517(11) 0.8155(9) 0.3852(10)
C24 C 0.1588(10) 0.7211(9) 0.6979(10)
C25 C 0.1383(9) 0.6193(8) 0.8088(8)
C26 C 0.1342(10) 0.3325(9) 1.0467(9)
C30 C 0.1152(10) 0.3623(9) 0.9724(9)
N5 N 0.1456(9) 0.8373(8) 1.0155(8)
C34 C 0.1275(11) 0.2543(10) 1.0796(10)
C37 C 0.1977(11) 0.8286(10) 0.5107(11)
C39 C 0.1971(12) 0.8530(10) 0.4292(10)
C40 C 0.1081(10) 0.2058(9) 1.0294(9)
C41 C 0.1153(12) 0.7522(10) 0.4183(11)
C43 C 0.1182(12) 0.7307(10) 0.4987(11)
C44 C 0.0920(10) 0.2304(9) 0.9550(9)
C50 C 0.1523(12) 0.8413(10) 0.3029(11)
C51 C 0.0540(16) 0.5595(14) 0.7459(14)
O6 O -0.0657(10) 0.9156(11) 0.1627(11)
S2 S -0.1406(5) 0.9744(4) 0.2046(3)
O7 O -0.2255(15) 1.0090(20) 0.1883(15)
F4 F -0.2245(15) 0.9954(15) 0.3481(9)
F5 F -0.0848(14) 0.9038(19) 0.3335(11)
O8 O -0.0925(18) 1.0350(14) 0.2405(17)
F6 F -0.2030(20) 0.8729(14) 0.3033(16)
C54 C -0.1662(17) 0.9380(14) 0.3059(17)
H1 H 0.1597 0.8087 0.8133
H2 H 0.1384 0.6361 0.9994
H6 H 0.0852 0.3274 0.8704
H7 H 0.1532 0.3674 1.0780
H8 H 0.1359 0.2364 1.1332
H10 H 0.2252 0.8567 0.5424
H12 H 0.2275 0.8948 0.4050
H13 H 0.0882 0.7229 0.3874
H15 H 0.0886 0.6882 0.5225
H16 H 0.0777 0.1930 0.9231
H22 H 0.0615 0.5165 0.7078
H23 H 0.0189 0.6147 0.7245
H24 H 0.0169 0.5456 0.7968
N2_2 N 0.1047(10) 1.0531(10) 0.0812(9)
N5_2 N 0.1456(9) 0.8373(8) 0.0155(8)
Ag1_2 Ag 0.1031(1) -0.0793(1) 1.1207(1)
Ag1_3 Ag 0.1031(1) 0.9207(1) 1.1207(1)
Ag2 Ag 0.3337(1) 0.7186(1) 0.1244(1)
C3 C 0.3868(9) 0.5263(8) 0.9184(8)
O2 O 0.3850(8) 0.3631(6) 0.7522(7)
C8 C 0.3876(9) 0.4982(8) 0.7822(8)
N3 N 0.3779(10) 0.6802(8) 0.2428(9)
N4 N 0.3838(9) 0.6297(9) 1.0202(9)
C10 C 0.3853(9) 0.4436(8) 0.9424(8)
C11 C 0.3879(10) 0.5250(8) 0.6996(9)
C12 C 0.3850(9) 0.3900(8) 0.8891(8)
C13 C 0.3908(9) 0.5537(9) 0.8370(8)
C15 C 0.3832(10) 0.4165(8) 0.8082(9)
C16 C 0.3897(11) 0.5509(9) 0.6332(10)
C18 C 0.3400(12) 0.5720(11) 0.4229(11)
C20 C 0.3847(10) 0.5837(9) 0.9750(9)
C27 C 0.3838(11) 0.6334(9) 0.3893(10)
C28 C 0.3909(11) 0.5787(9) 0.5480(10)
C29 C 0.3810(10) 0.3042(10) 0.9140(9)
C31 C 0.3751(9) 0.1504(8) 0.9685(8)
C32 C 0.3817(11) 0.6592(10) 0.3096(11)
C33 C 0.3608(10) -0.0056(9) 1.0233(9)
C35 C 0.3536(11) -0.0878(11) 1.0521(10)
C36 C 0.3354(10) 0.0237(9) 0.9504(9)
C38 C 0.3883(10) 0.0404(9) 1.0703(10)
N6 N 0.3466(9) -0.1533(9) 1.0756(8)
C42 C 0.3427(11) 0.1046(10) 0.9225(10)
C45 C 0.3797(11) 0.2376(10) 0.9392(9)
C46 C 0.4346(12) 0.6376(11) 0.5152(11)
C47 C 0.3965(10) 0.1178(10) 1.0410(10)
C48 C 0.2998(16) 0.3565(14) 0.7361(14)
C49 C 0.3432(13) 0.5465(11) 0.5027(11)
C52 C 0.4336(13) 0.6611(11) 0.4339(11)
S1 S 0.1481(5) 0.6121(4) 0.2097(4)
O3 O 0.1861(10) 0.6648(7) 0.1531(8)
O4 O 0.0524(13) 0.6008(14) 0.2146(17)
F1 F 0.3080(30) 0.5110(20) 0.2100(30)
O5 O 0.1745(19) 0.6155(16) 0.2876(10)
F2 F 0.1985(12) 0.4498(8) 0.2356(10)
F3 F 0.2190(20) 0.4989(11) 0.1153(17)
C53 C 0.2550(60) 0.5130(30) 0.1880(30)
H3 H 0.3845 0.4255 0.9971
H4 H 0.3955 0.6089 0.8201
H5 H 0.3080 0.5474 0.3919
H9 H 0.3134 -0.0095 0.9194
H11 H 0.4017 0.0197 1.1223
H14 H 0.3252 0.1273 0.8721
H17 H 0.4655 0.6631 0.5465
H18 H 0.4182 0.1503 1.0729
H19 H 0.3129 0.3163 0.6942
H20 H 0.2634 0.3366 0.7845
H21 H 0.3112 0.5054 0.5263
H25 H 0.4703 0.6985 0.4095
N4_2 N 0.3838(9) 0.6297(9) 0.0202(9)
N6_2 N 0.3466(9) 0.8467(9) 0.0756(8)
Ag2_2 Ag 0.3337(1) 0.7186(1) 1.1244(1)
Ag2_3 Ag 0.3337(1) -0.2814(1) 1.1244(1)
C55 C 0.6020(30) 0.2000(20) 0.1600(20)
C56 C 0.4360(20) 0.2820(20) 0.1910(30)
C57 C 0.5160(40) 0.2450(20) 0.1355(18)
C58 C 0.6099(19) 0.1931(17) 0.2400(20)
C59 C 0.5320(30) 0.2350(30) 0.2947(16)
C60 C 0.4430(20) 0.2720(20) 0.2710(30)
H26 H 0.6561 0.1733 0.1224
H27 H 0.3767 0.3134 0.1732
H28 H 0.5107 0.2502 0.0803
H29 H 0.6687 0.1599 0.2576
H30 H 0.5403 0.2376 0.3484
H31 H 0.3859 0.2914 0.3090
C61 C 0.3950(40) 0.9300(30) 0.2760(30)
C62 C 0.4940(40) 0.8810(20) 0.2630(20)
C63 C 0.3690(20) 0.9890(20) 0.3390(30)
C64 C 0.5555(19) 0.8780(20) 0.3190(30)
C65 C 0.4190(40) 0.9650(30) 0.4080(20)
C66 C 0.5180(40) 0.9140(30) 0.3950(30)
H32 H 0.3490 0.9249 0.2453
H33 H 0.5194 0.8506 0.2156
H34 H 0.3203 1.0408 0.3354
H35 H 0.6234 0.8501 0.3071
H36 H 0.3864 0.9820 0.4593
H37 H 0.5571 0.9054 0.4357
C67 C -0.0603(15) 0.9274(14) -0.3738(19)
C68 C -0.0914(16) 0.9157(14) -0.4422(13)
C69 C -0.0800(20) 0.8820(19) -0.3042(15)
C70 C -0.1427(18) 0.8579(18) -0.4404(15)
C71 C -0.1560(20) 0.8078(15) -0.3730(20)
C72 C -0.1380(30) 0.8290(20) -0.3017(16)
H38 H -0.0246 0.9674 -0.3746
H39 H -0.0775 0.9473 -0.4902
H40 H -0.0543 0.8874 -0.2582
H41 H -0.1694 0.8526 -0.4860
H42 H -0.1764 0.7590 -0.3750
H43 H -0.1650 0.8069 -0.2521
C73 C 0.1390(30) 0.3310(20) 0.5963(17)
C74 C 0.2822(19) 0.3170(30) 0.4960(30)
C75 C 0.2260(30) 0.3800(30) 0.4477(17)
C76 C 0.2350(30) 0.2860(20) 0.5660(30)
C77 C 0.1330(30) 0.4270(20) 0.4790(30)
C78 C 0.0845(17) 0.3940(30) 0.5480(30)
H44 H 0.1110 0.3193 0.6494
H45 H 0.3509 0.2966 0.4809
H46 H 0.2525 0.3893 0.3935
H47 H 0.2674 0.2353 0.5930
H48 H 0.1027 0.4802 0.4553
H49 H 0.0155 0.4131 0.5623
loop_
_geom_bond_atom_site_label_1
_geom_bond_atom_site_label_2
_geom_bond_site_symmetry_1
_geom_bond_site_symmetry_2
Ag1 N1 1_555 1_555
Ag2 N3 1_555 1_555
C1 C4 1_555 1_555
C2 C5 1_555 1_555
C3 C10 1_555 1_555
O1 C25 1_555 1_555
C4 C9 1_555 1_555
C5 C1 1_555 1_555
N1 C50 1_555 1_555
C6 C2 1_555 1_555
O2 C15 1_555 1_555
C7 C6 1_555 1_555
C8 C11 1_555 1_555
C9 C24 1_555 1_555
N2 C17 1_555 1_555
N3 C32 1_555 1_555
N4 C20 1_555 1_555
C10 C12 1_555 1_555
C11 C16 1_555 1_555
C12 C15 1_555 1_555
C13 C3 1_555 1_555
C14 C22 1_555 1_555
C15 C8 1_555 1_555
C16 C28 1_555 1_555
C17 C40 1_555 1_555
C18 C27 1_555 1_555
C19 C30 1_555 1_555
C20 C3 1_555 1_555
C21 C1 1_555 1_555
C22 C37 1_555 1_555
C23 C39 1_555 1_555
C24 C14 1_555 1_555
C25 C2 1_555 1_555
C26 C30 1_555 1_555
C27 C32 1_555 1_555
C28 C46 1_555 1_555
C29 C12 1_555 1_555
C30 C7 1_555 1_555
C31 C42 1_555 1_555
N5 C21 1_555 1_555
C33 C35 1_555 1_555
C34 C26 1_555 1_555
C35 N6 1_555 1_555
C36 C33 1_555 1_555
C37 C39 1_555 1_555
C38 C33 1_555 1_555
C39 H12 1_555 1_555
N6 Ag2_3 1_555 1_555
C40 C34 1_555 1_555
C41 C23 1_555 1_555
C42 C36 1_555 1_555
C43 C22 1_555 1_555
C44 C19 1_555 1_555
C45 C29 1_555 1_555
C46 C52 1_555 1_555
C47 C31 1_555 1_555
C48 O2 1_555 1_555
C49 C18 1_555 1_555
C50 C23 1_555 1_555
C51 O1 1_555 1_555
C52 C27 1_555 1_555
S1 O3 1_555 1_555
O3 Ag2 1_555 1_555
O4 S1 1_555 1_555
F1 C53 1_555 1_555
O5 S1 1_555 1_555
F2 C53 1_555 1_555
F3 C53 1_555 1_555
C53 S1 1_555 1_555
O6 Ag1 1_555 1_555
S2 O6 1_555 1_555
O7 S2 1_555 1_555
F4 C54 1_555 1_555
F5 C54 1_555 1_555
O8 S2 1_555 1_555
F6 C54 1_555 1_555
C54 S2 1_555 1_555
C55 C57 1_555 1_555
C56 C57 1_555 1_555
C57 H28 1_555 1_555
C58 C55 1_555 1_555
C59 C58 1_555 1_555
C60 C56 1_555 1_555
C61 C62 1_555 1_555
C62 C64 1_555 1_555
C63 C61 1_555 1_555
C64 C66 1_555 1_555
C65 C63 1_555 1_555
C66 C65 1_555 1_555
C67 C68 1_555 1_555
C68 C70 1_555 1_555
C69 C67 1_555 1_555
C70 C71 1_555 1_555
C71 C72 1_555 1_555
C72 C69 1_555 1_555
C73 C76 1_555 1_555
C74 C75 1_555 1_555
C75 C77 1_555 1_555
C76 C74 1_555 1_555
C77 C78 1_555 1_555
C78 C73 1_555 1_555
H1 C4 1_555 1_555
H2 C5 1_555 1_555
H3 C10 1_555 1_555
H4 C13 1_555 1_555
H5 C18 1_555 1_555
H6 C19 1_555 1_555
H7 C26 1_555 1_555
H8 C34 1_555 1_555
H9 C36 1_555 1_555
H10 C37 1_555 1_555
H11 C38 1_555 1_555
H13 C41 1_555 1_555
H14 C42 1_555 1_555
H15 C43 1_555 1_555
H16 C44 1_555 1_555
H17 C46 1_555 1_555
H18 C47 1_555 1_555
H19 C48 1_555 1_555
H20 C48 1_555 1_555
H21 C49 1_555 1_555
H22 C51 1_555 1_555
H23 C51 1_555 1_555
H24 C51 1_555 1_555
H25 C52 1_555 1_555
H26 C55 1_555 1_555
H27 C56 1_555 1_555
H29 C58 1_555 1_555
H30 C59 1_555 1_555
H31 C60 1_555 1_555
H32 C61 1_555 1_555
H33 C62 1_555 1_555
H34 C63 1_555 1_555
H35 C64 1_555 1_555
H36 C65 1_555 1_555
H37 C66 1_555 1_555
H38 C67 1_555 1_555
H39 C68 1_555 1_555
H40 C69 1_555 1_555
H41 C70 1_555 1_555
H42 C71 1_555 1_555
H43 C72 1_555 1_555
H44 C73 1_555 1_555
H45 C74 1_555 1_555
H46 C75 1_555 1_555
H47 C76 1_555 1_555
H48 C77 1_555 1_555
H49 C78 1_555 1_555
N2_2 Ag1 1_555 1_555
N5_2 Ag1 1_555 1_555
N4_2 Ag2 1_555 1_555
N6_2 Ag2 1_555 1_555
Ag1_2 N2 1_555 1_555
Ag2_2 N4 1_555 1_555
Ag1_3 N5 1_555 1_555
C8 C13 1_555 1_555
C9 C25 1_555 1_555
C28 C49 1_555 1_555
C31 C45 1_555 1_555
C38 C47 1_555 1_555
C40 C44 1_555 1_555
C41 C43 1_555 1_555
C59 C60 1_555 1_555

#END
