
#######################################################################
#
#                 Cambridge Crystallographic Data Centre
#                                CCDC 
#
#######################################################################
#
# If this CIF has been generated from an entry in the Cambridge 
# Structural Database, then it will include bibliographic, chemical, 
# crystal, experimental, refinement or atomic coordinate data resulting 
# from the CCDC's data processing and validation procedures.
#
#######################################################################

data_OCIHIS
_symmetry_cell_setting           monoclinic
_symmetry_space_group_name_H-M   'C 2/c'
_symmetry_Int_Tables_number      15
_space_group_name_Hall           '-C 2yn'
loop_
_symmetry_equiv_pos_site_id
_symmetry_equiv_pos_as_xyz
1 x,y,z
2 1/2+x,1/2+y,z
3 -x,y,1/2-z
4 1/2-x,1/2+y,1/2-z
5 -x,-y,-z
6 1/2-x,1/2-y,-z
7 x,-y,1/2+z
8 1/2+x,1/2-y,1/2+z
_cell_length_a                   18.923(1)
_cell_length_b                   16.5046(7)
_cell_length_c                   7.8437(3)
_cell_angle_alpha                90
_cell_angle_beta                 91.868(3)
_cell_angle_gamma                90
_cell_volume                     2448.42
loop_
_atom_site_label
_atom_site_type_symbol
_atom_site_fract_x
_atom_site_fract_y
_atom_site_fract_z
O1 O 0.0629(5) 0.8014(5) 0.863(1)
O2 O 0.0660(5) 1.0237(5) 1.353(2)
O3 O 0.0837(8) 0.6472(6) 0.880(1)
C1 C 0.1190(8) 0.8753(7) 1.236(2)
P1 P 0.0672(4) 0.7236(4) 0.9886(8)
O4 O -0.0016(5) 0.7084(9) 1.063(2)
O5 O 0.1717(5) 0.9680(7) 1.504(2)
P2 P 0.1045(4) 0.9460(4) 1.4063(9)
N1 N 0.1245(6) 0.7898(8) 1.298(2)
C2 C 0.2534(8) 0.804(1) 1.350(2)
C3 C 0.1365(7) 0.7367(9) 1.154(2)
C4 C 0.1823(7) 0.789(1) 1.432(2)
C5 C 0.1872(7) 0.705(1) 1.510(2)
O6 O 0.0570(6) 0.8973(8) 1.538(1)
Zr1 Zr 0.0000 0.8914(2) 0.7500
O1E O 0.4371(5) 0.6986(5) 2.137(1)
O1B O -0.0629(5) 0.8014(5) 0.637(1)
O2E O 0.4340(5) 0.4763(5) 1.647(2)
O2F O 0.0660(5) 0.9763(5) 0.853(2)
O2D O -0.0660(5) 0.9763(5) 0.647(2)
O3E O 0.4163(8) 0.8528(6) 2.120(1)
C1E C 0.3810(8) 0.6247(7) 1.764(2)
P1E P 0.4328(4) 0.7764(4) 2.0114(8)
O4E O 0.5016(5) 0.7916(9) 1.937(2)
O5E O 0.3283(5) 0.5320(7) 1.496(2)
P2E P 0.3955(4) 0.5540(4) 1.5937(9)
N1E N 0.3755(6) 0.7102(8) 1.702(2)
C2E C 0.2466(8) 0.696(1) 1.650(2)
C3E C 0.3635(7) 0.7633(9) 1.846(2)
C4E C 0.3177(7) 0.711(1) 1.568(2)
C5E C 0.3128(7) 0.795(1) 1.490(2)
O6E O 0.4430(6) 0.6027(8) 1.462(1)
O6_2 O 0.0570(6) 0.8973(8) 0.538(1)
O6B O -0.0570(6) 0.8973(8) 0.962(1)
Zr1F Zr 0.0000 1.1086(2) 1.2500
Zr1_2 Zr 0.0000 0.8914(2) 1.7500
Zr1A Zr 0.5000 0.3914(2) 1.7500
Zr1G Zr 0.5000 0.6086(2) 1.2500
Zr1G_2 Zr 0.5000 0.6086(2) 2.2500
Na1 Na 0.2639(5) 0.9556(5) 0.780(1)
O7 O 0.0386(6) 0.4437(5) -0.0489(7)
O8 O 0.1505(7) 0.5107(8) -0.088(2)
O9 O 0.0000 0.453(1) 0.2500
loop_
_geom_bond_atom_site_label_1
_geom_bond_atom_site_label_2
_geom_bond_site_symmetry_1
_geom_bond_site_symmetry_2
O1 P1 1_555 1_555
O2 P2 1_555 1_555
O3 P1 1_555 1_555
C1 P2 1_555 1_555
P1 O4 1_555 1_555
O5 P2 1_555 1_555
P2 O6 1_555 1_555
N1 C1 1_555 1_555
C2 C4 1_555 1_555
C3 P1 1_555 1_555
C4 N1 1_555 1_555
C5 C4 1_555 1_555
O6 Zr1_2 1_555 1_555
Zr1 O1 1_555 1_555
O1E P1E 1_555 1_555
O1B Zr1 1_555 1_555
O2E P2E 1_555 1_555
O2F Zr1 1_555 1_555
O2D Zr1 1_555 1_555
O3E P1E 1_555 1_555
C1E P2E 1_555 1_555
P1E O4E 1_555 1_555
O5E P2E 1_555 1_555
P2E O6E 1_555 1_555
N1E C1E 1_555 1_555
C2E C5 1_555 1_555
C3E P1E 1_555 1_555
C4E N1E 1_555 1_555
C5E C2 1_555 1_555
O6E Zr1G 1_555 1_555
O6_2 Zr1 1_555 1_555
O6B Zr1 1_555 1_555
Zr1F O2 1_555 1_555
Zr1A O2E 1_555 1_555
Zr1G_2 O1E 1_555 1_555
N1 C3 1_555 1_555
N1E C3E 1_555 1_555
C2E C4E 1_555 1_555
C4E C5E 1_555 1_555

#END
