
#######################################################################
#
#                 Cambridge Crystallographic Data Centre
#                                CCDC 
#
#######################################################################
#
# If this CIF has been generated from an entry in the Cambridge 
# Structural Database, then it will include bibliographic, chemical, 
# crystal, experimental, refinement or atomic coordinate data resulting 
# from the CCDC's data processing and validation procedures.
#
#######################################################################

data_ODAJAG
_symmetry_cell_setting           monoclinic
_symmetry_space_group_name_H-M   'P 21/c'
_symmetry_Int_Tables_number      14
_space_group_name_Hall           '-P 2ybc'
loop_
_symmetry_equiv_pos_site_id
_symmetry_equiv_pos_as_xyz
1 x,y,z
2 -x,1/2+y,1/2-z
3 -x,-y,-z
4 x,1/2-y,1/2+z
_cell_length_a                   6.1092(2)
_cell_length_b                   7.6866(2)
_cell_length_c                   22.6987(6)
_cell_angle_alpha                90
_cell_angle_beta                 91.6570(10)
_cell_angle_gamma                90
_cell_volume                     1065.46
loop_
_atom_site_label
_atom_site_type_symbol
_atom_site_fract_x
_atom_site_fract_y
_atom_site_fract_z
Nd1 Nd 0.54473(5) 0.49680(4) 0.145977(13)
O1 O 0.4849(8) 0.5989(6) 0.2484(2)
O2 O 0.6421(9) 0.7142(6) 0.3296(2)
O3 O 0.7811(7) 0.3592(6) 0.2332(2)
H1 H 0.698(11) 0.277(7) 0.239(3)
O4 O 0.5950(8) 0.3086(6) 0.3583(2)
H2 H 0.577(14) 0.367(9) 0.388(2)
O5 O 0.8512(8) 0.0468(6) 0.3461(2)
O6 O 1.1547(8) 0.2044(6) 0.3338(2)
O7 O 0.3766(9) 0.3674(7) 0.0528(2)
O8 O 0.3356(9) 0.3689(7) -0.0471(2)
O9 O 0.8450(9) 0.2955(8) 0.1110(2)
H3 H 0.954(9) 0.351(11) 0.121(3)
H4 H 0.852(13) 0.276(12) 0.0760(12)
C1 C 0.6337(11) 0.6052(8) 0.2889(3)
C2 C 0.8151(10) 0.4629(8) 0.2853(3)
H13 H 0.9569 0.5216 0.2825
C3 C 0.8162(11) 0.3577(8) 0.3438(3)
H14 H 0.8775 0.4309 0.3756
C4 C 0.9533(10) 0.1885(8) 0.3405(3)
C5 C 0.4163(11) 0.4241(8) 0.0012(3)
Nd1A Nd 0.45527(5) -0.00320(4) 0.354023(13)
Nd1A_2 Nd 0.45527(5) 0.99680(4) 0.354023(13)
Nd1A_3 Nd 1.45527(5) -0.00320(4) 0.354023(13)
Nd1B Nd 0.45527(5) 0.50320(4) -0.145977(13)
Nd1_2 Nd 0.54473(5) -0.50320(4) 0.145977(13)
Nd1_3 Nd -0.45527(5) -0.50320(4) 0.145977(13)
O1A O 0.5151(8) 0.0989(6) 0.2516(2)
O2A O 0.3579(9) 0.2142(6) 0.1704(2)
O2_2 O 0.6421(9) -0.2858(6) 0.3296(2)
O3A O 0.2189(7) -0.1408(6) 0.2668(2)
H1A H 0.302(11) -0.223(7) 0.261(3)
O4A O 0.4050(8) -0.1914(6) 0.1417(2)
O4A_2 O 0.4050(8) 0.8086(6) 0.1417(2)
H2A H 0.423(14) -0.133(9) 0.112(2)
H2A_2 H 0.423(14) 0.867(9) 0.112(2)
O5A O 0.1488(8) -0.4532(6) 0.1539(2)
O5A_2 O 0.1488(8) 0.5468(6) 0.1539(2)
O6A O -0.1547(8) -0.2956(6) 0.1662(2)
O6A_2 O 0.8453(8) 0.7044(6) 0.1662(2)
O6_2 O 0.1547(8) 0.2044(6) 0.3338(2)
O7B O 0.6234(9) 0.6326(7) -0.0528(2)
O7A O 0.6234(9) -0.1326(7) 0.4472(2)
O8B O 0.6644(9) 0.6311(7) 0.0471(2)
O8C O 0.3356(9) 0.1311(7) 0.4529(2)
O9A O 0.1550(9) -0.2045(8) 0.3890(2)
H3A H 0.046(9) -0.149(11) 0.379(3)
H4A H 0.148(13) -0.224(12) 0.4240(12)
C1A C 0.3663(11) 0.1052(8) 0.2111(3)
C2A C 0.1849(10) -0.0371(8) 0.2147(3)
H13A H 0.0431 0.0216 0.2175
C3A C 0.1838(11) -0.1423(8) 0.1562(3)
H14A H 0.1225 -0.0691 0.1244
C4A C 0.0467(10) -0.3115(8) 0.1595(3)
C5B C 0.5837(11) 0.5759(8) -0.0012(3)
O10 O 0.093(2) 0.752(2) 0.0101(6)
H5 H 0.08(4) 0.853(7) 0.020(9)
H6 H 0.03(3) 0.695(19) 0.035(6)
O12 O 0.374(4) 0.010(2) 0.0431(6)
H9 H 0.37(5) 0.113(9) 0.052(10)
H10 H 0.42(4) 0.01(3) 0.009(4)
O11? O 0.007(6) 0.866(4) -0.0050(16)
H7? H -0.10(4) 0.93(4) -0.002(19)
H8? H -0.02(7) 0.78(4) 0.017(19)
O13? O 0.573(5) 0.024(3) 0.0670(11)
H11? H 0.54(7) 0.05(4) 0.033(5)
H12? H 0.56(6) 0.12(2) 0.085(11)
loop_
_geom_bond_atom_site_label_1
_geom_bond_atom_site_label_2
_geom_bond_site_symmetry_1
_geom_bond_site_symmetry_2
Nd1 O1 1_555 1_555
O1 C1 1_555 1_555
O2 C1 1_555 1_555
O3 Nd1 1_555 1_555
H1 O3 1_555 1_555
O4 H2 1_555 1_555
O5 C4 1_555 1_555
O6 C4 1_555 1_555
O7 Nd1 1_555 1_555
O8 C5 1_555 1_555
O9 Nd1 1_555 1_555
H3 O9 1_555 1_555
H4 O9 1_555 1_555
O10 H5 1_555 1_555
H6 O10 1_555 1_555
O12 H9 1_555 1_555
H10 O12 1_555 1_555
C1 C2 1_555 1_555
C2 O3 1_555 1_555
H13 C2 1_555 1_555
C3 O4 1_555 1_555
H14 C3 1_555 1_555
C4 C3 1_555 1_555
C5 O7 1_555 1_555
Nd1A O4 1_555 1_555
Nd1A_2 O2 1_555 1_555
Nd1A_3 O6 1_555 1_555
Nd1B O8 1_555 1_555
Nd1_2 O4A 1_555 1_555
Nd1_3 O6A 1_555 1_555
O1A Nd1A 1_555 1_555
O2A Nd1 1_555 1_555
O2_2 Nd1A 1_555 1_555
O3A Nd1A 1_555 1_555
H1A O3A 1_555 1_555
O4A H2A 1_555 1_555
O4A_2 Nd1 1_555 1_555
H2A_2 O4A_2 1_555 1_555
O5A Nd1_2 1_555 1_555
O5A_2 Nd1 1_555 1_555
O6A C4A 1_555 1_555
O6A_2 Nd1 1_555 1_555
O6_2 Nd1A 1_555 1_555
O7B Nd1B 1_555 1_555
O7A Nd1A 1_555 1_555
O8B Nd1 1_555 1_555
O8C Nd1A 1_555 1_555
O9A Nd1A 1_555 1_555
H3A O9A 1_555 1_555
H4A O9A 1_555 1_555
C1A O1A 1_555 1_555
C2A O3A 1_555 1_555
H13A C2A 1_555 1_555
C3A O4A 1_555 1_555
H14A C3A 1_555 1_555
C4A O5A 1_555 1_555
C5B C5 1_555 1_555
O5 Nd1A 1_555 1_555
C2 C3 1_555 1_555
O2A C1A 1_555 1_555
O7B C5B 1_555 1_555
O8B C5B 1_555 1_555
C1A C2A 1_555 1_555
C2A C3A 1_555 1_555
C3A C4A 1_555 1_555

#END
