
#######################################################################
#
#                 Cambridge Crystallographic Data Centre
#                                CCDC 
#
#######################################################################
#
# If this CIF has been generated from an entry in the Cambridge 
# Structural Database, then it will include bibliographic, chemical, 
# crystal, experimental, refinement or atomic coordinate data resulting 
# from the CCDC's data processing and validation procedures.
#
#######################################################################

data_ODIXEG
_symmetry_cell_setting           tetragonal
_symmetry_space_group_name_H-M   'P 42/m m c'
_symmetry_Int_Tables_number      131
_space_group_name_Hall           '-P 4c 2'
loop_
_symmetry_equiv_pos_site_id
_symmetry_equiv_pos_as_xyz
1 x,y,z
2 -y,x,1/2+z
3 -x,-y,z
4 y,-x,1/2+z
5 x,-y,-z
6 -x,y,-z
7 y,x,1/2-z
8 -y,-x,1/2-z
9 -x,-y,-z
10 y,-x,1/2-z
11 x,y,-z
12 -y,x,1/2-z
13 -x,y,z
14 x,-y,z
15 -y,-x,1/2+z
16 y,x,1/2+z
_cell_length_a                   12.706(4)
_cell_length_b                   12.706(4)
_cell_length_c                   23.817(8)
_cell_angle_alpha                90
_cell_angle_beta                 90
_cell_angle_gamma                90
_cell_volume                     3845.07
loop_
_atom_site_label
_atom_site_type_symbol
_atom_site_fract_x
_atom_site_fract_y
_atom_site_fract_z
Zn1 Zn 0.38242(3) 0.0000 0.0000
Si1 Si 0.5000 0.5000 0.2500
C1 C 0.5000 0.38257(15) 0.20289(6)
C2 C 0.5000 0.22450(15) 0.12061(7)
O1 O 0.41151(9) 0.11044(8) 0.05860(4)
C3 C 0.40631(12) 0.34073(13) 0.18193(5)
H1 H 0.3409 0.3664 0.1956
C4 C 0.5000 0.14120(16) 0.07636(8)
C5 C 0.40723(13) 0.26308(12) 0.14188(6)
H2 H 0.3424 0.2355 0.1286
O2 O 0.22767(19) 0.0000 0.0000
C1B C 0.5000 0.61743(15) 0.20289(6)
C2B C 0.5000 0.77550(15) 0.12061(7)
O1B O 0.58849(9) 0.88956(8) 0.05860(4)
C3B C 0.59369(12) 0.65927(13) 0.18193(5)
H1B H 0.6591 0.6336 0.1956
C4B C 0.5000 0.85880(16) 0.07636(8)
C5B C 0.59277(13) 0.73692(12) 0.14188(6)
H2B H 0.6576 0.7645 0.1286
C1F C 0.38257(15) 0.5000 0.29711(6)
C2F C 0.22450(15) 0.5000 0.37939(7)
O1F O 0.11044(8) 0.41151(9) 0.44140(4)
C3F C 0.34073(13) 0.40631(12) 0.31807(5)
H1F H 0.3664 0.3409 0.3044
C4F C 0.14120(16) 0.5000 0.42364(8)
C5F C 0.26308(12) 0.40723(13) 0.35812(6)
H2F H 0.2355 0.3424 0.3714
C1G C 0.61743(15) 0.5000 0.29711(6)
C2G C 0.77550(15) 0.5000 0.37939(7)
O1G O 0.88956(8) 0.58849(9) 0.44140(4)
C3G C 0.65927(13) 0.59369(12) 0.31807(5)
H1G H 0.6336 0.6591 0.3044
C4G C 0.85880(16) 0.5000 0.42364(8)
C5G C 0.73692(12) 0.59277(13) 0.35812(6)
H2G H 0.7645 0.6576 0.3714
O1I O 0.11044(8) 0.58849(9) 0.44140(4)
C3I C 0.34073(13) 0.59369(12) 0.31807(5)
H1I H 0.3664 0.6591 0.3044
C5I C 0.26308(12) 0.59277(13) 0.35812(6)
H2I H 0.2355 0.6576 0.3714
O1K O 0.88956(8) 0.41151(9) 0.44140(4)
C3K C 0.65927(13) 0.40631(12) 0.31807(5)
H1K H 0.6336 0.3409 0.3044
C5K C 0.73692(12) 0.40723(13) 0.35812(6)
H2K H 0.7645 0.3424 0.3714
O1L O 0.58849(9) 0.11044(8) 0.05860(4)
C3L C 0.59369(12) 0.34073(13) 0.18193(5)
H1L H 0.6591 0.3664 0.1956
C5L C 0.59277(13) 0.26308(12) 0.14188(6)
H2L H 0.6576 0.2355 0.1286
O1M O 0.41151(9) 0.88956(8) 0.05860(4)
C3M C 0.40631(12) 0.65927(13) 0.18193(5)
H1M H 0.3409 0.6336 0.1956
C5M C 0.40723(13) 0.73692(12) 0.14188(6)
H2M H 0.3424 0.7645 0.1286
Zn1B Zn 0.61758(3) 0.0000 0.0000
O2B O 0.77233(19) 0.0000 0.0000
Zn1_2 Zn 0.38242(3) 1.0000 0.0000
Zn1A Zn 0.0000 0.38242(3) 0.5000
Zn1A_2 Zn 1.0000 0.38242(3) 0.5000
Zn1B_2 Zn 0.61758(3) 1.0000 0.0000
Zn1C Zn 0.0000 0.61758(3) 0.5000
Zn1C_2 Zn 1.0000 0.61758(3) 0.5000
O1B_2 O 0.58849(9) -0.11044(8) 0.05860(4)
O1D O 0.41151(9) -0.11044(8) -0.05860(4)
O1E O 0.58849(9) 0.11044(8) -0.05860(4)
O1H O 0.58849(9) -0.11044(8) -0.05860(4)
O1J O 0.41151(9) 0.11044(8) -0.05860(4)
O1M_2 O 0.41151(9) -0.11044(8) 0.05860(4)
loop_
_geom_bond_atom_site_label_1
_geom_bond_atom_site_label_2
_geom_bond_site_symmetry_1
_geom_bond_site_symmetry_2
Zn1 O1 1_555 1_555
Si1 C1 1_555 1_555
C1 C3 1_555 1_555
C2 C4 1_555 1_555
O1 C4 1_555 1_555
C3 H1 1_555 1_555
C4 O1L 1_555 1_555
C5 C2 1_555 1_555
H2 C5 1_555 1_555
O2 Zn1 1_555 1_555
C1B Si1 1_555 1_555
C2B C4B 1_555 1_555
O1B C4B 1_555 1_555
C3B C1B 1_555 1_555
H1B C3B 1_555 1_555
C4B O1M 1_555 1_555
C5B C2B 1_555 1_555
H2B C5B 1_555 1_555
C1F Si1 1_555 1_555
C2F C4F 1_555 1_555
O1F C4F 1_555 1_555
C3F C1F 1_555 1_555
H1F C3F 1_555 1_555
C4F O1I 1_555 1_555
C5F C2F 1_555 1_555
H2F C5F 1_555 1_555
C1G Si1 1_555 1_555
C2G C4G 1_555 1_555
O1G C4G 1_555 1_555
C3G C1G 1_555 1_555
H1G C3G 1_555 1_555
C4G O1K 1_555 1_555
C5G C2G 1_555 1_555
H2G C5G 1_555 1_555
O1I Zn1C 1_555 1_555
C3I C1F 1_555 1_555
H1I C3I 1_555 1_555
C5I C2F 1_555 1_555
H2I C5I 1_555 1_555
O1K Zn1A_2 1_555 1_555
C3K C1G 1_555 1_555
H1K C3K 1_555 1_555
C5K C2G 1_555 1_555
H2K C5K 1_555 1_555
O1L Zn1B 1_555 1_555
C3L C1 1_555 1_555
H1L C3L 1_555 1_555
C5L C2 1_555 1_555
H2L C5L 1_555 1_555
O1M Zn1_2 1_555 1_555
C3M C1B 1_555 1_555
H1M C3M 1_555 1_555
C5M C2B 1_555 1_555
H2M C5M 1_555 1_555
Zn1B O2B 1_555 1_555
Zn1A O1F 1_555 1_555
Zn1B_2 O1B 1_555 1_555
Zn1C_2 O1G 1_555 1_555
O1B_2 Zn1B 1_555 1_555
O1D Zn1 1_555 1_555
O1E Zn1B 1_555 1_555
O1H Zn1B 1_555 1_555
O1J Zn1 1_555 1_555
O1M_2 Zn1 1_555 1_555
C3 C5 1_555 1_555
C3B C5B 1_555 1_555
C3F C5F 1_555 1_555
C3G C5G 1_555 1_555
C3I C5I 1_555 1_555
C3K C5K 1_555 1_555
C3L C5L 1_555 1_555
C3M C5M 1_555 1_555

#END
