
#######################################################################
#
#                 Cambridge Crystallographic Data Centre
#                                CCDC 
#
#######################################################################
#
# If this CIF has been generated from an entry in the Cambridge 
# Structural Database, then it will include bibliographic, chemical, 
# crystal, experimental, refinement or atomic coordinate data resulting 
# from the CCDC's data processing and validation procedures.
#
#######################################################################

data_ODODOC
_symmetry_cell_setting           triclinic
_symmetry_space_group_name_H-M   'P -1'
_symmetry_Int_Tables_number      2
_space_group_name_Hall           '-P 1'
loop_
_symmetry_equiv_pos_site_id
_symmetry_equiv_pos_as_xyz
1 x,y,z
2 -x,-y,-z
_cell_length_a                   13.875(7)
_cell_length_b                   14.072(7)
_cell_length_c                   14.208(7)
_cell_angle_alpha                116.300(5)
_cell_angle_beta                 109.724(5)
_cell_angle_gamma                101.428(5)
_cell_volume                     2133.13
loop_
_atom_site_label
_atom_site_type_symbol
_atom_site_fract_x
_atom_site_fract_y
_atom_site_fract_z
Cd1 Cd 0.0000 1.0000 0.0000
Cd2 Cd 0.29469(2) 1.12624(3) 0.11388(3)
Si1 Si 0.01012(9) 1.34604(10) 0.61091(10)
O1 O 0.2832(3) 1.2871(3) 0.2751(3)
O2 O 0.1665(2) 1.1031(3) 0.1820(3)
O3 O -0.5631(3) 1.1547(3) 0.2890(3)
O4 O -0.5125(3) 1.2204(3) 0.1903(3)
O5 O 0.2323(3) 1.1706(3) 0.9808(3)
C1 C 0.1791(4) 1.5779(4) 0.8037(4)
H1 H 0.2310 1.5431 0.8103
O6 O 0.2837(3) 1.9435(3) 1.0118(3)
C2 C 0.0802(3) 1.3101(4) 0.5155(4)
C3 C 0.0386(5) 1.2785(6) 0.6994(5)
C4 C -0.1431(3) 1.2945(4) 0.5073(4)
O7 O 0.0625(3) 1.1369(3) 0.9706(3)
C5 C 0.1661(4) 1.2447(4) 0.3545(4)
C6 C -0.4896(4) 1.2028(4) 0.2735(4)
C7 C 0.2090(4) 1.2115(4) 0.2657(4)
C8 C -0.2865(4) 1.2620(4) 0.3264(4)
H2 H -0.3057 1.2601 0.2546
C9 C -0.3683(4) 1.2389(4) 0.3569(4)
C10 C 0.0652(4) 1.5074(4) 0.7188(4)
C11 C 0.1339(5) 1.1653(6) 0.9413(5)
C12 C 0.0987(5) 1.1996(6) 0.8530(5)
C13 C 0.1592(4) 1.3937(4) 0.5210(4)
H3 H 0.1841 1.4737 0.5798
C14 C 0.2173(4) 1.6978(4) 0.8786(4)
H4 H 0.2949 1.7441 0.9347
C15 C 0.0465(4) 1.1921(4) 0.4281(4)
H5 H -0.0059 1.1333 0.4237
C16 C 0.2024(4) 1.3621(4) 0.4420(4)
H6 H 0.2566 1.4204 0.4474
C17 C 0.0887(4) 1.1607(4) 0.3488(4)
H7 H 0.0642 1.0808 0.2899
C18 C -0.1756(4) 1.2881(5) 0.4000(5)
H8 H -0.1208 1.3019 0.3762
C19 C -0.0085(4) 1.5617(4) 0.7150(4)
H9 H -0.0863 1.5160 0.6592
C20 C 0.1601(5) 1.2128(6) 0.7985(5)
H10 H 0.2245 1.1957 0.8128
C21 C 0.1294(5) 1.2508(5) 0.7224(5)
H11 H 0.1731 1.2579 0.6848
C22 C -0.2269(4) 1.2736(6) 0.5374(5)
H12 H -0.2075 1.2789 0.6109
C23 C -0.0186(5) 1.2711(6) 0.7616(5)
H13 H -0.0784 1.2955 0.7539
C24 C 0.0091(5) 1.2291(6) 0.8345(5)
H14 H -0.0345 1.2208 0.8716
C25 C 0.1424(4) 1.7504(4) 0.8716(4)
C26 C 0.0295(4) 1.6816(4) 0.7913(5)
H15 H -0.0227 1.7163 0.7880
C27 C -0.3388(4) 1.2452(6) 0.4631(5)
H16 H -0.3942 1.2304 0.4857
O8 O 0.1070(3) 1.9199(3) 0.9326(3)
C28 C 0.1805(4) 1.8806(4) 0.9446(4)
Cd2A Cd -0.29469(2) 0.87376(3) -0.11388(3)
Si1A Si -0.01012(9) 0.65396(10) -0.61091(10)
O1A O -0.2832(3) 0.7129(3) -0.2751(3)
O2A O -0.1665(2) 0.8969(3) -0.1820(3)
O3A O 0.5631(3) 0.8453(3) -0.2890(3)
O4A O 0.5125(3) 0.7796(3) -0.1903(3)
O5A O -0.2323(3) 0.8294(3) -0.9808(3)
C1A C -0.1791(4) 0.4221(4) -0.8037(4)
H1A H -0.2310 0.4569 -0.8103
O6A O -0.2837(3) 0.0565(3) -1.0118(3)
C2A C -0.0802(3) 0.6899(4) -0.5155(4)
C3A C -0.0386(5) 0.7215(6) -0.6994(5)
C4A C 0.1431(3) 0.7055(4) -0.5073(4)
O7A O -0.0625(3) 0.8631(3) -0.9706(3)
C5A C -0.1661(4) 0.7553(4) -0.3545(4)
C6A C 0.4896(4) 0.7972(4) -0.2735(4)
C7A C -0.2090(4) 0.7885(4) -0.2657(4)
C8A C 0.2865(4) 0.7380(4) -0.3264(4)
H2A H 0.3057 0.7399 -0.2546
C9A C 0.3683(4) 0.7611(4) -0.3569(4)
C10A C -0.0652(4) 0.4926(4) -0.7188(4)
C11A C -0.1339(5) 0.8347(6) -0.9413(5)
C12A C -0.0987(5) 0.8004(6) -0.8530(5)
C13A C -0.1592(4) 0.6063(4) -0.5210(4)
H3A H -0.1841 0.5263 -0.5798
C14A C -0.2173(4) 0.3022(4) -0.8786(4)
H4A H -0.2949 0.2559 -0.9347
C15A C -0.0465(4) 0.8079(4) -0.4281(4)
H5A H 0.0059 0.8667 -0.4237
C16A C -0.2024(4) 0.6379(4) -0.4420(4)
H6A H -0.2566 0.5796 -0.4474
C17A C -0.0887(4) 0.8393(4) -0.3488(4)
H7A H -0.0642 0.9192 -0.2899
C18A C 0.1756(4) 0.7119(5) -0.4000(5)
H8A H 0.1208 0.6981 -0.3762
C19A C 0.0085(4) 0.4383(4) -0.7150(4)
H9A H 0.0863 0.4840 -0.6592
C20A C -0.1601(5) 0.7872(6) -0.7985(5)
H10A H -0.2245 0.8043 -0.8128
C21A C -0.1294(5) 0.7492(5) -0.7224(5)
H11A H -0.1731 0.7421 -0.6848
C22A C 0.2269(4) 0.7264(6) -0.5374(5)
H12A H 0.2075 0.7211 -0.6109
C23A C 0.0186(5) 0.7289(6) -0.7616(5)
H13A H 0.0784 0.7045 -0.7539
C24A C -0.0091(5) 0.7709(6) -0.8345(5)
H14A H 0.0345 0.7792 -0.8716
C25A C -0.1424(4) 0.2496(4) -0.8716(4)
C26A C -0.0295(4) 0.3184(4) -0.7913(5)
H15A H 0.0227 0.2837 -0.7880
C27A C 0.3388(4) 0.7548(6) -0.4631(5)
H16A H 0.3942 0.7696 -0.4857
O8A O -0.1070(3) 0.0801(3) -0.9326(3)
C28A C -0.1805(4) 0.1194(4) -0.9446(4)
Cd1_2 Cd 0.0000 0.0000 -1.0000
Cd1_3 Cd 0.0000 1.0000 -1.0000
Cd1_4 Cd 0.0000 1.0000 1.0000
Cd1_5 Cd 0.0000 2.0000 1.0000
Cd2_2 Cd -0.70531(2) 1.12624(3) 0.11388(3)
Cd2_3 Cd 0.29469(2) 1.12624(3) 1.11388(3)
Cd2_4 Cd 0.29469(2) 2.12624(3) 1.11388(3)
Cd2A_2 Cd -0.29469(2) -0.12624(3) -1.11388(3)
Cd2A_3 Cd -0.29469(2) 0.87376(3) -1.11388(3)
Cd2A_4 Cd 0.70531(2) 0.87376(3) -0.11388(3)
O3_2 O 0.4369(3) 1.1547(3) 0.2890(3)
O3A_2 O -0.4369(3) 0.8453(3) -0.2890(3)
O4_2 O 0.4875(3) 1.2204(3) 0.1903(3)
O4A_2 O -0.4875(3) 0.7796(3) -0.1903(3)
O5_2 O 0.2323(3) 1.1706(3) -0.0192(3)
O5A_2 O -0.2323(3) 0.8294(3) 0.0192(3)
O6_2 O 0.2837(3) 0.9435(3) 0.0118(3)
O6A_2 O -0.2837(3) 1.0565(3) -0.0118(3)
O7_2 O 0.0625(3) 1.1369(3) -0.0294(3)
O7A_2 O -0.0625(3) 0.8631(3) 0.0294(3)
O8_2 O 0.1070(3) 0.9199(3) -0.0674(3)
O8A_2 O -0.1070(3) 1.0801(3) 0.0674(3)
Cd3 Cd 0.5000 1.5000 0.0000
O9 O 0.4439(4) 1.3043(3) -0.1056(4)
N1 N 0.4332(4) 1.1298(4) -0.1358(4)
C29 C 0.4584(4) 1.2413(4) -0.0672(5)
H17 H 0.4897 1.2759 0.0168
O10 O 0.5886(4) 1.5043(4) 0.1726(4)
O11 O 0.3502(5) 1.4967(5) 0.0278(5)
C30 C 0.4490(5) 1.0598(5) -0.0863(5)
H18 H 0.4810 1.1089 0.0010
H19 H 0.5003 1.0259 -0.1057
H20 H 0.3764 0.9974 -0.1209
C31 C 0.3066(8) 1.4675(7) 0.0661(8)
H21 H 0.3266 1.4132 0.0816
N2 N 0.2302(6) 1.4931(6) 0.0956(7)
C32 C 0.2034(8) 1.4482(7) 0.1611(8)
H22 H 0.2411 1.3968 0.1643
H23 H 0.1219 1.4042 0.1208
H24 H 0.2289 1.5128 0.2428
C33 C 0.1741(8) 1.5608(7) 0.0718(8)
H25 H 0.2017 1.6356 0.1468
H26 H 0.0930 1.5190 0.0372
H27 H 0.1888 1.5744 0.0151
C34 C 0.3862(9) 1.0706(6) -0.2653(6)
H28 H 0.3052 1.0249 -0.3046
H29 H 0.4224 1.0188 -0.2928
H30 H 0.3995 1.1283 -0.2856
N3 N 0.5485(5) 1.5705(5) 0.3274(5)
C35 C 0.5566(6) 1.4886(6) 0.2396(6)
H31 H 0.5370 1.4136 0.2267
C36 C 0.5872(6) 1.6889(6) 0.3557(6)
H32 H 0.6535 1.7403 0.4355
H33 H 0.5273 1.7161 0.3547
H34 H 0.6068 1.6899 0.2959
C37 C 0.5060(6) 1.5491(6) 0.3977(6)
H35 H 0.4880 1.4680 0.3730
H36 H 0.4380 1.5635 0.3857
H37 H 0.5629 1.6010 0.4827
O9A O 0.5561(4) 1.6957(3) 0.1056(4)
N1A N 0.5668(4) 1.8702(4) 0.1358(4)
C29A C 0.5416(4) 1.7587(4) 0.0672(5)
H17A H 0.5103 1.7241 -0.0168
O10A O 0.4114(4) 1.4957(4) -0.1726(4)
O11A O 0.6498(5) 1.5033(5) -0.0278(5)
C30A C 0.5510(5) 1.9402(5) 0.0863(5)
H18A H 0.5190 1.8911 -0.0010
H19A H 0.4997 1.9741 0.1057
H20A H 0.6236 2.0026 0.1209
C31A C 0.6934(8) 1.5325(7) -0.0661(8)
H21A H 0.6734 1.5868 -0.0816
N2A N 0.7698(6) 1.5069(6) -0.0956(7)
C32A C 0.7966(8) 1.5518(7) -0.1611(8)
H22A H 0.7589 1.6032 -0.1643
H23A H 0.8781 1.5958 -0.1208
H24A H 0.7711 1.4872 -0.2428
C33A C 0.8259(8) 1.4392(7) -0.0718(8)
H25A H 0.7983 1.3644 -0.1468
H26A H 0.9070 1.4810 -0.0372
H27A H 0.8112 1.4256 -0.0151
C34A C 0.6138(9) 1.9294(6) 0.2653(6)
H28A H 0.6948 1.9751 0.3046
H29A H 0.5776 1.9812 0.2928
H30A H 0.6005 1.8717 0.2856
N3A N 0.4515(5) 1.4295(5) -0.3274(5)
C35A C 0.4434(6) 1.5114(6) -0.2396(6)
H31A H 0.4630 1.5864 -0.2267
C36A C 0.4128(6) 1.3111(6) -0.3557(6)
H32A H 0.3465 1.2597 -0.4355
H33A H 0.4727 1.2839 -0.3547
H34A H 0.3932 1.3101 -0.2959
C37A C 0.4940(6) 1.4509(6) -0.3977(6)
H35A H 0.5120 1.5320 -0.3730
H36A H 0.5620 1.4365 -0.3857
H37A H 0.4371 1.3990 -0.4827
N4 N 0.6697(5) 1.0776(5) -0.3258(5)
C38 C 0.6944(11) 0.9797(8) -0.3836(10)
H38 H 0.6659 0.9515 -0.4685
H39 H 0.6583 0.9174 -0.3769
H40 H 0.7759 1.0034 -0.3448
C39 C 0.6926(8) 1.1220(7) -0.2049(6)
H41 H 0.6733 1.1890 -0.1759
H42 H 0.7726 1.1463 -0.1541
H43 H 0.6476 1.0613 -0.2019
O12 O 0.6098(9) 1.2117(9) -0.3388(8)
C40 C 0.6286(7) 1.1260(8) -0.3810(7)
H44 H 0.6119 1.0901 -0.4624
loop_
_geom_bond_atom_site_label_1
_geom_bond_atom_site_label_2
_geom_bond_site_symmetry_1
_geom_bond_site_symmetry_2
Cd1 O2 1_555 1_555
Cd2 O1 1_555 1_555
Si1 C2 1_555 1_555
O1 C7 1_555 1_555
O2 Cd2 1_555 1_555
O3 C6 1_555 1_555
O4 C6 1_555 1_555
O5 C11 1_555 1_555
C1 H1 1_555 1_555
O6 C28 1_555 1_555
C2 C13 1_555 1_555
C3 Si1 1_555 1_555
C4 Si1 1_555 1_555
O7 C11 1_555 1_555
C5 C7 1_555 1_555
C6 C9 1_555 1_555
C7 O2 1_555 1_555
C8 H2 1_555 1_555
C9 C8 1_555 1_555
C10 Si1 1_555 1_555
C11 C12 1_555 1_555
C12 C20 1_555 1_555
C13 H3 1_555 1_555
C14 C1 1_555 1_555
H4 C14 1_555 1_555
C15 C2 1_555 1_555
H5 C15 1_555 1_555
C16 C5 1_555 1_555
H6 C16 1_555 1_555
C17 C5 1_555 1_555
H7 C17 1_555 1_555
C18 C4 1_555 1_555
H8 C18 1_555 1_555
C19 C10 1_555 1_555
H9 C19 1_555 1_555
C20 H10 1_555 1_555
C21 C3 1_555 1_555
H11 C21 1_555 1_555
C22 C4 1_555 1_555
H12 C22 1_555 1_555
C23 C3 1_555 1_555
H13 C23 1_555 1_555
C24 C12 1_555 1_555
H14 C24 1_555 1_555
C25 C14 1_555 1_555
C26 C19 1_555 1_555
H15 C26 1_555 1_555
C27 C9 1_555 1_555
H16 C27 1_555 1_555
O8 C28 1_555 1_555
C28 C25 1_555 1_555
Cd3 O9 1_555 1_555
O9 C29 1_555 1_555
N1 C29 1_555 1_555
C29 H17 1_555 1_555
O10 Cd3 1_555 1_555
O11 Cd3 1_555 1_555
C30 N1 1_555 1_555
H18 C30 1_555 1_555
H19 C30 1_555 1_555
H20 C30 1_555 1_555
C31 O11 1_555 1_555
H21 C31 1_555 1_555
N2 C31 1_555 1_555
C32 N2 1_555 1_555
H22 C32 1_555 1_555
H23 C32 1_555 1_555
H24 C32 1_555 1_555
C33 N2 1_555 1_555
H25 C33 1_555 1_555
H26 C33 1_555 1_555
H27 C33 1_555 1_555
C34 N1 1_555 1_555
H28 C34 1_555 1_555
H29 C34 1_555 1_555
H30 C34 1_555 1_555
N3 C35 1_555 1_555
C35 O10 1_555 1_555
H31 C35 1_555 1_555
C36 N3 1_555 1_555
H32 C36 1_555 1_555
H33 C36 1_555 1_555
H34 C36 1_555 1_555
C37 N3 1_555 1_555
H35 C37 1_555 1_555
H36 C37 1_555 1_555
H37 C37 1_555 1_555
N4 C38 1_555 1_555
C38 H38 1_555 1_555
H39 C38 1_555 1_555
H40 C38 1_555 1_555
C39 N4 1_555 1_555
H41 C39 1_555 1_555
H42 C39 1_555 1_555
H43 C39 1_555 1_555
O12 C40 1_555 1_555
C40 N4 1_555 1_555
H44 C40 1_555 1_555
Cd2A O1A 1_555 1_555
Si1A C2A 1_555 1_555
O1A C7A 1_555 1_555
O2A Cd1 1_555 1_555
O3A C6A 1_555 1_555
O4A C6A 1_555 1_555
O5A C11A 1_555 1_555
C1A H1A 1_555 1_555
O6A C28A 1_555 1_555
C2A C13A 1_555 1_555
C3A Si1A 1_555 1_555
C4A Si1A 1_555 1_555
O7A C11A 1_555 1_555
C5A C7A 1_555 1_555
C6A C9A 1_555 1_555
C7A O2A 1_555 1_555
C8A H2A 1_555 1_555
C9A C8A 1_555 1_555
C10A Si1A 1_555 1_555
C11A C12A 1_555 1_555
C12A C20A 1_555 1_555
C13A H3A 1_555 1_555
C14A C1A 1_555 1_555
H4A C14A 1_555 1_555
C15A C2A 1_555 1_555
H5A C15A 1_555 1_555
C16A C5A 1_555 1_555
H6A C16A 1_555 1_555
C17A C5A 1_555 1_555
H7A C17A 1_555 1_555
C18A C4A 1_555 1_555
H8A C18A 1_555 1_555
C19A C10A 1_555 1_555
H9A C19A 1_555 1_555
C20A H10A 1_555 1_555
C21A C3A 1_555 1_555
H11A C21A 1_555 1_555
C22A C4A 1_555 1_555
H12A C22A 1_555 1_555
C23A C3A 1_555 1_555
H13A C23A 1_555 1_555
C24A C12A 1_555 1_555
H14A C24A 1_555 1_555
C25A C14A 1_555 1_555
C26A C19A 1_555 1_555
H15A C26A 1_555 1_555
C27A C9A 1_555 1_555
H16A C27A 1_555 1_555
O8A C28A 1_555 1_555
C28A C25A 1_555 1_555
Cd1_2 O8A 1_555 1_555
Cd1_3 O7A 1_555 1_555
Cd1_4 O7 1_555 1_555
Cd1_5 O8 1_555 1_555
Cd2_2 O3 1_555 1_555
Cd2_3 O5 1_555 1_555
Cd2_4 O6 1_555 1_555
Cd2A_2 O6A 1_555 1_555
Cd2A_3 O5A 1_555 1_555
Cd2A_4 O3A 1_555 1_555
O3_2 Cd2 1_555 1_555
O3A_2 Cd2A 1_555 1_555
O4_2 Cd2 1_555 1_555
O4A_2 Cd2A 1_555 1_555
O5_2 Cd2 1_555 1_555
O5A_2 Cd2A 1_555 1_555
O6_2 Cd2 1_555 1_555
O6A_2 Cd2A 1_555 1_555
O7_2 Cd1 1_555 1_555
O7A_2 Cd1 1_555 1_555
O8_2 Cd1 1_555 1_555
O8A_2 Cd1 1_555 1_555
O9A Cd3 1_555 1_555
N1A C29A 1_555 1_555
C29A O9A 1_555 1_555
H17A C29A 1_555 1_555
O10A Cd3 1_555 1_555
O11A Cd3 1_555 1_555
C30A N1A 1_555 1_555
H18A C30A 1_555 1_555
H19A C30A 1_555 1_555
H20A C30A 1_555 1_555
C31A O11A 1_555 1_555
H21A C31A 1_555 1_555
N2A C31A 1_555 1_555
C32A N2A 1_555 1_555
H22A C32A 1_555 1_555
H23A C32A 1_555 1_555
H24A C32A 1_555 1_555
C33A N2A 1_555 1_555
H25A C33A 1_555 1_555
H26A C33A 1_555 1_555
H27A C33A 1_555 1_555
C34A N1A 1_555 1_555
H28A C34A 1_555 1_555
H29A C34A 1_555 1_555
H30A C34A 1_555 1_555
N3A C35A 1_555 1_555
C35A O10A 1_555 1_555
H31A C35A 1_555 1_555
C36A N3A 1_555 1_555
H32A C36A 1_555 1_555
H33A C36A 1_555 1_555
H34A C36A 1_555 1_555
C37A N3A 1_555 1_555
H35A C37A 1_555 1_555
H36A C37A 1_555 1_555
H37A C37A 1_555 1_555
Cd2 O8_2 1_555 1_555
O4 Cd2_2 1_555 1_555
C1 C10 1_555 1_555
C8 C18 1_555 1_555
C13 C16 1_555 1_555
C15 C17 1_555 1_555
C20 C21 1_555 1_555
C22 C27 1_555 1_555
C23 C24 1_555 1_555
C25 C26 1_555 1_555
O8 Cd2_4 1_555 1_555
Cd2A O2A 1_555 1_555
Cd2A O8A_2 1_555 1_555
O4A Cd2A_4 1_555 1_555
C1A C10A 1_555 1_555
C8A C18A 1_555 1_555
C13A C16A 1_555 1_555
C15A C17A 1_555 1_555
C20A C21A 1_555 1_555
C22A C27A 1_555 1_555
C23A C24A 1_555 1_555
C25A C26A 1_555 1_555
O8A Cd2A_2 1_555 1_555

#END
