
#######################################################################
#
#                 Cambridge Crystallographic Data Centre
#                                CCDC 
#
#######################################################################
#
# If this CIF has been generated from an entry in the Cambridge 
# Structural Database, then it will include bibliographic, chemical, 
# crystal, experimental, refinement or atomic coordinate data resulting 
# from the CCDC's data processing and validation procedures.
#
#######################################################################

data_ODOMIF
_symmetry_cell_setting           monoclinic
_symmetry_space_group_name_H-M   'P 21/n'
_symmetry_Int_Tables_number      14
_space_group_name_Hall           '-P 2yn'
loop_
_symmetry_equiv_pos_site_id
_symmetry_equiv_pos_as_xyz
1 x,y,z
2 1/2-x,1/2+y,1/2-z
3 -x,-y,-z
4 1/2+x,1/2-y,1/2+z
_cell_length_a                   7.512(10)
_cell_length_b                   16.53(2)
_cell_length_c                   14.154(17)
_cell_angle_alpha                90
_cell_angle_beta                 90.71(2)
_cell_angle_gamma                90
_cell_volume                     1757.41
loop_
_atom_site_label
_atom_site_type_symbol
_atom_site_fract_x
_atom_site_fract_y
_atom_site_fract_z
Mn1 Mn 0.0000 0.5000 0.5000
Mn2 Mn 0.5000 0.5000 0.5000
O1 O 0.4109(4) 0.39264(17) 0.5698(2)
O2 O 0.1227(4) 0.41291(18) 0.5968(2)
O3 O 0.1216(4) 0.07761(18) 0.8983(2)
O4 O 0.4089(4) 0.10248(17) 0.9282(2)
O5 O 0.2493(4) 0.50623(15) 0.4034(2)
C1 C 0.3353(6) 0.3161(3) 0.7656(3)
H1 H 0.3824 0.3661 0.7829
C2 C 0.3356(6) 0.2528(2) 0.8312(3)
H2 H 0.3822 0.2616 0.8915
C3 C 0.2686(5) 0.1781(2) 0.8085(3)
C4 C 0.2007(5) 0.1635(2) 0.7149(3)
C5 C 0.1430(6) 0.0864(3) 0.6852(3)
H3 H 0.1441 0.0436 0.7278
C6 C 0.0853(8) 0.0741(3) 0.5942(4)
H4 H 0.0514 0.0225 0.5748
C7 C 0.0771(7) 0.1386(3) 0.5303(4)
H5 H 0.0345 0.1298 0.4691
C8 C 0.1303(6) 0.2134(3) 0.5565(3)
H6 H 0.1227 0.2557 0.5133
C9 C 0.1973(5) 0.2285(2) 0.6487(3)
C10 C 0.2665(5) 0.3055(2) 0.6759(3)
C11 C 0.2670(5) 0.3753(2) 0.6085(3)
C12 C 0.2661(5) 0.1145(2) 0.8836(3)
O1B O -0.4109(4) 0.60736(17) 0.4302(2)
O2B O -0.1227(4) 0.58709(18) 0.4032(2)
O3B O -0.1216(4) 0.92239(18) 0.1017(2)
O4B O -0.4089(4) 0.89752(17) 0.0718(2)
O5B O -0.2493(4) 0.49377(15) 0.5966(2)
C1B C -0.3353(6) 0.6839(3) 0.2344(3)
H1B H -0.3824 0.6339 0.2171
C2B C -0.3356(6) 0.7472(2) 0.1688(3)
H2B H -0.3822 0.7384 0.1085
C3B C -0.2686(5) 0.8219(2) 0.1915(3)
C4B C -0.2007(5) 0.8365(2) 0.2851(3)
C5B C -0.1430(6) 0.9136(3) 0.3148(3)
H3B H -0.1441 0.9564 0.2722
C6B C -0.0853(8) 0.9259(3) 0.4058(4)
H4B H -0.0514 0.9775 0.4252
C7B C -0.0771(7) 0.8614(3) 0.4697(4)
H5B H -0.0345 0.8702 0.5309
C8B C -0.1303(6) 0.7866(3) 0.4435(3)
H6B H -0.1227 0.7443 0.4867
C9B C -0.1973(5) 0.7715(2) 0.3513(3)
C10B C -0.2665(5) 0.6945(2) 0.3241(3)
C11B C -0.2670(5) 0.6247(2) 0.3915(3)
C12B C -0.2661(5) 0.8855(2) 0.1164(3)
Mn1A Mn -0.5000 1.0000 0.0000
Mn1A_2 Mn 0.5000 0.0000 1.0000
Mn2_2 Mn -0.5000 0.5000 0.5000
Mn2A Mn 0.0000 0.0000 1.0000
Mn2A_2 Mn 0.0000 1.0000 0.0000
O1B_2 O 0.5891(4) 0.60736(17) 0.4302(2)
O3A O 0.3784(4) 0.57761(18) 0.6017(2)
O3C O 0.6216(4) 0.42239(18) 0.3983(2)
O4A O 0.0911(4) 0.60248(17) 0.5718(2)
O4C O -0.0911(4) 0.39752(17) 0.4282(2)
O5B_2 O 0.7507(4) 0.49377(15) 0.5966(2)
O6 O 0.1824(6) 0.6392(2) 0.3059(3)
H7 H 0.224(8) 0.682(4) 0.321(4)
H8 H 0.092(10) 0.643(4) 0.328(5)
N1 N -0.1750(5) 0.7077(2) 0.8343(3)
N2 N -0.0839(5) 0.5969(2) 0.9308(3)
N3 N -0.1815(5) 0.5754(2) 0.7703(3)
N4 N -0.2767(7) 0.6874(3) 0.6737(4)
H9 H -0.3880 0.7143 0.6843
H10 H -0.2945 0.6441 0.6292
H11 H -0.1927 0.7254 0.6484
N5 N -0.0748(6) 0.7275(2) 0.9863(3)
H12 H -0.0307 0.6980 1.0401
H13 H -0.1812 0.7560 1.0029
H14 H 0.0132 0.7656 0.9661
C13 C -0.2073(6) 0.6547(3) 0.7647(3)
C14 C -0.1117(6) 0.6749(3) 0.9150(3)
C15 C -0.1217(7) 0.5491(3) 0.8558(4)
C16 C -0.0994(7) 0.4691(3) 0.8671(3)
H15 H -0.0574 0.4583 0.9301
H16 H -0.0139 0.4497 0.8226
H17 H -0.2110 0.4420 0.8566
loop_
_geom_bond_atom_site_label_1
_geom_bond_atom_site_label_2
_geom_bond_site_symmetry_1
_geom_bond_site_symmetry_2
Mn1 O2 1_555 1_555
Mn2 O1 1_555 1_555
O1 C11 1_555 1_555
O2 C11 1_555 1_555
O3 C12 1_555 1_555
O4 C12 1_555 1_555
O5 Mn1 1_555 1_555
C1 H1 1_555 1_555
C2 C1 1_555 1_555
H2 C2 1_555 1_555
C3 C2 1_555 1_555
C4 C3 1_555 1_555
C5 C4 1_555 1_555
H3 C5 1_555 1_555
C6 C5 1_555 1_555
H4 C6 1_555 1_555
C7 C6 1_555 1_555
H5 C7 1_555 1_555
C8 C7 1_555 1_555
H6 C8 1_555 1_555
C9 C4 1_555 1_555
C10 C1 1_555 1_555
C11 C10 1_555 1_555
C12 C3 1_555 1_555
O6 H7 1_555 1_555
H8 O6 1_555 1_555
N1 C13 1_555 1_555
N2 C14 1_555 1_555
N3 C13 1_555 1_555
N4 H9 1_555 1_555
H10 N4 1_555 1_555
H11 N4 1_555 1_555
N5 H12 1_555 1_555
H13 N5 1_555 1_555
H14 N5 1_555 1_555
C13 N4 1_555 1_555
C14 N1 1_555 1_555
C15 N2 1_555 1_555
C16 C15 1_555 1_555
H15 C16 1_555 1_555
H16 C16 1_555 1_555
H17 C16 1_555 1_555
O1B C11B 1_555 1_555
O2B Mn1 1_555 1_555
O3B C12B 1_555 1_555
O4B C12B 1_555 1_555
O5B Mn1 1_555 1_555
C1B H1B 1_555 1_555
C2B C1B 1_555 1_555
H2B C2B 1_555 1_555
C3B C2B 1_555 1_555
C4B C3B 1_555 1_555
C5B C4B 1_555 1_555
H3B C5B 1_555 1_555
C6B C5B 1_555 1_555
H4B C6B 1_555 1_555
C7B C6B 1_555 1_555
H5B C7B 1_555 1_555
C8B C7B 1_555 1_555
H6B C8B 1_555 1_555
C9B C4B 1_555 1_555
C10B C1B 1_555 1_555
C11B O2B 1_555 1_555
C12B C3B 1_555 1_555
Mn1A O4B 1_555 1_555
Mn1A_2 O4 1_555 1_555
Mn2_2 O1B 1_555 1_555
Mn2A O3 1_555 1_555
Mn2A_2 O3B 1_555 1_555
O1B_2 Mn2 1_555 1_555
O3A Mn2 1_555 1_555
O3C Mn2 1_555 1_555
O4A Mn1 1_555 1_555
O4C Mn1 1_555 1_555
O5B_2 Mn2 1_555 1_555
Mn2 O5 1_555 1_555
C8 C9 1_555 1_555
C9 C10 1_555 1_555
N3 C15 1_555 1_555
N5 C14 1_555 1_555
O5B Mn2_2 1_555 1_555
C8B C9B 1_555 1_555
C9B C10B 1_555 1_555
C10B C11B 1_555 1_555

#END
