
#######################################################################
#
#                 Cambridge Crystallographic Data Centre
#                                CCDC 
#
#######################################################################
#
# If this CIF has been generated from an entry in the Cambridge 
# Structural Database, then it will include bibliographic, chemical, 
# crystal, experimental, refinement or atomic coordinate data resulting 
# from the CCDC's data processing and validation procedures.
#
#######################################################################

data_OFORUX
_symmetry_cell_setting           monoclinic
_symmetry_space_group_name_H-M   'C 2/c'
_symmetry_Int_Tables_number      15
_space_group_name_Hall           '-C 2yn'
loop_
_symmetry_equiv_pos_site_id
_symmetry_equiv_pos_as_xyz
1 x,y,z
2 1/2+x,1/2+y,z
3 -x,y,1/2-z
4 1/2-x,1/2+y,1/2-z
5 -x,-y,-z
6 1/2-x,1/2-y,-z
7 x,-y,1/2+z
8 1/2+x,1/2-y,1/2+z
_cell_length_a                   27.620(2)
_cell_length_b                   14.4643(13)
_cell_length_c                   7.2112(6)
_cell_angle_alpha                90
_cell_angle_beta                 98.941(2)
_cell_angle_gamma                90
_cell_volume                     2845.9
loop_
_atom_site_label
_atom_site_type_symbol
_atom_site_fract_x
_atom_site_fract_y
_atom_site_fract_z
Cd1 Cd 0.5000 0.55975(3) -0.2500
Cu1 Cu 0.7500 0.7500 -0.5000
Cl1 Cl 0.44705(4) 0.44371(8) -0.09531(16)
O1 O 0.78111(11) 0.6346(2) -0.5159(5)
N1 N 0.68444(13) 0.6961(3) -0.6018(5)
N2 N 0.55303(13) 0.6829(3) -0.3037(5)
C1 C 0.76286(18) 0.5518(3) -0.5463(7)
C2 C 0.7937(2) 0.4730(4) -0.5224(8)
H1 H 0.8272 0.4811 -0.4843
C3 C 0.7756(2) 0.3851(4) -0.5537(8)
H2 H 0.7970 0.3352 -0.5366
C4 C 0.7268(2) 0.3692(4) -0.6093(8)
H3 H 0.7150 0.3090 -0.6271
C5 C 0.6949(2) 0.4436(4) -0.6391(8)
H4 H 0.6618 0.4329 -0.6801
C6 C 0.71177(18) 0.5358(3) -0.6085(7)
C7 C 0.67702(17) 0.6082(3) -0.6365(7)
H5 H 0.6451 0.5912 -0.6853
C8 C 0.63911(16) 0.7525(3) -0.6371(6)
H6 H 0.6175 0.7277 -0.7445
H7 H 0.6474 0.8154 -0.6666
C9 C 0.61290(16) 0.7530(3) -0.4687(7)
C10 C 0.62483(18) 0.8148(4) -0.3245(8)
H8 H 0.6490 0.8590 -0.3295
C11 C 0.60019(19) 0.8102(4) -0.1711(8)
H9 H 0.6078 0.8514 -0.0718
C12 C 0.56461(18) 0.7447(3) -0.1673(7)
H10 H 0.5478 0.7432 -0.0650
C13 C 0.57681(16) 0.6882(3) -0.4530(7)
H11 H 0.5686 0.6462 -0.5505
Cd1F Cd 0.5000 0.44025(3) 0.2500
Cd1F_2 Cd 0.5000 0.44025(3) -0.7500
Cu1G Cu 0.2500 0.7500 0.0000
Cl1F Cl 0.44705(4) 0.55629(8) -0.59531(16)
Cl1D Cl 0.55295(4) 0.55629(8) 0.09531(16)
Cl1B Cl 0.55295(4) 0.44371(8) -0.40469(16)
O1B O 0.21889(11) 0.6346(2) 0.0159(5)
O1E O 0.71889(11) 0.8654(2) -0.4841(5)
N1B N 0.31556(13) 0.6961(3) 0.1018(5)
N1E N 0.81556(13) 0.8039(3) -0.3982(5)
N2B N 0.44697(13) 0.6829(3) -0.1963(5)
C1B C 0.23714(18) 0.5518(3) 0.0463(7)
C2B C 0.2063(2) 0.4730(4) 0.0224(8)
H1B H 0.1728 0.4811 -0.0157
C3B C 0.2244(2) 0.3851(4) 0.0537(8)
H2B H 0.2030 0.3352 0.0366
C4B C 0.2732(2) 0.3692(4) 0.1093(8)
H3B H 0.2850 0.3090 0.1271
C5B C 0.3051(2) 0.4436(4) 0.1391(8)
H4B H 0.3382 0.4329 0.1801
C6B C 0.28823(18) 0.5358(3) 0.1085(7)
C7B C 0.32298(17) 0.6082(3) 0.1365(7)
H5B H 0.3549 0.5912 0.1853
C8B C 0.36089(16) 0.7525(3) 0.1371(6)
H6B H 0.3825 0.7277 0.2445
H7B H 0.3526 0.8154 0.1666
C9B C 0.38710(16) 0.7530(3) -0.0313(7)
C10B C 0.37517(18) 0.8148(4) -0.1755(8)
H8B H 0.3510 0.8590 -0.1705
C11B C 0.39981(19) 0.8102(4) -0.3289(8)
H9B H 0.3922 0.8514 -0.4282
C12B C 0.43539(18) 0.7447(3) -0.3327(7)
H10B H 0.4522 0.7432 -0.4350
C13B C 0.42319(16) 0.6882(3) -0.0470(7)
H11B H 0.4314 0.6462 0.0505
Cl2 Cl 0.5480(5) 0.9427(8) 0.2209(19)
C14 C 0.5000 0.844(3) 0.2500
H12 H 0.5105 0.8069 0.3588
Cl2B Cl 0.4520(5) 0.9427(8) 0.2791(19)
H12B H 0.4895 0.8069 0.1412
loop_
_geom_bond_atom_site_label_1
_geom_bond_atom_site_label_2
_geom_bond_site_symmetry_1
_geom_bond_site_symmetry_2
Cd1 Cl1 1_555 1_555
Cu1 O1 1_555 1_555
Cl1 Cd1F 1_555 1_555
O1 C1 1_555 1_555
N1 Cu1 1_555 1_555
N2 Cd1 1_555 1_555
C1 C2 1_555 1_555
C2 H1 1_555 1_555
C3 C2 1_555 1_555
H2 C3 1_555 1_555
C4 C3 1_555 1_555
H3 C4 1_555 1_555
C5 C4 1_555 1_555
H4 C5 1_555 1_555
C6 C1 1_555 1_555
C7 N1 1_555 1_555
H5 C7 1_555 1_555
C8 N1 1_555 1_555
H6 C8 1_555 1_555
H7 C8 1_555 1_555
C9 C8 1_555 1_555
C10 C9 1_555 1_555
H8 C10 1_555 1_555
C11 C10 1_555 1_555
H9 C11 1_555 1_555
C12 N2 1_555 1_555
H10 C12 1_555 1_555
C13 N2 1_555 1_555
H11 C13 1_555 1_555
Cl2 C14 1_555 1_555
C14 H12 1_555 1_555
Cd1F Cl1D 1_555 1_555
Cd1F_2 Cl1F 1_555 1_555
Cu1G O1B 1_555 1_555
Cl1F Cd1 1_555 1_555
Cl1D Cd1 1_555 1_555
Cl1B Cd1 1_555 1_555
O1B C1B 1_555 1_555
O1E Cu1 1_555 1_555
N1B Cu1G 1_555 1_555
N1E Cu1 1_555 1_555
N2B Cd1 1_555 1_555
C1B C2B 1_555 1_555
C2B H1B 1_555 1_555
C3B C2B 1_555 1_555
H2B C3B 1_555 1_555
C4B C3B 1_555 1_555
H3B C4B 1_555 1_555
C5B C4B 1_555 1_555
H4B C5B 1_555 1_555
C6B C1B 1_555 1_555
C7B N1B 1_555 1_555
H5B C7B 1_555 1_555
C8B N1B 1_555 1_555
H6B C8B 1_555 1_555
H7B C8B 1_555 1_555
C9B C8B 1_555 1_555
C10B C9B 1_555 1_555
H8B C10B 1_555 1_555
C11B C10B 1_555 1_555
H9B C11B 1_555 1_555
C12B N2B 1_555 1_555
H10B C12B 1_555 1_555
C13B N2B 1_555 1_555
H11B C13B 1_555 1_555
Cl2B C14 1_555 1_555
H12B C14 1_555 1_555
C5 C6 1_555 1_555
C6 C7 1_555 1_555
C9 C13 1_555 1_555
C11 C12 1_555 1_555
Cd1F_2 Cl1B 1_555 1_555
C5B C6B 1_555 1_555
C6B C7B 1_555 1_555
C9B C13B 1_555 1_555
C11B C12B 1_555 1_555

#END
