
#######################################################################
#
#                 Cambridge Crystallographic Data Centre
#                                CCDC 
#
#######################################################################
#
# If this CIF has been generated from an entry in the Cambridge 
# Structural Database, then it will include bibliographic, chemical, 
# crystal, experimental, refinement or atomic coordinate data resulting 
# from the CCDC's data processing and validation procedures.
#
#######################################################################

data_OGIBUD
_symmetry_cell_setting           monoclinic
_symmetry_space_group_name_H-M   'P 21/c'
_symmetry_Int_Tables_number      14
_space_group_name_Hall           '-P 2ybc'
loop_
_symmetry_equiv_pos_site_id
_symmetry_equiv_pos_as_xyz
1 x,y,z
2 -x,1/2+y,1/2-z
3 -x,-y,-z
4 x,1/2-y,1/2+z
_cell_length_a                   9.5741(3)
_cell_length_b                   14.5044(4)
_cell_length_c                   13.7329(5)
_cell_angle_alpha                90
_cell_angle_beta                 100.582(4)
_cell_angle_gamma                90
_cell_volume                     1874.61
loop_
_atom_site_label
_atom_site_type_symbol
_atom_site_fract_x
_atom_site_fract_y
_atom_site_fract_z
Zn1 Zn -0.53768(4) 0.64207(3) 0.36047(3)
O1 O -0.5413(3) 0.77785(19) 0.3740(2)
O2 O -0.4318(3) 1.1197(2) 0.2827(2)
O3 O -0.6680(3) 0.5604(2) 0.4167(2)
C1 C -0.8981(4) 0.5436(3) 0.4545(3)
C2 C -0.7935(4) 0.5922(3) 0.4019(3)
C3 C -1.0427(4) 0.5564(3) 0.4200(3)
H1 H -1.0717 0.5955 0.3664
O4 O -0.8323(4) 0.6571(3) 0.3471(3)
O5 O -1.3505(3) 0.6050(2) 0.4379(2)
O6 O -0.6569(4) 1.1495(2) 0.2943(3)
C4 C -1.2978(4) 0.5287(3) 0.4170(3)
C5 C -0.5136(5) 0.9041(3) 0.4849(3)
C6 C -0.5281(5) 0.8028(3) 0.4664(3)
C7 C -0.5390(5) 1.1173(3) 0.3251(3)
C8 C -0.5302(5) 0.9649(3) 0.4045(3)
H2 H -0.5521 0.9417 0.3404
O7 O -1.3638(3) 0.4703(2) 0.3582(2)
O8 O -0.5279(4) 0.7489(2) 0.5355(2)
C9 C -1.1450(4) 0.5128(3) 0.4630(3)
C10 C -0.5143(5) 1.0604(3) 0.4193(3)
O1B O -0.4587(3) 1.22215(19) 0.6260(2)
O2B O -0.5682(3) 0.8803(2) 0.7173(2)
O6B O -0.3431(4) 0.8505(2) 0.7057(3)
C5B C -0.4864(5) 1.0959(3) 0.5151(3)
C6B C -0.4719(5) 1.1972(3) 0.5336(3)
C7B C -0.4610(5) 0.8827(3) 0.6749(3)
C8B C -0.4698(5) 1.0351(3) 0.5955(3)
H2B H -0.4479 1.0583 0.6596
O8B O -0.4721(4) 1.2511(2) 0.4645(2)
C10B C -0.4857(5) 0.9396(3) 0.5807(3)
O3B O -1.3320(3) 0.4396(2) 0.5833(2)
C1B C -1.1019(4) 0.4564(3) 0.5455(3)
C2B C -1.2065(4) 0.4078(3) 0.5981(3)
C3B C -0.9573(4) 0.4436(3) 0.5800(3)
H1B H -0.9283 0.4045 0.6336
O4B O -1.1677(4) 0.3429(3) 0.6529(3)
O5B O -0.6495(3) 0.3950(2) 0.5621(2)
C4B C -0.7022(4) 0.4713(3) 0.5830(3)
O7B O -0.6362(3) 0.5297(2) 0.6418(2)
C9B C -0.8550(4) 0.4872(3) 0.5370(3)
Zn1B Zn -1.46232(4) 0.35793(3) 0.63953(3)
Zn1_2 Zn -1.53768(4) 0.64207(3) 0.36047(3)
Zn1A Zn -0.46232(4) 1.14207(3) 0.13953(3)
Zn1B_2 Zn -0.46232(4) 0.35793(3) 0.63953(3)
Zn1B_3 Zn -0.46232(4) 1.35793(3) 0.63953(3)
Zn1C Zn -0.53768(4) 0.85793(3) 0.86047(3)
O1B_2 O -1.4587(3) 0.22215(19) 0.6260(2)
O2A O -0.5682(3) 0.6197(2) 0.2173(2)
O2C O -1.4318(3) 0.3803(2) 0.7827(2)
O5_2 O -0.3505(3) 0.6050(2) 0.4379(2)
O5B_2 O -1.6495(3) 0.3950(2) 0.5621(2)
O9 O -1.5378(8) 0.4036(6) 0.4173(5)
loop_
_geom_bond_atom_site_label_1
_geom_bond_atom_site_label_2
_geom_bond_site_symmetry_1
_geom_bond_site_symmetry_2
Zn1 O1 1_555 1_555
O1 C6 1_555 1_555
O2 C7 1_555 1_555
O3 Zn1 1_555 1_555
C1 C2 1_555 1_555
C2 O3 1_555 1_555
C3 C1 1_555 1_555
H1 C3 1_555 1_555
O4 C2 1_555 1_555
O5 C4 1_555 1_555
O6 C7 1_555 1_555
C4 O7 1_555 1_555
C5 C6 1_555 1_555
C6 O8 1_555 1_555
C7 C10 1_555 1_555
C8 C5 1_555 1_555
H2 C8 1_555 1_555
C9 C3 1_555 1_555
C10 C8 1_555 1_555
O1B C6B 1_555 1_555
O2B C7B 1_555 1_555
O6B C7B 1_555 1_555
C5B C10 1_555 1_555
C6B C5B 1_555 1_555
C7B C10B 1_555 1_555
C8B C5B 1_555 1_555
H2B C8B 1_555 1_555
O8B C6B 1_555 1_555
C10B C5 1_555 1_555
O3B C2B 1_555 1_555
C1B C9 1_555 1_555
C2B C1B 1_555 1_555
C3B C1B 1_555 1_555
H1B C3B 1_555 1_555
O4B C2B 1_555 1_555
O5B C4B 1_555 1_555
C4B O7B 1_555 1_555
C9B C1 1_555 1_555
Zn1B O3B 1_555 1_555
Zn1_2 O5 1_555 1_555
Zn1A O2 1_555 1_555
Zn1B_2 O5B 1_555 1_555
Zn1B_3 O1B 1_555 1_555
Zn1C O2B 1_555 1_555
O1B_2 Zn1B 1_555 1_555
O2A Zn1 1_555 1_555
O2C Zn1B 1_555 1_555
O5_2 Zn1 1_555 1_555
O5B_2 Zn1B 1_555 1_555
C4 C9 1_555 1_555
C8B C10B 1_555 1_555
C3B C9B 1_555 1_555
C4B C9B 1_555 1_555

#END
