
#######################################################################
#
#                 Cambridge Crystallographic Data Centre
#                                CCDC 
#
#######################################################################
#
# If this CIF has been generated from an entry in the Cambridge 
# Structural Database, then it will include bibliographic, chemical, 
# crystal, experimental, refinement or atomic coordinate data resulting 
# from the CCDC's data processing and validation procedures.
#
#######################################################################

data_OGIDOZ
_symmetry_cell_setting           monoclinic
_symmetry_space_group_name_H-M   'P 21'
_symmetry_Int_Tables_number      4
_space_group_name_Hall           'P 2yb'
loop_
_symmetry_equiv_pos_site_id
_symmetry_equiv_pos_as_xyz
1 x,y,z
2 -x,1/2+y,-z
_cell_length_a                   11.156(10)
_cell_length_b                   41.25(2)
_cell_length_c                   12.354(11)
_cell_angle_alpha                90
_cell_angle_beta                 106.595(8)
_cell_angle_gamma                90
_cell_volume                     5448.33
loop_
_atom_site_label
_atom_site_type_symbol
_atom_site_fract_x
_atom_site_fract_y
_atom_site_fract_z
Sb1 Sb 0.22091(11) 0.26016(4) 0.03810(10)
Sb2 Sb 0.43844(10) 0.18427(3) 0.08772(9)
Sb3 Sb 0.52976(11) 0.26162(4) -0.01066(10)
Sb4 Sb 0.45637(10) 0.10132(3) 0.22853(8)
Sb5 Sb 0.13378(9) 0.06609(3) 0.04760(8)
Sb6 Sb 0.05667(10) 0.10561(3) 0.30343(9)
Sb7 Sb 0.23157(10) 0.07535(3) 0.59731(8)
Sb8 Sb 0.29862(10) 0.02080(3) 0.39597(9)
Sb9 Sb 0.57705(10) 0.00369(3) 0.24104(8)
Sb10 Sb 0.73723(10) 0.07396(3) 0.12247(9)
Sb11 Sb 0.39652(9) 0.02996(3) -0.05401(8)
Sb12 Sb 0.47309(10) -0.00966(3) -0.31046(8)
Sb13 Sb -0.04698(10) 0.09204(3) -0.24781(9)
Sb14 Sb -0.20687(10) 0.02163(3) -0.12898(9)
Sb15 Sb 0.07362(9) -0.00551(3) -0.23506(8)
Sb16 Sb 0.08601(10) -0.08983(3) -0.09814(9)
Sb17 Sb -0.01185(11) -0.17812(4) -0.04776(9)
Sb18 Sb 0.31161(11) -0.15634(4) -0.00169(11)
S1 S 0.2838(4) 0.21278(14) 0.1574(4)
S2 S 0.4064(5) 0.29458(15) 0.0845(4)
S3 S 0.1489(6) 0.28519(17) 0.1904(4)
S4 S 0.5109(4) 0.15862(12) 0.2762(4)
S5 S 0.6075(4) 0.22374(14) 0.1481(4)
S6 S 0.3658(4) 0.22937(14) -0.1175(4)
S7 S 0.2422(4) 0.11735(12) 0.1230(3)
S8 S 0.5261(4) 0.09879(12) 0.0541(3)
S9 S 0.0375(4) 0.05298(12) 0.2059(3)
S10 S -0.0569(4) 0.09633(13) -0.0514(3)
S11 S 0.0174(4) 0.08885(14) 0.4823(3)
S12 S -0.1653(4) 0.12288(12) 0.2194(4)
S13 S 0.2082(4) 0.01722(12) 0.5695(3)
S14 S 0.3225(4) 0.07848(13) 0.4242(3)
S15 S 0.3745(4) 0.02853(12) 0.1952(3)
S16 S 0.7170(4) 0.05029(12) 0.2979(3)
S17 S 0.5873(4) -0.00079(13) 0.0450(3)
S18 S 0.4925(4) 0.04214(12) -0.2126(3)
S19 S 0.2884(4) -0.02151(12) -0.1291(3)
S20 S 0.5137(4) 0.00676(15) -0.4883(3)
S21 S 0.6952(4) -0.02719(13) -0.2264(4)
S22 S -0.1869(4) 0.04527(12) -0.3051(3)
S23 S 0.1544(4) 0.06727(13) -0.2031(3)
S24 S 0.0049(4) -0.00328(12) -0.0611(3)
S25 S 0.0209(4) -0.06389(13) -0.2833(4)
S26 S -0.0756(4) -0.13123(13) -0.1706(4)
S27 S 0.1660(5) -0.19804(14) -0.1056(4)
S28 S 0.2590(5) -0.11528(15) -0.1486(4)
S29 S 0.1806(4) -0.13756(14) 0.1047(4)
Sb7_2 Sb 0.23157(10) 0.07535(3) -0.40269(8)
Sb8_2 Sb 0.29862(10) 0.02080(3) -0.60403(9)
Sb10_2 Sb -0.26277(10) 0.07396(3) 0.12247(9)
Sb14_2 Sb 0.79313(10) 0.02163(3) -0.12898(9)
Sb17A Sb 0.01185(11) 0.32188(4) 0.04776(9)
S3A S -0.1489(6) -0.21481(17) -0.1904(4)
S12_2 S 0.8347(4) 0.12288(12) 0.2194(4)
S20_2 S 0.5137(4) 0.00676(15) 0.5117(3)
S21_2 S -0.3048(4) -0.02719(13) -0.2264(4)
S23_2 S 0.1544(4) 0.06727(13) 0.7969(3)
Co1 Co 0.65200(19) 0.88535(6) 0.38437(17)
N1 N 0.8002(11) 0.8567(4) 0.4741(10)
N2 N 0.5731(11) 0.8393(4) 0.3537(10)
N3 N 0.5778(13) 0.8917(4) 0.5184(12)
N4 N 0.4868(12) 0.9091(5) 0.3041(12)
N5 N 0.7139(12) 0.8861(4) 0.2395(10)
N6 N 0.7499(12) 0.9281(4) 0.4101(10)
C1 C 0.9145(17) 0.8674(6) 0.5367(16)
H1 H 0.9325 0.8897 0.5399
C2 C 1.0057(16) 0.8453(7) 0.5967(14)
H2 H 1.0850 0.8527 0.6393
C3 C 0.9762(16) 0.8123(6) 0.5918(14)
H3 H 1.0355 0.7976 0.6344
C4 C 0.8637(16) 0.8008(5) 0.5265(13)
C5 C 0.8260(17) 0.7673(5) 0.5166(15)
H4 H 0.8809 0.7511 0.5554
C6 C 0.7128(16) 0.7597(5) 0.4522(14)
H5 H 0.6916 0.7376 0.4449
C7 C 0.6220(15) 0.7819(6) 0.3939(14)
C8 C 0.4992(15) 0.7733(6) 0.3242(13)
H6 H 0.4749 0.7515 0.3130
C9 C 0.4197(18) 0.7972(5) 0.2754(14)
H7 H 0.3394 0.7923 0.2285
C10 C 0.4588(16) 0.8294(5) 0.2958(13)
H8 H 0.3990 0.8455 0.2660
C11 C 0.6545(14) 0.8140(6) 0.4031(13)
C12 C 0.7742(15) 0.8245(4) 0.4689(12)
C13 C 0.6230(17) 0.8825(6) 0.6239(12)
H9 H 0.6983 0.8707 0.6434
C14 C 0.5671(19) 0.8889(7) 0.7086(16)
H10 H 0.6084 0.8839 0.7843
C15 C 0.4509(16) 0.9027(5) 0.6796(13)
H11 H 0.4079 0.9054 0.7343
C16 C 0.3952(18) 0.9128(6) 0.5662(15)
C17 C 0.2781(17) 0.9279(6) 0.5293(17)
H12 H 0.2322 0.9317 0.5811
C18 C 0.2310(16) 0.9370(5) 0.4228(18)
H13 H 0.1507 0.9462 0.4008
C19 C 0.2982(17) 0.9332(5) 0.3377(16)
C20 C 0.2623(16) 0.9444(6) 0.2286(17)
H14 H 0.1867 0.9557 0.2009
C21 C 0.3371(16) 0.9388(6) 0.1611(16)
H15 H 0.3139 0.9473 0.0875
C22 C 0.4486(16) 0.9207(4) 0.1979(12)
H16 H 0.4966 0.9167 0.1479
C23 C 0.4156(14) 0.9165(4) 0.3751(12)
C24 C 0.4650(16) 0.9064(5) 0.4902(13)
C25 C 0.6877(16) 0.8658(4) 0.1520(13)
H17 H 0.6384 0.8474 0.1537
C26 C 0.7305(18) 0.8708(6) 0.0586(15)
H18 H 0.7124 0.8557 -0.0008
C27 C 0.7990(19) 0.8978(6) 0.0535(15)
H19 H 0.8257 0.9017 -0.0110
C28 C 0.8291(17) 0.9192(5) 0.1414(15)
C29 C 0.8987(17) 0.9495(5) 0.1458(16)
H20 H 0.9311 0.9543 0.0853
C30 C 0.9189(16) 0.9708(6) 0.2306(13)
H21 H 0.9629 0.9902 0.2284
C31 C 0.8726(14) 0.9638(5) 0.3246(14)
C32 C 0.8873(14) 0.9854(6) 0.4161(16)
H22 H 0.9369 1.0040 0.4208
C33 C 0.8306(16) 0.9793(5) 0.4968(14)
H23 H 0.8350 0.9945 0.5545
C34 C 0.7658(15) 0.9506(6) 0.4939(13)
H24 H 0.7308 0.9463 0.5532
C35 C 0.8036(13) 0.9354(6) 0.3301(13)
C36 C 0.7806(13) 0.9142(4) 0.2339(13)
Co2 Co 0.87561(19) 0.21116(6) 0.60860(16)
N7 N 0.9474(12) 0.2051(4) 0.4738(10)
N8 N 1.0400(11) 0.1865(4) 0.6866(11)
N9 N 0.8162(13) 0.2088(4) 0.7543(12)
N10 N 0.7762(13) 0.1675(4) 0.5786(11)
N11 N 0.9523(11) 0.2576(4) 0.6489(10)
N12 N 0.7232(13) 0.2401(5) 0.5165(12)
C37 C 0.8998(17) 0.2122(5) 0.3636(14)
H25 H 0.8188 0.2210 0.3413
C38 C 0.9577(17) 0.2079(6) 0.2803(14)
H26 H 0.9208 0.2149 0.2058
C39 C 1.0731(17) 0.1926(5) 0.3117(16)
H27 H 1.1148 0.1885 0.2568
C40 C 1.1281(18) 0.1833(5) 0.4221(16)
C41 C 1.2507(18) 0.1686(5) 0.4641(16)
H28 H 1.3004 0.1658 0.4148
C42 C 1.2943(17) 0.1589(5) 0.5715(16)
H29 H 1.3733 0.1489 0.5954
C43 C 1.2250(16) 0.1632(5) 0.6506(13)
C44 C 1.2644(18) 0.1521(6) 0.7645(14)
H30 H 1.3430 0.1422 0.7920
C45 C 1.1915(18) 0.1556(5) 0.8332(16)
H31 H 1.2113 0.1461 0.9053
C46 C 1.0841(17) 0.1744(6) 0.7902(15)
H32 H 1.0373 0.1791 0.8406
C47 C 1.1116(15) 0.1796(4) 0.6157(14)
C48 C 1.0634(14) 0.1897(5) 0.5018(13)
C49 C 0.842(2) 0.2292(6) 0.8416(16)
H33 H 0.8849 0.2485 0.8360
C50 C 0.8081(19) 0.2235(6) 0.9435(17)
H34 H 0.8246 0.2386 1.0031
C51 C 0.7489(18) 0.1940(6) 0.9476(16)
H35 H 0.7339 0.1879 1.0159
C52 C 0.710(2) 0.1727(6) 0.8533(16)
C53 C 0.642(2) 0.1440(6) 0.8517(17)
H36 H 0.6160 0.1383 0.9153
C54 C 0.6124(16) 0.1242(6) 0.7600(19)
H37 H 0.5623 0.1058 0.7583
C55 C 0.6587(15) 0.1317(6) 0.6652(16)
C56 C 0.6441(15) 0.1084(5) 0.5728(15)
H38 H 0.6019 0.0885 0.5702
C57 C 0.6991(17) 0.1182(6) 0.4875(16)
H39 H 0.6899 0.1049 0.4238
C58 C 0.7656(14) 0.1468(5) 0.4960(13)
H40 H 0.8051 0.1515 0.4401
C59 C 0.7263(15) 0.1600(5) 0.6656(15)
C60 C 0.7503(16) 0.1829(6) 0.7575(13)
C61 C 1.0632(17) 0.2660(5) 0.7174(12)
H41 H 1.1223 0.2498 0.7491
C62 C 1.0926(18) 0.2981(5) 0.7426(17)
H42 H 1.1721 0.3034 0.7902
C63 C 1.0094(16) 0.3224(5) 0.7002(14)
H43 H 1.0316 0.3441 0.7191
C64 C 0.8916(15) 0.3149(4) 0.6288(12)
C65 C 0.8034(18) 0.3392(6) 0.5771(16)
H44 H 0.8193 0.3613 0.5940
C66 C 0.6914(18) 0.3289(6) 0.4995(16)
H45 H 0.6336 0.3445 0.4610
C67 C 0.6634(17) 0.2959(6) 0.4778(16)
C68 C 0.5452(16) 0.2860(6) 0.4047(15)
H46 H 0.4846 0.3013 0.3679
C69 C 0.5239(17) 0.2537(6) 0.3905(15)
H47 H 0.4483 0.2460 0.3416
C70 C 0.6153(15) 0.2316(6) 0.4495(14)
H48 H 0.5973 0.2094 0.4397
C71 C 0.7476(16) 0.2723(6) 0.5347(14)
C72 C 0.8664(17) 0.2813(4) 0.6059(12)
loop_
_geom_bond_atom_site_label_1
_geom_bond_atom_site_label_2
_geom_bond_site_symmetry_1
_geom_bond_site_symmetry_2
Sb1 S1 1_555 1_555
Sb2 S1 1_555 1_555
Sb3 S2 1_555 1_555
Sb4 S4 1_555 1_555
Sb5 S7 1_555 1_555
Sb6 S9 1_555 1_555
Sb7 S11 1_555 1_555
Sb8 S13 1_555 1_555
Sb9 S15 1_555 1_555
Sb10 S8 1_555 1_555
Sb11 S17 1_555 1_555
Sb12 S18 1_555 1_555
Sb13 S10 1_555 1_555
Sb14 S22 1_555 1_555
Sb15 S19 1_555 1_555
Sb16 S25 1_555 1_555
Sb17 S26 1_555 1_555
Sb18 S27 1_555 1_555
S2 Sb1 1_555 1_555
S3 Sb1 1_555 1_555
S4 Sb2 1_555 1_555
S5 Sb2 1_555 1_555
S6 Sb3 1_555 1_555
S7 Sb4 1_555 1_555
S8 Sb4 1_555 1_555
S9 Sb5 1_555 1_555
S10 Sb5 1_555 1_555
S11 Sb6 1_555 1_555
S12 Sb6 1_555 1_555
S13 Sb7 1_555 1_555
S14 Sb7 1_555 1_555
S15 Sb8 1_555 1_555
S16 Sb9 1_555 1_555
S17 Sb9 1_555 1_555
S18 Sb11 1_555 1_555
S19 Sb11 1_555 1_555
S20 Sb12 1_555 1_555
S21 Sb12 1_555 1_555
S22 Sb13 1_555 1_555
S23 Sb13 1_555 1_555
S24 Sb14 1_555 1_555
S25 Sb15 1_555 1_555
S26 Sb16 1_555 1_555
S27 Sb17 1_555 1_555
S28 Sb16 1_555 1_555
S29 Sb18 1_555 1_555
Co1 N1 1_555 1_555
N1 C1 1_555 1_555
N2 Co1 1_555 1_555
N3 Co1 1_555 1_555
N4 Co1 1_555 1_555
N5 Co1 1_555 1_555
N6 Co1 1_555 1_555
C1 H1 1_555 1_555
C2 C1 1_555 1_555
H2 C2 1_555 1_555
C3 C2 1_555 1_555
H3 C3 1_555 1_555
C4 C3 1_555 1_555
C5 C4 1_555 1_555
H4 C5 1_555 1_555
C6 C5 1_555 1_555
H5 C6 1_555 1_555
C7 C6 1_555 1_555
C8 C7 1_555 1_555
H6 C8 1_555 1_555
C9 C8 1_555 1_555
H7 C9 1_555 1_555
C10 N2 1_555 1_555
H8 C10 1_555 1_555
C11 N2 1_555 1_555
C12 N1 1_555 1_555
C13 N3 1_555 1_555
H9 C13 1_555 1_555
C14 C13 1_555 1_555
H10 C14 1_555 1_555
C15 C14 1_555 1_555
H11 C15 1_555 1_555
C16 C15 1_555 1_555
C17 C16 1_555 1_555
H12 C17 1_555 1_555
C18 C17 1_555 1_555
H13 C18 1_555 1_555
C19 C18 1_555 1_555
C20 C19 1_555 1_555
H14 C20 1_555 1_555
C21 C20 1_555 1_555
H15 C21 1_555 1_555
C22 N4 1_555 1_555
H16 C22 1_555 1_555
C23 N4 1_555 1_555
C24 N3 1_555 1_555
C25 N5 1_555 1_555
H17 C25 1_555 1_555
C26 C25 1_555 1_555
H18 C26 1_555 1_555
C27 C26 1_555 1_555
H19 C27 1_555 1_555
C28 C27 1_555 1_555
C29 C28 1_555 1_555
H20 C29 1_555 1_555
C30 C29 1_555 1_555
H21 C30 1_555 1_555
C31 C30 1_555 1_555
C32 C31 1_555 1_555
H22 C32 1_555 1_555
C33 C32 1_555 1_555
H23 C33 1_555 1_555
C34 N6 1_555 1_555
H24 C34 1_555 1_555
C35 N6 1_555 1_555
C36 N5 1_555 1_555
Co2 N7 1_555 1_555
N7 C37 1_555 1_555
N8 Co2 1_555 1_555
N9 Co2 1_555 1_555
N10 Co2 1_555 1_555
N11 Co2 1_555 1_555
N12 Co2 1_555 1_555
C37 H25 1_555 1_555
C38 C37 1_555 1_555
H26 C38 1_555 1_555
C39 C38 1_555 1_555
H27 C39 1_555 1_555
C40 C39 1_555 1_555
C41 C40 1_555 1_555
H28 C41 1_555 1_555
C42 C41 1_555 1_555
H29 C42 1_555 1_555
C43 C42 1_555 1_555
C44 C43 1_555 1_555
H30 C44 1_555 1_555
C45 C44 1_555 1_555
H31 C45 1_555 1_555
C46 N8 1_555 1_555
H32 C46 1_555 1_555
C47 N8 1_555 1_555
C48 N7 1_555 1_555
C49 N9 1_555 1_555
H33 C49 1_555 1_555
C50 C49 1_555 1_555
H34 C50 1_555 1_555
C51 C50 1_555 1_555
H35 C51 1_555 1_555
C52 C51 1_555 1_555
C53 C52 1_555 1_555
H36 C53 1_555 1_555
C54 C53 1_555 1_555
H37 C54 1_555 1_555
C55 C54 1_555 1_555
C56 C55 1_555 1_555
H38 C56 1_555 1_555
C57 C56 1_555 1_555
H39 C57 1_555 1_555
C58 N10 1_555 1_555
H40 C58 1_555 1_555
C59 N10 1_555 1_555
C60 N9 1_555 1_555
C61 N11 1_555 1_555
H41 C61 1_555 1_555
C62 C61 1_555 1_555
H42 C62 1_555 1_555
C63 C62 1_555 1_555
H43 C63 1_555 1_555
C64 C63 1_555 1_555
C65 C64 1_555 1_555
H44 C65 1_555 1_555
C66 C65 1_555 1_555
H45 C66 1_555 1_555
C67 C66 1_555 1_555
C68 C67 1_555 1_555
H46 C68 1_555 1_555
C69 C68 1_555 1_555
H47 C69 1_555 1_555
C70 N12 1_555 1_555
H48 C70 1_555 1_555
C71 N12 1_555 1_555
C72 N11 1_555 1_555
Sb7_2 S23 1_555 1_555
Sb8_2 S20 1_555 1_555
Sb10_2 S12 1_555 1_555
Sb14_2 S21 1_555 1_555
Sb17A S3 1_555 1_555
S3A Sb17 1_555 1_555
S12_2 Sb10 1_555 1_555
S20_2 Sb8 1_555 1_555
S21_2 Sb14 1_555 1_555
S23_2 Sb7 1_555 1_555
Sb3 S5 1_555 1_555
Sb8 S14 1_555 1_555
Sb10 S16 1_555 1_555
Sb15 S24 1_555 1_555
Sb18 S28 1_555 1_555
C4 C12 1_555 1_555
C7 C11 1_555 1_555
C9 C10 1_555 1_555
C11 C12 1_555 1_555
C16 C24 1_555 1_555
C19 C23 1_555 1_555
C21 C22 1_555 1_555
C23 C24 1_555 1_555
C28 C36 1_555 1_555
C31 C35 1_555 1_555
C33 C34 1_555 1_555
C35 C36 1_555 1_555
C40 C48 1_555 1_555
C43 C47 1_555 1_555
C45 C46 1_555 1_555
C47 C48 1_555 1_555
C52 C60 1_555 1_555
C55 C59 1_555 1_555
C57 C58 1_555 1_555
C59 C60 1_555 1_555
C64 C72 1_555 1_555
C67 C71 1_555 1_555
C69 C70 1_555 1_555
C71 C72 1_555 1_555

#END
