
#######################################################################
#
#                 Cambridge Crystallographic Data Centre
#                                CCDC 
#
#######################################################################
#
# If this CIF has been generated from an entry in the Cambridge 
# Structural Database, then it will include bibliographic, chemical, 
# crystal, experimental, refinement or atomic coordinate data resulting 
# from the CCDC's data processing and validation procedures.
#
#######################################################################

data_OGIYUZ
_symmetry_cell_setting           tetragonal
_symmetry_space_group_name_H-M   'P 42/m c m'
_symmetry_Int_Tables_number      132
_space_group_name_Hall           '-P 4c 2c'
loop_
_symmetry_equiv_pos_site_id
_symmetry_equiv_pos_as_xyz
1 x,y,z
2 -x,-y,z
3 -y,x,1/2+z
4 y,-x,1/2+z
5 -x,y,1/2-z
6 x,-y,1/2-z
7 y,x,-z
8 -y,-x,-z
9 -x,-y,-z
10 x,y,-z
11 y,-x,1/2-z
12 -y,x,1/2-z
13 x,-y,1/2+z
14 -x,y,1/2+z
15 -y,-x,z
16 y,x,z
_cell_length_a                   19.1147(4)
_cell_length_b                   19.1147(4)
_cell_length_c                   21.1495(7)
_cell_angle_alpha                90
_cell_angle_beta                 90
_cell_angle_gamma                90
_cell_volume                     7727.43
loop_
_atom_site_label
_atom_site_type_symbol
_atom_site_fract_x
_atom_site_fract_y
_atom_site_fract_z
N2 N 0.1593(12) 0.1593(12) 0.0000
C15 C 0.1288(18) 0.1763(18) -0.0586(14)
C16 C 0.1606(10) 0.1606(10) -0.1205(13)
C17 C 0.238(3) 0.1789(18) 0.0000
C18 C 0.2524(13) 0.2524(13) 0.0000
C19 C 0.176(3) 0.075(2) 0.0000
C20 C 0.161(3) 0.000(2) 0.0000
C15O C 0.1763(18) 0.1288(18) -0.0586(14)
C15F C 0.1763(18) 0.1288(18) 0.0586(14)
C15I C 0.1288(18) 0.1763(18) 0.0586(14)
C16F C 0.1606(10) 0.1606(10) 0.1205(13)
C17F C 0.1789(18) 0.238(3) 0.0000
C19F C 0.075(2) 0.176(3) 0.0000
C20F C 0.000(2) 0.161(3) 0.0000
N3 N 0.0000 0.0000 0.2500
C21 C -0.0646(10) -0.0010(8) 0.2795(9)
C22 C -0.0718(5) 0.0718(5) 0.2879(7)
C21E C -0.0646(10) 0.0010(8) 0.2205(9)
C21A C 0.0646(10) 0.0010(8) 0.2795(9)
C21D C 0.0646(10) -0.0010(8) 0.2205(9)
C21J C -0.0010(8) 0.0646(10) 0.2205(9)
C21N C 0.0010(8) 0.0646(10) 0.2795(9)
C21K C 0.0010(8) -0.0646(10) 0.2205(9)
C21O C -0.0010(8) -0.0646(10) 0.2795(9)
C22A C 0.0718(5) -0.0718(5) 0.2879(7)
C22E C -0.0718(5) -0.0718(5) 0.2121(7)
C22D C 0.0718(5) 0.0718(5) 0.2121(7)
Eu1 Eu 0.5000 0.0000 0.2500
S1 S 0.65403(9) -0.07317(8) 0.16741(7)
N1 N 0.4568(2) 0.1158(3) 0.3017(2)
C1 C 0.6525(3) -0.3475(3) 0.1694(3)
H1 H 0.6161 -0.3839 0.1644
H2 H 0.6599 -0.3401 0.2153
C2 C 0.6267(3) -0.2802(3) 0.1402(2)
C3 C 0.6484(3) -0.2164(3) 0.1646(2)
H3 H 0.6782 -0.2151 0.2006
C4 C 0.6263(3) -0.1540(3) 0.1364(3)
C5 C 0.5820(3) -0.1553(3) 0.0845(2)
H4 H 0.5663 -0.1127 0.0664
C6 C 0.5610(3) -0.2177(3) 0.0594(2)
C7 C 0.5831(3) -0.2800(3) 0.0869(2)
C8 C 0.5152(4) -0.2173(5) 0.0000
H5 H 0.4845 -0.2590 0.0000
H6 H 0.4852 -0.1751 0.0000
C9 C 0.4140(4) 0.1171(4) 0.3519(3)
H7 H 0.3997 0.0738 0.3698
C10 C 0.3895(4) 0.1788(3) 0.3791(4)
H8 H 0.3589 0.1772 0.4144
C11 C 0.4098(3) 0.2403(3) 0.3550(3)
H9 H 0.3936 0.2828 0.3732
C12 C 0.4547(3) 0.2418(3) 0.3029(3)
C13 C 0.4790(3) 0.3073(3) 0.2754(3)
H10 H 0.4650 0.3505 0.2937
C14 C 0.4766(3) 0.1781(3) 0.2765(3)
O1 O 0.5611(2) -0.3428(2) 0.06306(19)
O2 O 0.6910(3) -0.0372(2) 0.1163(2)
O3 O 0.5894(2) -0.0350(3) 0.18248(19)
O4 O 0.6957(3) -0.0875(2) 0.2225(2)
Eu1J Eu 1.0000 -0.5000 0.2500
Eu1B Eu 1.0000 -0.5000 -0.2500
Eu1H Eu 0.5000 0.0000 -0.2500
Eu1J_2 Eu 0.0000 0.5000 0.2500
Eu1B_2 Eu 0.0000 0.5000 -0.2500
S1O S 0.92683(8) -0.34597(9) 0.16741(7)
S1F S 0.92683(8) -0.34597(9) -0.16741(7)
S1I S 0.65403(9) -0.07317(8) -0.16741(7)
S1A S 0.34597(9) 0.07317(8) 0.16741(7)
S1N S 0.07317(8) 0.34597(9) 0.16741(7)
S1G S 0.07317(8) 0.34597(9) -0.16741(7)
S1H S 0.34597(9) 0.07317(8) -0.16741(7)
N1D N 0.5432(2) 0.1158(3) 0.1983(2)
N1A N 0.5432(2) -0.1158(3) 0.3017(2)
N1E N 0.4568(2) -0.1158(3) 0.1983(2)
N1O N 1.1158(3) -0.5432(2) 0.3017(2)
N1J N 1.1158(3) -0.4568(2) 0.1983(2)
N1N N 0.8842(3) -0.4568(2) 0.3017(2)
N1K N 0.8842(3) -0.5432(2) 0.1983(2)
C1F C 0.6525(3) -0.3475(3) -0.1694(3)
C1A C 0.3475(3) 0.3475(3) 0.1694(3)
C1G C 0.3475(3) 0.3475(3) -0.1694(3)
H1F H 0.6161 -0.3839 -0.1644
H1A H 0.3839 0.3839 0.1644
H1G H 0.3839 0.3839 -0.1644
H2F H 0.6599 -0.3401 -0.2153
H2A H 0.3401 0.3401 0.2153
H2G H 0.3401 0.3401 -0.2153
C2O C 0.7198(3) -0.3733(3) 0.1402(2)
C2F C 0.7198(3) -0.3733(3) -0.1402(2)
C2I C 0.6267(3) -0.2802(3) -0.1402(2)
C2A C 0.3733(3) 0.2802(3) 0.1402(2)
C2N C 0.2802(3) 0.3733(3) 0.1402(2)
C2G C 0.2802(3) 0.3733(3) -0.1402(2)
C2H C 0.3733(3) 0.2802(3) -0.1402(2)
C3O C 0.7836(3) -0.3516(3) 0.1646(2)
C3F C 0.7836(3) -0.3516(3) -0.1646(2)
C3I C 0.6484(3) -0.2164(3) -0.1646(2)
C3A C 0.3516(3) 0.2164(3) 0.1646(2)
C3N C 0.2164(3) 0.3516(3) 0.1646(2)
C3G C 0.2164(3) 0.3516(3) -0.1646(2)
C3H C 0.3516(3) 0.2164(3) -0.1646(2)
H3O H 0.7849 -0.3218 0.2006
H3I H 0.6782 -0.2151 -0.2006
H3F H 0.7849 -0.3218 -0.2006
H3A H 0.3218 0.2151 0.2006
H3N H 0.2151 0.3218 0.2006
H3H H 0.3218 0.2151 -0.2006
H3G H 0.2151 0.3218 -0.2006
C4O C 0.8460(3) -0.3737(3) 0.1364(3)
C4F C 0.8460(3) -0.3737(3) -0.1364(3)
C4I C 0.6263(3) -0.1540(3) -0.1364(3)
C4A C 0.3737(3) 0.1540(3) 0.1364(3)
C4N C 0.1540(3) 0.3737(3) 0.1364(3)
C4G C 0.1540(3) 0.3737(3) -0.1364(3)
C4H C 0.3737(3) 0.1540(3) -0.1364(3)
C5O C 0.8447(3) -0.4180(3) 0.0845(2)
C5F C 0.8447(3) -0.4180(3) -0.0845(2)
C5I C 0.5820(3) -0.1553(3) -0.0845(2)
C5A C 0.4180(3) 0.1553(3) 0.0845(2)
C5N C 0.1553(3) 0.4180(3) 0.0845(2)
C5G C 0.1553(3) 0.4180(3) -0.0845(2)
C5H C 0.4180(3) 0.1553(3) -0.0845(2)
H4O H 0.8873 -0.4337 0.0664
H4I H 0.5663 -0.1127 -0.0664
H4F H 0.8873 -0.4337 -0.0664
H4A H 0.4337 0.1127 0.0664
H4N H 0.1127 0.4337 0.0664
H4H H 0.4337 0.1127 -0.0664
H4G H 0.1127 0.4337 -0.0664
C6O C 0.7823(3) -0.4390(3) 0.0594(2)
C6F C 0.7823(3) -0.4390(3) -0.0594(2)
C6I C 0.5610(3) -0.2177(3) -0.0594(2)
C6A C 0.4390(3) 0.2177(3) 0.0594(2)
C6N C 0.2177(3) 0.4390(3) 0.0594(2)
C6G C 0.2177(3) 0.4390(3) -0.0594(2)
C6H C 0.4390(3) 0.2177(3) -0.0594(2)
C7I C 0.5831(3) -0.2800(3) -0.0869(2)
C7F C 0.7200(3) -0.4169(3) -0.0869(2)
C7O C 0.7200(3) -0.4169(3) 0.0869(2)
C7A C 0.4169(3) 0.2800(3) 0.0869(2)
C7H C 0.4169(3) 0.2800(3) -0.0869(2)
C7G C 0.2800(3) 0.4169(3) -0.0869(2)
C7N C 0.2800(3) 0.4169(3) 0.0869(2)
C8F C 0.7827(5) -0.4848(4) 0.0000
C8A C 0.4848(4) 0.2173(5) 0.0000
C8G C 0.2173(5) 0.4848(4) 0.0000
H5F H 0.7410 -0.5155 0.0000
H5A H 0.5155 0.2590 0.0000
H5G H 0.2590 0.5155 0.0000
H6F H 0.8249 -0.5148 0.0000
H6A H 0.5148 0.1751 0.0000
H6G H 0.1751 0.5148 0.0000
C9D C 0.5860(4) 0.1171(4) 0.1481(3)
C9A C 0.5860(4) -0.1171(4) 0.3519(3)
C9E C 0.4140(4) -0.1171(4) 0.1481(3)
C9O C 1.1171(4) -0.5860(4) 0.3519(3)
C9J C 1.1171(4) -0.4140(4) 0.1481(3)
C9N C 0.8829(4) -0.4140(4) 0.3519(3)
C9K C 0.8829(4) -0.5860(4) 0.1481(3)
H7D H 0.6003 0.0738 0.1302
H7A H 0.6003 -0.0738 0.3698
H7E H 0.3997 -0.0738 0.1302
H7O H 1.0738 -0.6003 0.3698
H7J H 1.0738 -0.3997 0.1302
H7N H 0.9262 -0.3997 0.3698
H7K H 0.9262 -0.6003 0.1302
C10D C 0.6105(4) 0.1788(3) 0.1209(4)
C10A C 0.6105(4) -0.1788(3) 0.3791(4)
C10E C 0.3895(4) -0.1788(3) 0.1209(4)
C10O C 1.1788(3) -0.6105(4) 0.3791(4)
C10J C 1.1788(3) -0.3895(4) 0.1209(4)
C10N C 0.8212(3) -0.3895(4) 0.3791(4)
C10K C 0.8212(3) -0.6105(4) 0.1209(4)
H8D H 0.6411 0.1772 0.0856
H8A H 0.6411 -0.1772 0.4144
H8E H 0.3589 -0.1772 0.0856
H8O H 1.1772 -0.6411 0.4144
H8J H 1.1772 -0.3589 0.0856
H8N H 0.8228 -0.3589 0.4144
H8K H 0.8228 -0.6411 0.0856
C11D C 0.5902(3) 0.2403(3) 0.1450(3)
C11A C 0.5902(3) -0.2403(3) 0.3550(3)
C11E C 0.4098(3) -0.2403(3) 0.1450(3)
C11O C 1.2403(3) -0.5902(3) 0.3550(3)
C11J C 1.2403(3) -0.4098(3) 0.1450(3)
C11N C 0.7597(3) -0.4098(3) 0.3550(3)
C11K C 0.7597(3) -0.5902(3) 0.1450(3)
H9D H 0.6064 0.2828 0.1268
H9A H 0.6064 -0.2828 0.3732
H9E H 0.3936 -0.2828 0.1268
H9O H 1.2828 -0.6064 0.3732
H9J H 1.2828 -0.3936 0.1268
H9N H 0.7172 -0.3936 0.3732
H9K H 0.7172 -0.6064 0.1268
C12D C 0.5453(3) 0.2418(3) 0.1971(3)
C12A C 0.5453(3) -0.2418(3) 0.3029(3)
C12E C 0.4547(3) -0.2418(3) 0.1971(3)
C12O C 1.2418(3) -0.5453(3) 0.3029(3)
C12J C 1.2418(3) -0.4547(3) 0.1971(3)
C12N C 0.7582(3) -0.4547(3) 0.3029(3)
C12K C 0.7582(3) -0.5453(3) 0.1971(3)
C13D C 0.5210(3) 0.3073(3) 0.2246(3)
C13A C 0.5210(3) -0.3073(3) 0.2754(3)
C13E C 0.4790(3) -0.3073(3) 0.2246(3)
C13O C 1.3073(3) -0.5210(3) 0.2754(3)
C13J C 1.3073(3) -0.4790(3) 0.2246(3)
C13N C 0.6927(3) -0.4790(3) 0.2754(3)
C13K C 0.6927(3) -0.5210(3) 0.2246(3)
H10D H 0.5350 0.3505 0.2063
H10A H 0.5350 -0.3505 0.2937
H10E H 0.4650 -0.3505 0.2063
H10O H 1.3505 -0.5350 0.2937
H10J H 1.3505 -0.4650 0.2063
H10N H 0.6495 -0.4650 0.2937
H10K H 0.6495 -0.5350 0.2063
C14D C 0.5234(3) 0.1781(3) 0.2235(3)
C14A C 0.5234(3) -0.1781(3) 0.2765(3)
C14E C 0.4766(3) -0.1781(3) 0.2235(3)
C14O C 1.1781(3) -0.5234(3) 0.2765(3)
C14J C 1.1781(3) -0.4766(3) 0.2235(3)
C14N C 0.8219(3) -0.4766(3) 0.2765(3)
C14K C 0.8219(3) -0.5234(3) 0.2235(3)
O1I O 0.5611(2) -0.3428(2) -0.06306(19)
O1F O 0.6572(2) -0.4389(2) -0.06306(19)
O1O O 0.6572(2) -0.4389(2) 0.06306(19)
O1A O 0.4389(2) 0.3428(2) 0.06306(19)
O1H O 0.4389(2) 0.3428(2) -0.06306(19)
O1G O 0.3428(2) 0.4389(2) -0.06306(19)
O1N O 0.3428(2) 0.4389(2) 0.06306(19)
O2O O 0.9628(2) -0.3090(3) 0.1163(2)
O2F O 0.9628(2) -0.3090(3) -0.1163(2)
O2I O 0.6910(3) -0.0372(2) -0.1163(2)
O2A O 0.3090(3) 0.0372(2) 0.1163(2)
O2N O 0.0372(2) 0.3090(3) 0.1163(2)
O2G O 0.0372(2) 0.3090(3) -0.1163(2)
O2H O 0.3090(3) 0.0372(2) -0.1163(2)
O3O O 0.9650(3) -0.4106(2) 0.18248(19)
O3F O 0.9650(3) -0.4106(2) -0.18248(19)
O3I O 0.5894(2) -0.0350(3) -0.18248(19)
O3A O 0.4106(2) 0.0350(3) 0.18248(19)
O3N O 0.0350(3) 0.4106(2) 0.18248(19)
O3G O 0.0350(3) 0.4106(2) -0.18248(19)
O3H O 0.4106(2) 0.0350(3) -0.18248(19)
O3D O 0.4106(2) -0.0350(3) 0.31752(19)
O3E O 0.5894(2) 0.0350(3) 0.31752(19)
O3N_2 O 1.0350(3) -0.5894(2) 0.18248(19)
O3J O 0.9650(3) -0.5894(2) 0.31752(19)
O3K O 1.0350(3) -0.4106(2) 0.31752(19)
O4O O 0.9125(2) -0.3043(3) 0.2225(2)
O4F O 0.9125(2) -0.3043(3) -0.2225(2)
O4I O 0.6957(3) -0.0875(2) -0.2225(2)
O4A O 0.3043(3) 0.0875(2) 0.2225(2)
O4N O 0.0875(2) 0.3043(3) 0.2225(2)
O4G O 0.0875(2) 0.3043(3) -0.2225(2)
O4H O 0.3043(3) 0.0875(2) -0.2225(2)
loop_
_geom_bond_atom_site_label_1
_geom_bond_atom_site_label_2
_geom_bond_site_symmetry_1
_geom_bond_site_symmetry_2
Eu1 N1 1_555 1_555
S1 C4 1_555 1_555
N1 C9 1_555 1_555
C1 H1 1_555 1_555
H2 C1 1_555 1_555
C2 C1 1_555 1_555
C3 C2 1_555 1_555
H3 C3 1_555 1_555
C4 C3 1_555 1_555
C5 C4 1_555 1_555
H4 C5 1_555 1_555
C6 C5 1_555 1_555
C7 C2 1_555 1_555
C8 C6 1_555 1_555
H5 C8 1_555 1_555
H6 C8 1_555 1_555
C9 H7 1_555 1_555
C10 C9 1_555 1_555
H8 C10 1_555 1_555
C11 C10 1_555 1_555
H9 C11 1_555 1_555
C12 C11 1_555 1_555
C13 C12 1_555 1_555
H10 C13 1_555 1_555
C14 N1 1_555 1_555
O1 C7 1_555 1_555
O2 S1 1_555 1_555
O3 Eu1 1_555 1_555
O4 S1 1_555 1_555
N2 C15 1_555 1_555
C15 C16 1_555 1_555
C16 C15O 1_555 1_555
C17 N2 1_555 1_555
C18 C17 1_555 1_555
C19 N2 1_555 1_555
C20 C19 1_555 1_555
N3 C21 1_555 1_555
C21 C22 1_555 1_555
C22 C21N 1_555 1_555
Eu1J N1O 1_555 1_555
Eu1B O3F 1_555 1_555
Eu1H O3I 1_555 1_555
Eu1J_2 O3N 1_555 1_555
Eu1B_2 O3G 1_555 1_555
S1O C4O 1_555 1_555
S1F C4F 1_555 1_555
S1I C4I 1_555 1_555
S1A C4A 1_555 1_555
S1N C4N 1_555 1_555
S1G C4G 1_555 1_555
S1H C4H 1_555 1_555
N1D Eu1 1_555 1_555
N1A Eu1 1_555 1_555
N1E Eu1 1_555 1_555
N1O C9O 1_555 1_555
N1J Eu1J 1_555 1_555
N1N Eu1J 1_555 1_555
N1K Eu1J 1_555 1_555
C1F H1F 1_555 1_555
C1A H1A 1_555 1_555
C1G H1G 1_555 1_555
H2F C1F 1_555 1_555
H2A C1A 1_555 1_555
H2G C1G 1_555 1_555
C2O C1 1_555 1_555
C2F C1F 1_555 1_555
C2I C1F 1_555 1_555
C2A C1A 1_555 1_555
C2N C1A 1_555 1_555
C2G C1G 1_555 1_555
C2H C1G 1_555 1_555
C3O C2O 1_555 1_555
C3F C2F 1_555 1_555
C3I C2I 1_555 1_555
C3A C2A 1_555 1_555
C3N C2N 1_555 1_555
C3G C2G 1_555 1_555
C3H C2H 1_555 1_555
H3O C3O 1_555 1_555
H3I C3I 1_555 1_555
H3F C3F 1_555 1_555
H3A C3A 1_555 1_555
H3N C3N 1_555 1_555
H3H C3H 1_555 1_555
H3G C3G 1_555 1_555
C4O C3O 1_555 1_555
C4F C3F 1_555 1_555
C4I C3I 1_555 1_555
C4A C3A 1_555 1_555
C4N C3N 1_555 1_555
C4G C3G 1_555 1_555
C4H C3H 1_555 1_555
C5O C4O 1_555 1_555
C5F C4F 1_555 1_555
C5I C4I 1_555 1_555
C5A C4A 1_555 1_555
C5N C4N 1_555 1_555
C5G C4G 1_555 1_555
C5H C4H 1_555 1_555
H4O C5O 1_555 1_555
H4I C5I 1_555 1_555
H4F C5F 1_555 1_555
H4A C5A 1_555 1_555
H4N C5N 1_555 1_555
H4H C5H 1_555 1_555
H4G C5G 1_555 1_555
C6O C5O 1_555 1_555
C6F C5F 1_555 1_555
C6I C8 1_555 1_555
C6A C5A 1_555 1_555
C6N C5N 1_555 1_555
C6G C5G 1_555 1_555
C6H C5H 1_555 1_555
C7I C2I 1_555 1_555
C7F C2F 1_555 1_555
C7O C2O 1_555 1_555
C7A C2A 1_555 1_555
C7H C2H 1_555 1_555
C7G C2G 1_555 1_555
C7N C2N 1_555 1_555
C8F C6O 1_555 1_555
C8A C6A 1_555 1_555
C8G C6N 1_555 1_555
H5F C8F 1_555 1_555
H5A C8A 1_555 1_555
H5G C8G 1_555 1_555
H6F C8F 1_555 1_555
H6A C8A 1_555 1_555
H6G C8G 1_555 1_555
C9D N1D 1_555 1_555
C9A N1A 1_555 1_555
C9E N1E 1_555 1_555
C9O H7O 1_555 1_555
C9J N1J 1_555 1_555
C9N N1N 1_555 1_555
C9K N1K 1_555 1_555
H7D C9D 1_555 1_555
H7A C9A 1_555 1_555
H7E C9E 1_555 1_555
H7J C9J 1_555 1_555
H7N C9N 1_555 1_555
H7K C9K 1_555 1_555
C10D C9D 1_555 1_555
C10A C9A 1_555 1_555
C10E C9E 1_555 1_555
C10O C9O 1_555 1_555
C10J C9J 1_555 1_555
C10N C9N 1_555 1_555
C10K C9K 1_555 1_555
H8D C10D 1_555 1_555
H8A C10A 1_555 1_555
H8E C10E 1_555 1_555
H8O C10O 1_555 1_555
H8J C10J 1_555 1_555
H8N C10N 1_555 1_555
H8K C10K 1_555 1_555
C11D C10D 1_555 1_555
C11A C10A 1_555 1_555
C11E C10E 1_555 1_555
C11O C10O 1_555 1_555
C11J C10J 1_555 1_555
C11N C10N 1_555 1_555
C11K C10K 1_555 1_555
H9D C11D 1_555 1_555
H9A C11A 1_555 1_555
H9E C11E 1_555 1_555
H9O C11O 1_555 1_555
H9J C11J 1_555 1_555
H9N C11N 1_555 1_555
H9K C11K 1_555 1_555
C12D C11D 1_555 1_555
C12A C11A 1_555 1_555
C12E C11E 1_555 1_555
C12O C11O 1_555 1_555
C12J C11J 1_555 1_555
C12N C11N 1_555 1_555
C12K C11K 1_555 1_555
C13D C13 1_555 1_555
C13A C12A 1_555 1_555
C13E C12E 1_555 1_555
C13O C12O 1_555 1_555
C13J C12J 1_555 1_555
C13N C12N 1_555 1_555
C13K C12K 1_555 1_555
H10D C13D 1_555 1_555
H10A C13A 1_555 1_555
H10E C13E 1_555 1_555
H10O C13O 1_555 1_555
H10J C13J 1_555 1_555
H10N C13N 1_555 1_555
H10K C13K 1_555 1_555
C14D C14 1_555 1_555
C14A N1A 1_555 1_555
C14E N1E 1_555 1_555
C14O N1O 1_555 1_555
C14J N1J 1_555 1_555
C14N N1N 1_555 1_555
C14K N1K 1_555 1_555
O1I C7I 1_555 1_555
O1F C7F 1_555 1_555
O1O C7O 1_555 1_555
O1A C7A 1_555 1_555
O1H C7H 1_555 1_555
O1G C7G 1_555 1_555
O1N C7N 1_555 1_555
O2O S1O 1_555 1_555
O2F S1F 1_555 1_555
O2I S1I 1_555 1_555
O2A S1A 1_555 1_555
O2N S1N 1_555 1_555
O2G S1G 1_555 1_555
O2H S1H 1_555 1_555
O3O Eu1J 1_555 1_555
O3F S1F 1_555 1_555
O3I S1I 1_555 1_555
O3A Eu1 1_555 1_555
O3N S1N 1_555 1_555
O3G S1G 1_555 1_555
O3H Eu1H 1_555 1_555
O3D Eu1 1_555 1_555
O3E Eu1 1_555 1_555
O3N_2 Eu1J 1_555 1_555
O3J Eu1J 1_555 1_555
O3K Eu1J 1_555 1_555
O4O S1O 1_555 1_555
O4F S1F 1_555 1_555
O4I S1I 1_555 1_555
O4A S1A 1_555 1_555
O4N S1N 1_555 1_555
O4G S1G 1_555 1_555
O4H S1H 1_555 1_555
C15O N2 1_555 1_555
C15F N2 1_555 1_555
C15I N2 1_555 1_555
C16F C15F 1_555 1_555
C17F N2 1_555 1_555
C19F N2 1_555 1_555
C20F C19F 1_555 1_555
C21E N3 1_555 1_555
C21A N3 1_555 1_555
C21D N3 1_555 1_555
C21J N3 1_555 1_555
C21N N3 1_555 1_555
C21K N3 1_555 1_555
C21O N3 1_555 1_555
C22A C21A 1_555 1_555
C22E C21E 1_555 1_555
C22D C21D 1_555 1_555
S1 O3 1_555 1_555
C6 C7 1_555 1_555
C12 C14 1_555 1_555
C15 C15O 1_555 1_555
C15 C19F 1_555 1_555
C17 C17F 1_555 1_555
C18 C17F 1_555 1_555
C19 C15O 1_555 1_555
C19 C15F 1_555 1_555
C21 C21E 1_555 1_555
C21 C21O 1_555 1_555
S1O O3O 1_555 1_555
S1A O3A 1_555 1_555
S1H O3H 1_555 1_555
N1D C14D 1_555 1_555
C5I C6I 1_555 1_555
C6O C7O 1_555 1_555
C6F C7F 1_555 1_555
C6F C8F 1_555 1_555
C6I C7I 1_555 1_555
C6A C7A 1_555 1_555
C6N C7N 1_555 1_555
C6G C7G 1_555 1_555
C6G C8G 1_555 1_555
C6H C7H 1_555 1_555
C6H C8A 1_555 1_555
C12D C13D 1_555 1_555
C12D C14D 1_555 1_555
C12A C14A 1_555 1_555
C12E C14E 1_555 1_555
C12O C14O 1_555 1_555
C12J C14J 1_555 1_555
C12N C14N 1_555 1_555
C12K C14K 1_555 1_555
C13A C13E 1_555 1_555
C13O C13J 1_555 1_555
C13N C13K 1_555 1_555
C14A C14E 1_555 1_555
C14O C14J 1_555 1_555
C14N C14K 1_555 1_555
C15F C15I 1_555 1_555
C15I C16F 1_555 1_555
C15I C19F 1_555 1_555
C21E C21J 1_555 1_555
C21A C21D 1_555 1_555
C21A C21N 1_555 1_555
C21D C21K 1_555 1_555
C21J C21N 1_555 1_555
C21J C22D 1_555 1_555
C21K C21O 1_555 1_555
C21K C22E 1_555 1_555
C21O C22A 1_555 1_555

#END
