
#######################################################################
#
#                 Cambridge Crystallographic Data Centre
#                                CCDC 
#
#######################################################################
#
# If this CIF has been generated from an entry in the Cambridge 
# Structural Database, then it will include bibliographic, chemical, 
# crystal, experimental, refinement or atomic coordinate data resulting 
# from the CCDC's data processing and validation procedures.
#
#######################################################################

data_OGUZIA
_symmetry_cell_setting           triclinic
_symmetry_space_group_name_H-M   'P -1'
_symmetry_Int_Tables_number      2
_space_group_name_Hall           '-P 1'
loop_
_symmetry_equiv_pos_site_id
_symmetry_equiv_pos_as_xyz
1 x,y,z
2 -x,-y,-z
_cell_length_a                   10.1800(14)
_cell_length_b                   11.0600(16)
_cell_length_c                   14.0137(15)
_cell_angle_alpha                68.297(4)
_cell_angle_beta                 78.859(5)
_cell_angle_gamma                72.300(7)
_cell_volume                     1390.74
loop_
_atom_site_label
_atom_site_type_symbol
_atom_site_fract_x
_atom_site_fract_y
_atom_site_fract_z
O2 O 0.3788(4) 0.6683(4) -0.4146(3)
H3 H 0.455(7) 0.593(7) -0.425(8)
H4 H 0.301(7) 0.630(10) -0.396(13)
N1 N -0.4302(4) -0.1313(4) -0.4317(3)
H5 H -0.4310 -0.2160 -0.3910
H6 H -0.3477 -0.1183 -0.4298
C1 C -0.3749(8) -0.1938(8) -0.5807(6)
H7 H -0.3979 -0.1698 -0.6498
H8 H -0.3879 -0.2816 -0.5409
H9 H -0.2800 -0.1945 -0.5823
C2 C -0.4496(6) -0.1119(5) -0.5417(4)
H10 H -0.5431 -0.1220 -0.5379
C3 C -0.5422(6) -0.0351(5) -0.3929(3)
H11 H -0.5279 -0.0485 -0.3228
H12 H -0.6299 -0.0539 -0.3910
N1A N -0.5698(4) 0.1313(4) -0.5683(3)
H5A H -0.5690 0.2160 -0.6090
H6A H -0.6523 0.1183 -0.5702
C1A C -0.6251(8) 0.1938(8) -0.4193(6)
H7A H -0.6021 0.1698 -0.3502
H8A H -0.6121 0.2816 -0.4591
H9A H -0.7200 0.1945 -0.4177
C2A C -0.5504(6) 0.1119(5) -0.4583(4)
H10A H -0.4569 0.1220 -0.4621
C3A C -0.4578(6) 0.0351(5) -0.6071(3)
H11A H -0.4721 0.0485 -0.6772
H12A H -0.3701 0.0539 -0.6090
Zn1 Zn -1.07753(3) 0.14624(3) 0.08602(2)
Zn2 Zn -1.07846(3) 0.64801(3) 0.08304(2)
Zn3 Zn -0.62436(3) 0.01330(3) 0.17730(2)
Zn4 Zn -0.97524(12) 0.22077(11) 0.48851(10)
Zn5 Zn -1.38149(3) 0.49055(3) -0.17641(2)
P1 P -1.22506(7) 0.46867(7) 0.01775(5)
P2 P -0.77800(7) 0.03026(7) -0.01563(5)
P3 P -0.84036(7) -0.01356(7) 0.38524(6)
P4 P -0.84335(8) 0.47441(7) 0.37991(6)
O3 O -0.6856(3) 0.2111(2) 0.1581(2)
H13 H -0.635(5) 0.238(5) 0.160(4)
H14 H -0.743(5) 0.269(5) 0.114(4)
O4 O -1.3342(2) 0.4942(2) -0.05102(17)
O5 O -1.1813(2) 0.59497(19) 0.00086(15)
O6 O -1.3146(3) 0.2931(2) -0.1598(2)
H15 H -1.379(5) 0.262(5) -0.163(4)
H16 H -1.269(4) 0.250(4) -0.126(3)
O7 O -1.1015(2) 0.34952(19) 0.01357(15)
O8 O -1.4158(2) 0.5232(2) 0.16972(19)
H17 H -1.389(5) 0.584(5) 0.162(4)
O9 O -1.4889(2) 0.30865(19) 0.20216(16)
O10 O -1.2780(2) 0.18695(19) 0.17230(16)
O11 O -0.9004(2) 0.15040(18) -0.01260(15)
O12 O -0.8224(2) -0.09497(19) -0.00075(15)
O13 O -0.6715(2) 0.0027(2) 0.05536(17)
O14 O -0.5808(2) -0.0300(2) -0.15960(18)
H18 H -0.617(5) -0.082(4) -0.155(3)
O15 O -0.5088(2) 0.1866(2) -0.19989(17)
O16 O -0.7195(2) 0.3098(2) -0.17054(17)
O17 O -0.7132(2) -0.0543(2) 0.31540(16)
O18 O -0.8275(2) 0.0974(2) 0.42081(16)
O19 O -0.8680(2) -0.1346(2) 0.47591(16)
O20 O -0.9762(2) 0.1596(2) 0.21489(17)
H19 H -0.993(5) 0.218(5) 0.229(4)
O21 O -1.0289(2) -0.0404(2) 0.19302(15)
O22 O -1.0613(3) -0.1502(2) 0.35864(16)
O23 O -0.8730(2) 0.3586(2) 0.47185(16)
O24 O -0.8278(2) 0.5874(2) 0.41544(19)
H20 H -0.741(6) 0.598(5) 0.394(4)
O25 O -0.7199(2) 0.4346(2) 0.30876(16)
O26 O -0.9839(2) 0.6598(2) 0.21726(18)
H21 H -0.996(5) 0.713(4) 0.241(3)
O27 O -1.0668(2) 0.3454(2) 0.35286(17)
O28 O -1.0332(2) 0.4613(2) 0.18916(15)
C4 C -1.3050(3) 0.4171(3) 0.1508(2)
H22 H -1.235(3) 0.387(3) 0.197(2)
C5 C -1.3618(3) 0.2965(3) 0.1768(2)
C6 C -0.6934(3) 0.0798(3) -0.1475(2)
H23 H -0.759(3) 0.105(3) -0.197(2)
C7 C -0.6355(3) 0.2000(3) -0.1739(2)
C8 C -0.9942(3) 0.0565(3) 0.3103(2)
H24 H -1.069(4) 0.088(3) 0.356(3)
C9 C -1.0308(3) -0.0525(3) 0.2863(2)
C10 C -1.0005(3) 0.5519(3) 0.3106(2)
H25 H -1.078(4) 0.578(3) 0.358(3)
C11 C -1.0361(3) 0.4456(3) 0.2823(2)
Zn1A Zn -0.92247(3) -0.14624(3) -0.08602(2)
Zn1A_2 Zn -0.92247(3) 0.85376(3) -0.08602(2)
Zn1A_3 Zn -0.92247(3) -0.14624(3) 0.91398(2)
Zn2A Zn -0.92154(3) 0.35199(3) -0.08304(2)
Zn2_2 Zn -1.07846(3) -0.35199(3) 0.08304(2)
Zn3A Zn -1.37564(3) -0.01330(3) -0.17730(2)
Zn3A_2 Zn -0.37564(3) -0.01330(3) -0.17730(2)
Zn3_2 Zn -1.62436(3) 0.01330(3) 0.17730(2)
Zn3A_3 Zn -1.37564(3) -0.01330(3) 0.82270(2)
Zn4A Zn -1.02476(12) -0.22077(11) 0.51149(10)
Zn4A_2 Zn -1.02476(12) 0.77923(11) -0.48851(10)
Zn5A Zn -1.61851(3) 0.50945(3) 0.17641(2)
Zn5A_2 Zn -0.61851(3) 0.50945(3) 0.17641(2)
Zn5_2 Zn -0.38149(3) 0.49055(3) -0.17641(2)
P1A P -0.77494(7) 0.53133(7) -0.01775(5)
P2A P -1.22200(7) -0.03026(7) 0.01563(5)
P3A P -1.15964(7) 0.01356(7) 0.61476(6)
P4A P -1.15665(8) 0.52559(7) -0.37991(6)
O3A O -1.3144(3) -0.2111(2) -0.1581(2)
H13A H -1.365(5) -0.238(5) -0.160(4)
H14A H -1.257(5) -0.269(5) -0.114(4)
O4A O -0.6658(2) 0.5058(2) 0.05102(17)
O4A_2 O -1.6658(2) 0.5058(2) 0.05102(17)
O5A O -0.8187(2) 0.40503(19) -0.00086(15)
O6A O -1.6854(3) 0.7069(2) 0.1598(2)
H15A H -1.621(5) 0.738(5) 0.163(4)
H16A H -1.731(4) 0.750(4) 0.126(3)
O7A O -0.8985(2) 0.65048(19) -0.01357(15)
O7A_2 O -0.8985(2) -0.34952(19) -0.01357(15)
O8A O -0.5842(2) 0.4768(2) -0.16972(19)
O8A_2 O -1.5842(2) 0.4768(2) -0.16972(19)
H17A H -0.611(5) 0.416(5) -0.162(4)
H17A_2 H -1.611(5) 0.416(5) -0.162(4)
O9A O -0.5111(2) 0.69135(19) -0.20216(16)
O9A_2 O -1.5111(2) 0.69135(19) -0.20216(16)
O10A O -0.7220(2) 0.81305(19) -0.17230(16)
O10A_2 O -0.7220(2) -0.18695(19) -0.17230(16)
O11A O -1.0996(2) -0.15040(18) 0.01260(15)
O11A_2 O -1.0996(2) 0.84960(18) 0.01260(15)
O12A O -1.1776(2) 0.09497(19) 0.00075(15)
O13A O -1.3285(2) -0.0027(2) -0.05536(17)
O14A O -1.4192(2) 0.0300(2) 0.15960(18)
O14A_2 O -0.4192(2) 0.0300(2) 0.15960(18)
O14_2 O -1.5808(2) -0.0300(2) -0.15960(18)
H18A H -1.383(5) 0.082(4) 0.155(3)
H18A_2 H -0.383(5) 0.082(4) 0.155(3)
H18_2 H -1.617(5) -0.082(4) -0.155(3)
O15A O -1.4912(2) -0.1866(2) 0.19989(17)
O15A_2 O -0.4912(2) -0.1866(2) 0.19989(17)
O15_2 O -1.5088(2) 0.1866(2) -0.19989(17)
O16A O -1.2805(2) -0.3098(2) 0.17054(17)
O16A_2 O -1.2805(2) 0.6902(2) 0.17054(17)
O17A O -1.2868(2) 0.0543(2) 0.68460(16)
O17A_2 O -1.2868(2) 0.0543(2) -0.31540(16)
O18A O -1.1725(2) -0.0974(2) 0.57919(16)
O19A O -1.1320(2) 0.1346(2) 0.52409(16)
O20A O -1.0238(2) -0.1596(2) 0.78511(17)
O20A_2 O -1.0238(2) -0.1596(2) -0.21489(17)
H19A H -1.007(5) -0.218(5) 0.771(4)
H19A_2 H -1.007(5) -0.218(5) -0.229(4)
O21A O -0.9711(2) 0.0404(2) 0.80698(15)
O21A_2 O -0.9711(2) 0.0404(2) -0.19302(15)
O22A O -0.9387(3) 0.1502(2) 0.64136(16)
O23A O -1.1270(2) 0.6414(2) -0.47185(16)
O23A_2 O -1.1270(2) -0.3586(2) 0.52815(16)
O24A O -1.1722(2) 0.4126(2) -0.41544(19)
H20A H -1.259(6) 0.402(5) -0.394(4)
O25A O -1.2801(2) 0.5654(2) -0.30876(16)
O25_2 O -1.7199(2) 0.4346(2) 0.30876(16)
O26A O -1.0161(2) 0.3402(2) -0.21726(18)
H21A H -1.004(5) 0.287(4) -0.241(3)
O27A O -0.9332(2) 0.6546(2) -0.35286(17)
O27A_2 O -0.9332(2) -0.3454(2) 0.64714(17)
O28A O -0.9668(2) 0.5387(2) -0.18916(15)
C4A C -0.6950(3) 0.5829(3) -0.1508(2)
H22A H -0.765(3) 0.613(3) -0.197(2)
C5A C -0.6382(3) 0.7035(3) -0.1768(2)
C6A C -1.3066(3) -0.0798(3) 0.1475(2)
H23A H -1.241(3) -0.105(3) 0.197(2)
C7A C -1.3645(3) -0.2000(3) 0.1739(2)
C8A C -1.0058(3) -0.0565(3) 0.6897(2)
H24A H -0.931(4) -0.088(3) 0.644(3)
C9A C -0.9692(3) 0.0525(3) 0.7137(2)
C10A C -0.9995(3) 0.4481(3) -0.3106(2)
H25A H -0.922(4) 0.422(3) -0.358(3)
C11A C -0.9639(3) 0.5544(3) -0.2823(2)
O1 O 0.4192(4) 0.6266(4) -0.6090(3)
H1 H 0.507(5) 0.559(7) -0.611(5)
H2 H 0.418(4) 0.642(4) -0.547(2)
Zn6? Zn 0.0056(5) 0.2425(5) -0.5039(3)
loop_
_geom_bond_atom_site_label_1
_geom_bond_atom_site_label_2
_geom_bond_site_symmetry_1
_geom_bond_site_symmetry_2
O1 H1 1_555 1_555
H2 O1 1_555 1_555
O2 H3 1_555 1_555
H4 O2 1_555 1_555
N1 H5 1_555 1_555
H6 N1 1_555 1_555
C1 H7 1_555 1_555
H8 C1 1_555 1_555
H9 C1 1_555 1_555
C2 N1 1_555 1_555
H10 C2 1_555 1_555
C3 N1 1_555 1_555
H11 C3 1_555 1_555
H12 C3 1_555 1_555
Zn1 O7 1_555 1_555
Zn2 O5 1_555 1_555
Zn3 O3 1_555 1_555
Zn4 O18 1_555 1_555
Zn5 O4 1_555 1_555
P1 O4 1_555 1_555
P2 O11 1_555 1_555
P3 O17 1_555 1_555
P4 O23 1_555 1_555
O3 H13 1_555 1_555
H14 O3 1_555 1_555
O5 P1 1_555 1_555
O6 Zn5 1_555 1_555
H15 O6 1_555 1_555
H16 O6 1_555 1_555
O7 P1 1_555 1_555
O8 H17 1_555 1_555
O9 C5 1_555 1_555
O10 Zn1 1_555 1_555
O11 Zn1 1_555 1_555
O12 P2 1_555 1_555
O13 Zn3 1_555 1_555
O14 H18 1_555 1_555
O15 C7 1_555 1_555
O16 C7 1_555 1_555
O17 Zn3 1_555 1_555
O18 P3 1_555 1_555
O19 P3 1_555 1_555
O20 Zn1 1_555 1_555
H19 O20 1_555 1_555
O21 Zn1 1_555 1_555
O22 C9 1_555 1_555
O23 Zn4 1_555 1_555
O24 P4 1_555 1_555
H20 O24 1_555 1_555
O25 P4 1_555 1_555
O26 H21 1_555 1_555
O27 Zn4 1_555 1_555
O28 Zn2 1_555 1_555
C4 P1 1_555 1_555
H22 C4 1_555 1_555
C5 O10 1_555 1_555
C6 P2 1_555 1_555
H23 C6 1_555 1_555
C7 C6 1_555 1_555
C8 P3 1_555 1_555
H24 C8 1_555 1_555
C9 O21 1_555 1_555
C10 P4 1_555 1_555
H25 C10 1_555 1_555
C11 O27 1_555 1_555
N1A H5A 1_555 1_555
H6A N1A 1_555 1_555
C1A H7A 1_555 1_555
H8A C1A 1_555 1_555
H9A C1A 1_555 1_555
C2A C3 1_555 1_555
H10A C2A 1_555 1_555
C3A C2 1_555 1_555
H11A C3A 1_555 1_555
H12A C3A 1_555 1_555
Zn1A O12 1_555 1_555
Zn1A_2 O7A 1_555 1_555
Zn1A_3 O20A 1_555 1_555
Zn2A O7 1_555 1_555
Zn2_2 O7A_2 1_555 1_555
Zn3A O3A 1_555 1_555
Zn3A_2 O14 1_555 1_555
Zn3_2 O14A 1_555 1_555
Zn3A_3 O17A 1_555 1_555
Zn4A O19 1_555 1_555
Zn4A_2 O23A 1_555 1_555
Zn5A O8 1_555 1_555
Zn5A_2 O25 1_555 1_555
Zn5_2 O8A 1_555 1_555
P1A O4A 1_555 1_555
P2A O11A 1_555 1_555
P3A O17A 1_555 1_555
P4A O23A 1_555 1_555
O3A H13A 1_555 1_555
H14A O3A 1_555 1_555
O4A Zn5A_2 1_555 1_555
O4A_2 Zn5A 1_555 1_555
O5A Zn2A 1_555 1_555
O6A Zn5A 1_555 1_555
H15A O6A 1_555 1_555
H16A O6A 1_555 1_555
O7A Zn2 1_555 1_555
O7A_2 Zn1A 1_555 1_555
O8A H17A 1_555 1_555
O8A_2 Zn5 1_555 1_555
H17A_2 O8A_2 1_555 1_555
O9A Zn5_2 1_555 1_555
O9A_2 Zn5 1_555 1_555
O10A Zn1A_2 1_555 1_555
O10A_2 Zn1A 1_555 1_555
O11A Zn1A 1_555 1_555
O11A_2 Zn2 1_555 1_555
O12A Zn1 1_555 1_555
O13A Zn3A 1_555 1_555
O14A H18A 1_555 1_555
O14A_2 Zn3 1_555 1_555
O14_2 Zn3A 1_555 1_555
H18A_2 O14A_2 1_555 1_555
H18_2 O14_2 1_555 1_555
O15A Zn3_2 1_555 1_555
O15A_2 Zn3 1_555 1_555
O15_2 Zn3A 1_555 1_555
O16A Zn2_2 1_555 1_555
O16A_2 Zn2 1_555 1_555
O17A_2 Zn3A 1_555 1_555
O18A Zn4A 1_555 1_555
O19A Zn4 1_555 1_555
O20A H19A 1_555 1_555
O20A_2 Zn1A 1_555 1_555
H19A_2 O20A_2 1_555 1_555
O21A Zn1A_3 1_555 1_555
O21A_2 Zn1A 1_555 1_555
O22A Zn4 1_555 1_555
O23A_2 Zn4A 1_555 1_555
O24A P4A 1_555 1_555
H20A O24A 1_555 1_555
O25A Zn5 1_555 1_555
O25_2 Zn5A 1_555 1_555
O26A H21A 1_555 1_555
O27A Zn4A_2 1_555 1_555
O27A_2 Zn4A 1_555 1_555
O28A Zn2A 1_555 1_555
C4A P1A 1_555 1_555
H22A C4A 1_555 1_555
C5A O9A 1_555 1_555
C6A P2A 1_555 1_555
H23A C6A 1_555 1_555
C7A O15A 1_555 1_555
C8A P3A 1_555 1_555
H24A C8A 1_555 1_555
C9A O21A 1_555 1_555
C10A P4A 1_555 1_555
H25A C10A 1_555 1_555
C11A O27A 1_555 1_555
C1 C2 1_555 1_555
P2 O13 1_555 1_555
O8 C4 1_555 1_555
O9 Zn5A 1_555 1_555
O11 Zn2A 1_555 1_555
O14 C6 1_555 1_555
O15 Zn3A_2 1_555 1_555
O16 Zn2A 1_555 1_555
O20 C8 1_555 1_555
O22 Zn4A 1_555 1_555
O26 C10 1_555 1_555
O28 C11 1_555 1_555
C4 C5 1_555 1_555
C8 C9 1_555 1_555
C10 C11 1_555 1_555
N1A C2A 1_555 1_555
N1A C3A 1_555 1_555
C1A C2A 1_555 1_555
Zn1A_2 O11A_2 1_555 1_555
Zn2_2 O11A 1_555 1_555
P1A O5A 1_555 1_555
P1A O7A 1_555 1_555
P2A O12A 1_555 1_555
P2A O13A 1_555 1_555
P3A O18A 1_555 1_555
P3A O19A 1_555 1_555
P4A O25A 1_555 1_555
O8A C4A 1_555 1_555
O10A C5A 1_555 1_555
O14A C6A 1_555 1_555
O16A C7A 1_555 1_555
O20A C8A 1_555 1_555
O22A C9A 1_555 1_555
O26A C10A 1_555 1_555
O28A C11A 1_555 1_555
C4A C5A 1_555 1_555
C6A C7A 1_555 1_555
C8A C9A 1_555 1_555
C10A C11A 1_555 1_555

#END
