
#######################################################################
#
#                 Cambridge Crystallographic Data Centre
#                                CCDC 
#
#######################################################################
#
# If this CIF has been generated from an entry in the Cambridge 
# Structural Database, then it will include bibliographic, chemical, 
# crystal, experimental, refinement or atomic coordinate data resulting 
# from the CCDC's data processing and validation procedures.
#
#######################################################################

data_OHOMIH
_symmetry_cell_setting           monoclinic
_symmetry_space_group_name_H-M   'P n'
_symmetry_Int_Tables_number      7
_space_group_name_Hall           'P -2yac'
loop_
_symmetry_equiv_pos_site_id
_symmetry_equiv_pos_as_xyz
1 x,y,z
2 1/2+x,-y,1/2+z
_cell_length_a                   3.4926(10)
_cell_length_b                   9.828(3)
_cell_length_c                   17.185(5)
_cell_angle_alpha                90
_cell_angle_beta                 93.753(3)
_cell_angle_gamma                90
_cell_volume                     588.615
loop_
_atom_site_label
_atom_site_type_symbol
_atom_site_fract_x
_atom_site_fract_y
_atom_site_fract_z
Cu1 Cu 0.41888(18) -0.24095(8) 0.27198(5)
Cu2 Cu 0.8707(2) -0.45535(8) 0.39336(6)
O1 O 0.4189(17) -0.0402(5) 0.2896(3)
O2 O 0.1134(18) -0.1317(5) 0.1878(3)
O3 O 0.3698(18) 0.5910(6) 0.2144(3)
O4 O 0.8618(15) -0.2878(5) 0.3369(3)
O5 O 0.5068(19) 0.4539(6) 0.3167(3)
O6 O 0.905(2) -0.6305(6) 0.4437(4)
O7 O -0.2489(16) 0.3908(5) -0.0270(3)
O8 O -0.3765(17) 0.1682(5) -0.0319(3)
C1 C 0.1605(19) 0.1129(7) 0.1911(4)
C2 C 0.283(2) 0.2265(7) 0.2334(4)
H1 H 0.3891 0.2170 0.2842
C3 C 0.248(2) 0.3545(7) 0.1996(4)
C4 C 0.081(2) 0.3710(7) 0.1246(5)
H2 H 0.0539 0.4575 0.1030
C5 C -0.047(2) 0.2568(7) 0.0818(4)
C6 C -0.0053(18) 0.1264(7) 0.1153(4)
H3 H -0.0880 0.0498 0.0872
C7 C 0.230(2) -0.0252(7) 0.2245(4)
C8 C 0.392(2) 0.4746(7) 0.2474(4)
C9 C -0.2390(19) 0.2690(7) 0.0013(4)
Cu1_2 Cu 1.41888(18) -0.24095(8) 0.27198(5)
O4_2 O -0.1382(15) -0.2878(5) 0.3369(3)
O3_2 O 0.3698(18) -0.4090(6) 0.2144(3)
O5_2 O 0.5068(19) -0.5461(6) 0.3167(3)
O7A O 1.2511(16) -0.3908(5) 0.4730(3)
Cu1_3 Cu 0.41888(18) 0.75905(8) 0.27198(5)
Cu2_2 Cu 0.8707(2) 0.54465(8) 0.39336(6)
Cu2A Cu -0.6293(2) 0.45535(8) -0.10664(6)
O9 O 0.709(3) -0.8979(11) 0.4262(6)
O10 O 0.242(4) -0.7016(15) 0.5777(9)
loop_
_geom_bond_atom_site_label_1
_geom_bond_atom_site_label_2
_geom_bond_site_symmetry_1
_geom_bond_site_symmetry_2
Cu1 O1 1_555 1_555
Cu2 O4 1_555 1_555
O1 C7 1_555 1_555
O2 Cu1 1_555 1_555
O3 C8 1_555 1_555
O4 Cu1 1_555 1_555
O5 C8 1_555 1_555
O6 Cu2 1_555 1_555
O7 C9 1_555 1_555
O8 C9 1_555 1_555
C1 C2 1_555 1_555
C2 H1 1_555 1_555
C3 C2 1_555 1_555
C4 C3 1_555 1_555
H2 C4 1_555 1_555
C5 C4 1_555 1_555
C6 C1 1_555 1_555
H3 C6 1_555 1_555
C7 O2 1_555 1_555
C8 C3 1_555 1_555
C9 C5 1_555 1_555
Cu1_2 O4 1_555 1_555
O4_2 Cu1 1_555 1_555
O3_2 Cu1 1_555 1_555
O5_2 Cu2 1_555 1_555
O7A Cu2 1_555 1_555
Cu1_3 O3 1_555 1_555
Cu2_2 O5 1_555 1_555
Cu2A O7 1_555 1_555
C1 C7 1_555 1_555
C5 C6 1_555 1_555

#END
