
#######################################################################
#
#                 Cambridge Crystallographic Data Centre
#                                CCDC 
#
#######################################################################
#
# If this CIF has been generated from an entry in the Cambridge 
# Structural Database, then it will include bibliographic, chemical, 
# crystal, experimental, refinement or atomic coordinate data resulting 
# from the CCDC's data processing and validation procedures.
#
#######################################################################

data_OJAKUG
_symmetry_cell_setting           monoclinic
_symmetry_space_group_name_H-M   'P 21/c'
_symmetry_Int_Tables_number      14
_space_group_name_Hall           '-P 2ybc'
loop_
_symmetry_equiv_pos_site_id
_symmetry_equiv_pos_as_xyz
1 x,y,z
2 -x,1/2+y,1/2-z
3 -x,-y,-z
4 x,1/2-y,1/2+z
_cell_length_a                   15.1537(16)
_cell_length_b                   16.4660(17)
_cell_length_c                   8.9532(10)
_cell_angle_alpha                90
_cell_angle_beta                 103.587(2)
_cell_angle_gamma                90
_cell_volume                     2171.49
loop_
_atom_site_label
_atom_site_type_symbol
_atom_site_fract_x
_atom_site_fract_y
_atom_site_fract_z
Eu1 Eu -0.04332(3) 0.10646(2) 0.56362(4)
O1 O 0.0091(5) 0.0214(4) 0.7799(7)
O2 O 0.0761(5) -0.0885(4) 0.7083(8)
O3 O 0.2046(4) -0.0865(4) 0.9785(8)
O4 O 0.4096(5) 0.1310(5) 0.5631(11)
O5 O 0.6487(4) 0.0138(3) 0.7261(7)
O6 O 0.8002(4) 0.0479(3) 0.6111(7)
O7 O 0.8700(7) -0.1536(5) 0.5512(13)
O8 O 0.9149(4) -0.0352(4) 0.4904(7)
O9 O 0.7987(4) 0.1708(3) 0.4278(7)
O10 O 0.9045(5) 0.3191(4) 0.2470(7)
O11 O 0.9580(4) 0.2377(4) 0.4472(7)
C1 C 0.0646(6) -0.0345(5) 0.8032(8)
C2 C 0.1232(5) -0.0412(5) 0.9668(9)
H1 H 0.1390 0.0130 1.0064
H2 H 0.0878 -0.0666 1.0311
C3 C 0.2713(6) -0.0526(5) 0.9174(10)
C4 C 0.2680(6) 0.0251(6) 0.8551(11)
H3 H 0.2182 0.0587 0.8519
C5 C 0.3409(6) 0.0515(6) 0.7979(11)
H4 H 0.3394 0.1040 0.7588
C6 C 0.4142(6) 0.0044(5) 0.7965(10)
C7 C 0.4180(6) -0.0728(5) 0.8640(10)
H5 H 0.4686 -0.1056 0.8694
C8 C 0.3471(6) -0.1001(5) 0.9223(11)
H6 H 0.3503 -0.1516 0.9658
C9 C 0.4815(7) 0.0963(5) 0.6192(13)
C10 C 0.4915(6) 0.0316(5) 0.7314(10)
C11 C 0.5728(6) -0.0031(5) 0.7756(10)
H7 H 0.5782 -0.0438 0.8491
C12 C 0.6429(6) 0.0745(5) 0.6212(9)
C13 C 0.7219(6) 0.0910(4) 0.5705(9)
C14 C 0.7171(5) 0.1549(5) 0.4658(9)
C15 C 0.6401(6) 0.1991(5) 0.4144(10)
H8 H 0.6398 0.2419 0.3464
C16 C 0.5633(6) 0.1809(6) 0.4623(11)
H9 H 0.5100 0.2094 0.4227
C17 C 0.5645(6) 0.1195(5) 0.5707(10)
C18 C 0.7909(7) -0.0417(6) 0.6138(12)
H10 H 0.7313 -0.0576 0.5542
H11 H 0.7969 -0.0601 0.7187
C19 C 0.8634(7) -0.0805(6) 0.5474(12)
C20 C 0.8010(6) 0.2369(5) 0.3260(10)
H12 H 0.7648 0.2814 0.3500
H13 H 0.7752 0.2200 0.2211
C21 C 0.8967(6) 0.2648(5) 0.3407(9)
O12 O 0.0878(6) 0.1822(6) 0.7317(11)
H14 H 0.0696 0.1917 0.8122
H15 H 0.1270 0.1451 0.7523
Eu1B Eu 0.04332(3) -0.10646(2) 0.43638(4)
Eu1_2 Eu 0.95668(3) 0.10646(2) 0.56362(4)
Eu1B_2 Eu 1.04332(3) -0.10646(2) 0.43638(4)
Eu1C Eu 0.95668(3) 0.39354(2) 0.06362(4)
O2B O -0.0761(5) 0.0885(4) 0.2917(8)
O6_2 O -0.1998(4) 0.0479(3) 0.6111(7)
O8_2 O -0.0851(4) -0.0352(4) 0.4904(7)
O8B O 0.0851(4) 0.0352(4) 0.5096(7)
O9_2 O -0.2013(4) 0.1708(3) 0.4278(7)
O10C O -0.0955(5) 0.1809(4) 0.7470(7)
O11_2 O -0.0420(4) 0.2377(4) 0.4472(7)
O13 O 0.275(3) 0.256(2) 0.839(8)
H16 H 0.3245 0.2437 0.9029
H17 H 0.2601 0.3022 0.8617
O14 O 0.365(2) 0.3006(16) 0.619(5)
H18 H 0.4202 0.3077 0.6673
H19 H 0.3604 0.3152 0.5272
O15 O 0.134(3) 0.3288(16) 0.570(4)
H20 H 0.1169 0.3697 0.5149
H21 H 0.0860 0.3028 0.5736
loop_
_geom_bond_atom_site_label_1
_geom_bond_atom_site_label_2
_geom_bond_site_symmetry_1
_geom_bond_site_symmetry_2
Eu1 O1 1_555 1_555
O1 C1 1_555 1_555
O2 C1 1_555 1_555
O3 C2 1_555 1_555
O4 C9 1_555 1_555
O5 C11 1_555 1_555
O6 C13 1_555 1_555
O7 C19 1_555 1_555
O8 C19 1_555 1_555
O9 C14 1_555 1_555
O10 C21 1_555 1_555
O11 C21 1_555 1_555
C1 C2 1_555 1_555
C2 H1 1_555 1_555
H2 C2 1_555 1_555
C3 O3 1_555 1_555
C4 C3 1_555 1_555
H3 C4 1_555 1_555
C5 C4 1_555 1_555
H4 C5 1_555 1_555
C6 C5 1_555 1_555
C7 C6 1_555 1_555
H5 C7 1_555 1_555
C8 C3 1_555 1_555
H6 C8 1_555 1_555
C9 C10 1_555 1_555
C10 C6 1_555 1_555
C11 C10 1_555 1_555
H7 C11 1_555 1_555
C12 O5 1_555 1_555
C13 C12 1_555 1_555
C14 C13 1_555 1_555
C15 C14 1_555 1_555
H8 C15 1_555 1_555
C16 C15 1_555 1_555
H9 C16 1_555 1_555
C17 C9 1_555 1_555
C18 O6 1_555 1_555
H10 C18 1_555 1_555
H11 C18 1_555 1_555
C19 C18 1_555 1_555
C20 O9 1_555 1_555
H12 C20 1_555 1_555
H13 C20 1_555 1_555
C21 C20 1_555 1_555
O12 Eu1 1_555 1_555
H14 O12 1_555 1_555
H15 O12 1_555 1_555
O13 H16 1_555 1_555
H17 O13 1_555 1_555
O14 H18 1_555 1_555
H19 O14 1_555 1_555
O15 H20 1_555 1_555
H21 O15 1_555 1_555
Eu1B O2 1_555 1_555
Eu1_2 O6 1_555 1_555
Eu1B_2 O8 1_555 1_555
Eu1C O10 1_555 1_555
O2B Eu1 1_555 1_555
O6_2 Eu1 1_555 1_555
O8_2 Eu1 1_555 1_555
O8B Eu1 1_555 1_555
O9_2 Eu1 1_555 1_555
O10C Eu1 1_555 1_555
O11_2 Eu1 1_555 1_555
O8 Eu1_2 1_555 1_555
O9 Eu1_2 1_555 1_555
O11 Eu1_2 1_555 1_555
C7 C8 1_555 1_555
C12 C17 1_555 1_555
C16 C17 1_555 1_555
Eu1B O8_2 1_555 1_555
Eu1B O8B 1_555 1_555

#END
