
#######################################################################
#
#                 Cambridge Crystallographic Data Centre
#                                CCDC 
#
#######################################################################
#
# If this CIF has been generated from an entry in the Cambridge 
# Structural Database, then it will include bibliographic, chemical, 
# crystal, experimental, refinement or atomic coordinate data resulting 
# from the CCDC's data processing and validation procedures.
#
#######################################################################

data_OJIWIO
_symmetry_cell_setting           monoclinic
_symmetry_space_group_name_H-M   'P 21/a'
_symmetry_Int_Tables_number      14
_space_group_name_Hall           '-P 2yab'
loop_
_symmetry_equiv_pos_site_id
_symmetry_equiv_pos_as_xyz
1 x,y,z
2 1/2-x,1/2+y,-z
3 -x,-y,-z
4 1/2+x,1/2-y,z
_cell_length_a                   11.217(12)
_cell_length_b                   17.703(18)
_cell_length_c                   11.526(13)
_cell_angle_alpha                90
_cell_angle_beta                 106.917(17)
_cell_angle_gamma                90
_cell_volume                     2189.73
loop_
_atom_site_label
_atom_site_type_symbol
_atom_site_fract_x
_atom_site_fract_y
_atom_site_fract_z
C1 C 0.1840(8) 0.4335(4) -0.0441(9)
C2 C 0.2593(7) 0.3613(4) -0.0396(8)
C3 C 0.3371(8) 0.3350(4) 0.0714(8)
H1 H 0.3517 0.3652 0.1411
C4 C 0.3932(8) 0.2637(4) 0.0788(8)
H2 H 0.4441 0.2462 0.1539
C5 C 0.3742(7) 0.2186(4) -0.0238(7)
C6 C 0.3042(8) 0.2472(5) -0.1346(8)
H3 H 0.2964 0.2189 -0.2055
C7 C 0.2444(8) 0.3181(4) -0.1432(8)
H4 H 0.1949 0.336 -0.2187
C8 C 0.4235(7) 0.1376(4) -0.0144(8)
C9 C 0.7527(9) -0.0153(5) 0.3518(8)
H5 H 0.7876 -0.0354 0.2936
C10 C 0.8225(9) -0.0179(6) 0.4739(8)
H6 H 0.9028 -0.0391 0.4972
C11 C 0.7718(7) 0.0109(5) 0.5587(7)
C12 C 0.6555(9) 0.0445(6) 0.5194(8)
H7 H 0.6196 0.0662 0.5757
C13 C 0.5928(8) 0.0457(5) 0.3975(8)
H8 H 0.5146 0.0695 0.3717
C14 C 0.8110(9) -0.0528(5) 0.7556(8)
C15 C 0.8810(7) -0.0561(4) 0.8844(7)
C16 C 0.9680(7) 0.0012(4) 0.9354(7)
C17 C 0.9967(7) 0.0615(4) 0.8663(7)
C18 C 0.9321(8) 0.0632(5) 0.7333(8)
C19 C 1.0813(8) 0.1169(5) 0.9207(8)
H9 H 1.0974 0.1569 0.8737
C20 C 0.8567(8) -0.1142(5) 0.9547(8)
H10 H 0.7985 -0.1518 0.9189
N2 N 0.6393(6) 0.0143(3) 0.3144(6)
N3 N 0.8400(6) 0.0080(4) 0.6881(6)
O2 O 0.1825(5) 0.4609(3) 0.0578(6)
O3 O 0.1239(5) 0.4592(3) -0.1464(6)
O4 O 0.4707(5) 0.1125(3) 0.0930(5)
O5 O 0.4091(5) 0.1021(3) -0.1111(5)
O6 O 0.7285(6) -0.0978(3) 0.7020(5)
O7 O 0.9553(7) 0.1110(4) 0.6648(6)
Zn1 Zn 0.54105(9) 0.00777(5) 0.13535(8)
C1B C 0.8160(8) -0.4335(4) 0.0441(9)
C2B C 0.7407(7) -0.3613(4) 0.0396(8)
C3B C 0.6629(8) -0.3350(4) -0.0714(8)
H1B H 0.6483 -0.3652 -0.1411
C4B C 0.6068(8) -0.2637(4) -0.0788(8)
H2B H 0.5559 -0.2462 -0.1539
C5B C 0.6258(7) -0.2186(4) 0.0238(7)
C6B C 0.6958(8) -0.2472(5) 0.1346(8)
H3B H 0.7036 -0.2189 0.2055
C7B C 0.7556(8) -0.3181(4) 0.1432(8)
H4B H 0.8051 -0.336 0.2187
C8B C 0.5765(7) -0.1376(4) 0.0144(8)
C9B C 1.2473(9) 0.0153(5) 1.6482(8)
H5B H 1.2124 0.0354 1.7064
C10B C 1.1775(9) 0.0179(6) 1.5261(8)
H6B H 1.0972 0.0391 1.5028
C11B C 1.2282(7) -0.0109(5) 1.4413(7)
C12B C 1.3445(9) -0.0445(6) 1.4806(8)
H7B H 1.3804 -0.0662 1.4243
C13B C 1.4072(8) -0.0457(5) 1.6025(8)
H8B H 1.4854 -0.0695 1.6283
C14B C 1.1890(9) 0.0528(5) 1.2444(8)
C15B C 1.1190(7) 0.0561(4) 1.1156(7)
C16B C 1.0320(7) -0.0012(4) 1.0646(7)
C17B C 1.0033(7) -0.0615(4) 1.1337(7)
C18B C 1.0679(8) -0.0632(5) 1.2667(8)
C19B C 0.9187(8) -0.1169(5) 1.0793(8)
H9B H 0.9026 -0.1569 1.1263
C20B C 1.1433(8) 0.1142(5) 1.0453(8)
H10B H 1.2015 0.1518 1.0811
N2B N 1.3607(6) -0.0143(3) 1.6856(6)
N2B_2 N 0.3607(6) -0.0143(3) -0.3144(6)
N3B N 1.1600(6) -0.0080(4) 1.3119(6)
O2B O 0.8175(5) -0.4609(3) -0.0578(6)
O2A O 0.3175(5) -0.0391(3) -0.0578(6)
O2C O 0.6825(5) 0.0391(3) 0.0578(6)
O3B O 0.8761(5) -0.4592(3) 0.1464(6)
O3A O 0.3761(5) -0.0408(3) 0.1464(6)
O3C O 0.6239(5) 0.0408(3) -0.1464(6)
O4B O 0.5293(5) -0.1125(3) -0.0930(5)
O5B O 0.5909(5) -0.1021(3) 0.1111(5)
O6B O 1.2715(6) 0.0978(3) 1.2980(5)
O7B O 1.0447(7) -0.1110(4) 1.3352(6)
Zn1B Zn 0.45895(9) -0.00777(5) -0.13535(8)
Zn1A Zn -0.04105(9) 0.50777(5) -0.13535(8)
Zn1A_2 Zn 0.95895(9) -0.49223(5) -0.13535(8)
Zn1B_2 Zn 1.45895(9) -0.00777(5) 1.86465(8)
Zn1C Zn 0.04105(9) 0.49223(5) 0.13535(8)
Zn1C_2 Zn 1.04105(9) -0.50777(5) 0.13535(8)
C21 C 0.891(3) 0.2843(9) 0.5388(16)
H11 H 0.973 0.2771 0.596
H12 H 0.8278 0.2765 0.5796
H13 H 0.8846 0.3352 0.5066
C22 C 0.7453(18) 0.2200(10) 0.356(2)
H14 H 0.7207 0.2652 0.3073
H15 H 0.6875 0.2109 0.4025
H16 H 0.7444 0.1772 0.3028
C23 C 0.974(3) 0.1881(13) 0.442(2)
N1 N 0.8732(17) 0.2300(8) 0.4395(14)
O1 O 0.9654(12) 0.1341(9) 0.3604(11)
loop_
_geom_bond_atom_site_label_1
_geom_bond_atom_site_label_2
_geom_bond_site_symmetry_1
_geom_bond_site_symmetry_2
C1 C2 1_555 1_555
C2 C3 1_555 1_555
C3 H1 1_555 1_555
C4 C3 1_555 1_555
H2 C4 1_555 1_555
C5 C4 1_555 1_555
C6 C5 1_555 1_555
H3 C6 1_555 1_555
C7 C2 1_555 1_555
H4 C7 1_555 1_555
C8 C5 1_555 1_555
C9 H5 1_555 1_555
C10 C9 1_555 1_555
H6 C10 1_555 1_555
C11 C10 1_555 1_555
C12 C11 1_555 1_555
H7 C12 1_555 1_555
C13 C12 1_555 1_555
H8 C13 1_555 1_555
C14 C15 1_555 1_555
C15 C16 1_555 1_555
C16 C17 1_555 1_555
C17 C18 1_555 1_555
C18 N3 1_555 1_555
C19 C17 1_555 1_555
H9 C19 1_555 1_555
C20 C15 1_555 1_555
H10 C20 1_555 1_555
C21 H11 1_555 1_555
H12 C21 1_555 1_555
H13 C21 1_555 1_555
C22 H14 1_555 1_555
H15 C22 1_555 1_555
H16 C22 1_555 1_555
C23 N1 1_555 1_555
N1 C21 1_555 1_555
O1 C23 1_555 1_555
N2 C9 1_555 1_555
N3 C11 1_555 1_555
O2 C1 1_555 1_555
O3 C1 1_555 1_555
O4 C8 1_555 1_555
O5 C8 1_555 1_555
O6 C14 1_555 1_555
O7 C18 1_555 1_555
Zn1 N2 1_555 1_555
C1B C2B 1_555 1_555
C2B C3B 1_555 1_555
C3B H1B 1_555 1_555
C4B C3B 1_555 1_555
H2B C4B 1_555 1_555
C5B C4B 1_555 1_555
C6B C5B 1_555 1_555
H3B C6B 1_555 1_555
C7B C2B 1_555 1_555
H4B C7B 1_555 1_555
C8B C5B 1_555 1_555
C9B H5B 1_555 1_555
C10B C9B 1_555 1_555
H6B C10B 1_555 1_555
C11B C10B 1_555 1_555
C12B C11B 1_555 1_555
H7B C12B 1_555 1_555
C13B C12B 1_555 1_555
H8B C13B 1_555 1_555
C14B C15B 1_555 1_555
C15B C16B 1_555 1_555
C16B C16 1_555 1_555
C17B C16B 1_555 1_555
C18B C17B 1_555 1_555
C19B C20 1_555 1_555
H9B C19B 1_555 1_555
C20B C19 1_555 1_555
H10B C20B 1_555 1_555
N2B C9B 1_555 1_555
N2B_2 Zn1B 1_555 1_555
N3B C11B 1_555 1_555
O2B C1B 1_555 1_555
O2A Zn1B 1_555 1_555
O2C Zn1 1_555 1_555
O3B C1B 1_555 1_555
O3A Zn1 1_555 1_555
O3C Zn1B 1_555 1_555
O4B C8B 1_555 1_555
O5B Zn1 1_555 1_555
O6B C14B 1_555 1_555
O7B C18B 1_555 1_555
Zn1B O5 1_555 1_555
Zn1A O3 1_555 1_555
Zn1A_2 O2B 1_555 1_555
Zn1B_2 N2B 1_555 1_555
Zn1C O2 1_555 1_555
Zn1C_2 O3B 1_555 1_555
C6 C7 1_555 1_555
C13 N2 1_555 1_555
C14 N3 1_555 1_555
C22 N1 1_555 1_555
O4 Zn1 1_555 1_555
C6B C7B 1_555 1_555
C8B O5B 1_555 1_555
C13B N2B 1_555 1_555
C14B N3B 1_555 1_555
C15B C20B 1_555 1_555
C17B C19B 1_555 1_555
C18B N3B 1_555 1_555
O4B Zn1B 1_555 1_555

#END
