
#######################################################################
#
#                 Cambridge Crystallographic Data Centre
#                                CCDC 
#
#######################################################################
#
# If this CIF has been generated from an entry in the Cambridge 
# Structural Database, then it will include bibliographic, chemical, 
# crystal, experimental, refinement or atomic coordinate data resulting 
# from the CCDC's data processing and validation procedures.
#
#######################################################################

data_OJOTEM01
_symmetry_cell_setting           triclinic
_symmetry_space_group_name_H-M   'P -1'
_symmetry_Int_Tables_number      2
_space_group_name_Hall           '-P 1'
loop_
_symmetry_equiv_pos_site_id
_symmetry_equiv_pos_as_xyz
1 x,y,z
2 -x,-y,-z
_cell_length_a                   9.9992(3)
_cell_length_b                   10.6176(5)
_cell_length_c                   11.0964(3)
_cell_angle_alpha                115.4730(17)
_cell_angle_beta                 91.344(2)
_cell_angle_gamma                111.7450(19)
_cell_volume                     964.117
loop_
_atom_site_label
_atom_site_type_symbol
_atom_site_fract_x
_atom_site_fract_y
_atom_site_fract_z
Ni1 Ni 0.5000 0.0000 0.0000
N1 N 0.5303(2) 0.1307(3) 0.2095(2)
N4 N 0.5975(3) 0.2160(3) 0.4296(3)
O1 O 0.7304(2) 0.2486(2) -0.32741(19)
O2 O 0.7283(2) 0.4778(2) -0.2463(2)
O3 O 0.60280(19) 0.2814(2) -0.0798(2)
O4 O 0.70146(19) 0.17170(19) 0.00620(18)
O5 O 0.6286(2) -0.0999(2) 0.0402(2)
C7 C 0.6163(4) 0.3402(4) 0.4133(3)
C8 C 0.5734(4) 0.2867(4) 0.2771(3)
C9 C 0.5464(3) 0.0938(3) 0.3055(3)
C10 C 0.7096(3) 0.2700(3) -0.0336(2)
C11 C 0.8616(3) 0.3837(3) -0.0210(2)
C12 C 0.8871(3) 0.4445(3) -0.1122(2)
C13 C 1.0251(3) 0.5600(3) -0.0893(2)
H1 H 1.0423 0.6010 -0.1495
C14 C 0.7715(3) 0.3853(3) -0.2378(2)
H2 H 0.682(4) -0.144(4) -0.010(3)
H3 H 0.623(4) 0.223(4) 0.495(4)
H6 H 0.562(3) -0.173(3) 0.053(3)
H19 H 0.638(4) 0.433(4) 0.493(4)
H20 H 0.567(4) 0.343(4) 0.238(4)
H21 H 0.526(3) -0.001(4) 0.289(3)
Ni1_2 Ni 1.5000 1.0000 0.0000
N1A N 0.4697(2) -0.1307(3) -0.2095(2)
N4A N 0.4025(3) -0.2160(3) -0.4296(3)
O1A O 1.2696(2) 0.7514(2) 0.32741(19)
O2A O 1.2717(2) 0.5222(2) 0.2463(2)
O3A O 1.39720(19) 0.7186(2) 0.0798(2)
O4A O 1.29854(19) 0.82830(19) -0.00620(18)
O4A_2 O 0.29854(19) -0.17170(19) -0.00620(18)
O5A O 0.3714(2) 0.0999(2) -0.0402(2)
C7A C 0.3837(4) -0.3402(4) -0.4133(3)
C8A C 0.4266(4) -0.2867(4) -0.2771(3)
C9A C 0.4536(3) -0.0938(3) -0.3055(3)
C10A C 1.2904(3) 0.7300(3) 0.0336(2)
C11A C 1.1384(3) 0.6163(3) 0.0210(2)
C12A C 1.1129(3) 0.5555(3) 0.1122(2)
C13A C 0.9749(3) 0.4400(3) 0.0893(2)
H1A H 0.9577 0.3990 0.1495
C14A C 1.2285(3) 0.6147(3) 0.2378(2)
H2A H 0.318(4) 0.144(4) 0.010(3)
H3A H 0.377(4) -0.223(4) -0.495(4)
H6A H 0.438(3) 0.173(3) -0.053(3)
H19A H 0.362(4) -0.433(4) -0.493(4)
H20A H 0.433(4) -0.343(4) -0.238(4)
H21A H 0.474(3) 0.001(4) -0.289(3)
Ni2 Ni 1.0000 0.0000 0.5000
N2 N 0.9684(3) 0.1313(3) 0.4156(2)
N3 N 0.8133(2) -0.1899(3) 0.3600(2)
N5 N 0.8862(3) 0.1904(3) 0.2712(3)
N6 N 0.5807(3) -0.3497(3) 0.2691(3)
O6 O 0.8640(2) 0.0559(3) 0.6377(2)
C1 C 0.6781(3) -0.2284(4) 0.3810(4)
C2 C 0.6567(4) -0.3904(4) 0.1713(4)
C3 C 0.7999(4) -0.2926(3) 0.2271(3)
C4 C 0.8774(3) 0.0802(4) 0.3010(3)
C5 C 0.9899(5) 0.3240(4) 0.3737(4)
C6 C 1.0392(4) 0.2861(4) 0.4608(4)
H4 H 0.839(4) 0.186(4) 0.213(3)
H5 H 0.489(4) -0.387(4) 0.271(4)
H7 H 0.832(4) 0.125(4) 0.649(4)
H8 H 0.867(5) 0.048(5) 0.713(3)
H13 H 0.651(4) -0.190(4) 0.464(4)
H14 H 0.613(4) -0.476(5) 0.085(4)
H15 H 0.876(5) -0.296(4) 0.195(4)
H16 H 0.814(4) -0.010(4) 0.249(3)
H17 H 1.005(5) 0.414(6) 0.376(5)
H18 H 1.105(5) 0.357(5) 0.541(4)
N2A N 1.0316(3) -0.1313(3) 0.5844(2)
N3A N 1.1867(2) 0.1899(3) 0.6400(2)
N5A N 1.1138(3) -0.1904(3) 0.7288(3)
N6A N 1.4193(3) 0.3497(3) 0.7309(3)
O6A O 1.1360(2) -0.0559(3) 0.3623(2)
C1A C 1.3219(3) 0.2284(4) 0.6190(4)
C2A C 1.3433(4) 0.3904(4) 0.8287(4)
C3A C 1.2001(4) 0.2926(3) 0.7729(3)
C4A C 1.1226(3) -0.0802(4) 0.6990(3)
C5A C 1.0101(5) -0.3240(4) 0.6263(4)
C6A C 0.9608(4) -0.2861(4) 0.5392(4)
H4A H 1.161(4) -0.186(4) 0.787(3)
H5A H 1.511(4) 0.387(4) 0.729(4)
H7A H 1.168(4) -0.125(4) 0.351(4)
H8A H 1.133(5) -0.048(5) 0.287(3)
H13A H 1.349(4) 0.190(4) 0.536(4)
H14A H 1.387(4) 0.476(5) 0.915(4)
H15A H 1.124(5) 0.296(4) 0.805(4)
H16A H 1.186(4) 0.010(4) 0.751(3)
H17A H 0.995(5) -0.414(6) 0.624(5)
H18A H 0.895(5) -0.357(5) 0.459(4)
O7 O 0.8239(3) 0.7862(3) -0.0836(3)
H9 H 0.804(9) 0.708(7) -0.166(4)
H10 H 0.912(3) 0.822(5) -0.035(5)
O8 O 0.9009(3) 0.0501(3) 0.8860(2)
H11 H 0.874(5) -0.043(3) 0.878(5)
H12 H 0.834(4) 0.082(5) 0.922(5)
loop_
_geom_bond_atom_site_label_1
_geom_bond_atom_site_label_2
_geom_bond_site_symmetry_1
_geom_bond_site_symmetry_2
Ni1 N1 1_555 1_555
Ni2 N2 1_555 1_555
N1 C8 1_555 1_555
N2 C4 1_555 1_555
N3 Ni2 1_555 1_555
N4 C7 1_555 1_555
N5 C4 1_555 1_555
N6 C1 1_555 1_555
O1 C14 1_555 1_555
O2 C14 1_555 1_555
O3 C10 1_555 1_555
O4 Ni1 1_555 1_555
O5 Ni1 1_555 1_555
O6 Ni2 1_555 1_555
O7 H9 1_555 1_555
O8 H11 1_555 1_555
C1 N3 1_555 1_555
C2 N6 1_555 1_555
C3 N3 1_555 1_555
C4 H16 1_555 1_555
C5 N5 1_555 1_555
C6 N2 1_555 1_555
C7 C8 1_555 1_555
C8 H20 1_555 1_555
C9 N1 1_555 1_555
C10 O4 1_555 1_555
C11 C10 1_555 1_555
C12 C11 1_555 1_555
C13 C12 1_555 1_555
H1 C13 1_555 1_555
C14 C12 1_555 1_555
H2 O5 1_555 1_555
H3 N4 1_555 1_555
H4 N5 1_555 1_555
H5 N6 1_555 1_555
H6 O5 1_555 1_555
H7 O6 1_555 1_555
H8 O6 1_555 1_555
H10 O7 1_555 1_555
H12 O8 1_555 1_555
H13 C1 1_555 1_555
H14 C2 1_555 1_555
H15 C3 1_555 1_555
H17 C5 1_555 1_555
H18 C6 1_555 1_555
H19 C7 1_555 1_555
H21 C9 1_555 1_555
Ni1_2 O4A 1_555 1_555
N1A Ni1 1_555 1_555
N2A Ni2 1_555 1_555
N3A Ni2 1_555 1_555
N4A C7A 1_555 1_555
N5A C4A 1_555 1_555
N6A C1A 1_555 1_555
O1A C14A 1_555 1_555
O2A C14A 1_555 1_555
O3A C10A 1_555 1_555
O4A C10A 1_555 1_555
O4A_2 Ni1 1_555 1_555
O5A Ni1 1_555 1_555
O6A Ni2 1_555 1_555
C1A N3A 1_555 1_555
C2A N6A 1_555 1_555
C3A N3A 1_555 1_555
C4A N2A 1_555 1_555
C5A N5A 1_555 1_555
C6A N2A 1_555 1_555
C7A C8A 1_555 1_555
C8A N1A 1_555 1_555
C9A N1A 1_555 1_555
C10A C11A 1_555 1_555
C11A C13 1_555 1_555
C12A C11A 1_555 1_555
C13A C11 1_555 1_555
H1A C13A 1_555 1_555
C14A C12A 1_555 1_555
H2A O5A 1_555 1_555
H3A N4A 1_555 1_555
H4A N5A 1_555 1_555
H5A N6A 1_555 1_555
H6A O5A 1_555 1_555
H7A O6A 1_555 1_555
H8A O6A 1_555 1_555
H13A C1A 1_555 1_555
H14A C2A 1_555 1_555
H15A C3A 1_555 1_555
H16A C4A 1_555 1_555
H17A C5A 1_555 1_555
H18A C6A 1_555 1_555
H19A C7A 1_555 1_555
H20A C8A 1_555 1_555
H21A C9A 1_555 1_555
N4 C9 1_555 1_555
C2 C3 1_555 1_555
C5 C6 1_555 1_555
N4A C9A 1_555 1_555
C2A C3A 1_555 1_555
C5A C6A 1_555 1_555
C12A C13A 1_555 1_555

#END
