
#######################################################################
#
#                 Cambridge Crystallographic Data Centre
#                                CCDC 
#
#######################################################################
#
# If this CIF has been generated from an entry in the Cambridge 
# Structural Database, then it will include bibliographic, chemical, 
# crystal, experimental, refinement or atomic coordinate data resulting 
# from the CCDC's data processing and validation procedures.
#
#######################################################################

data_ONAWEG01
_symmetry_cell_setting           orthorhombic
_symmetry_space_group_name_H-M   'F d d d'
_symmetry_Int_Tables_number      70
_space_group_name_Hall           '-F 2uv 2vw'
loop_
_symmetry_equiv_pos_site_id
_symmetry_equiv_pos_as_xyz
1 x,y,z
2 1/4-x,3/4-y,1/2+z
3 x,1/2+y,1/2+z
4 1/4-x,1/4-y,z
5 1/2+x,y,1/2+z
6 3/4-x,3/4-y,z
7 1/2+x,1/2+y,z
8 3/4-x,1/4-y,1/2+z
9 x,3/4-y,3/4-z
10 3/4-x,y,3/4-z
11 x,1/4-y,1/4-z
12 3/4-x,1/2+y,1/4-z
13 1/2+x,3/4-y,1/4-z
14 1/4-x,y,1/4-z
15 1/2+x,1/4-y,3/4-z
16 1/4-x,1/2+y,3/4-z
17 -x,-y,-z
18 3/4+x,1/4+y,1/2-z
19 -x,1/2-y,1/2-z
20 3/4+x,3/4+y,-z
21 1/2-x,-y,1/2-z
22 1/4+x,1/4+y,-z
23 1/2-x,1/2-y,-z
24 1/4+x,3/4+y,1/2-z
25 -x,1/4+y,1/4+z
26 1/4+x,-y,1/4+z
27 -x,3/4+y,3/4+z
28 1/4+x,1/2-y,3/4+z
29 1/2-x,1/4+y,3/4+z
30 3/4+x,-y,3/4+z
31 1/2-x,3/4+y,1/4+z
32 3/4+x,1/2-y,1/4+z
_cell_length_a                   12.887(2)
_cell_length_b                   17.043(3)
_cell_length_c                   24.799(4)
_cell_angle_alpha                90
_cell_angle_beta                 90
_cell_angle_gamma                90
_cell_volume                     5446.68
loop_
_atom_site_label
_atom_site_type_symbol
_atom_site_fract_x
_atom_site_fract_y
_atom_site_fract_z
Cu1 Cu -0.1250 0.3750 -0.1250
O1 O -0.1250 0.2341(3) -0.1250
N1 N 0.0818(3) 0.3382(2) -0.00097(16)
N2 N 0.1208(4) 0.4086(3) -0.0176(2)
N3 N -0.0146(3) 0.37432(19) -0.06753(15)
C1 C 0.2073(5) 0.2338(4) 0.0174(3)
H1 H 0.2394 0.2040 0.0473
H2 H 0.1666 0.1961 -0.0044
C2 C 0.1347(4) 0.2918(3) 0.0408(2)
H3 H 0.1735 0.3275 0.0649
H4 H 0.0821 0.2640 0.0628
C3 C 0.0605(4) 0.4277(3) -0.0573(2)
H5 H 0.0682 0.4749 -0.0772
C4 C 0.0018(3) 0.3193(3) -0.03100(17)
H6 H -0.0383 0.2729 -0.0271
H7 H -0.182(3) 0.200(3) -0.126(2)
Cu1S Cu 0.6250 0.1250 0.1250
Cu1P Cu -0.8750 0.6250 0.1250
O1E O -0.1250 0.5159(3) -0.1250
N1V N 0.4182(3) 0.1618(2) 0.00097(16)
N1E N -0.3318(3) 0.4118(2) -0.00097(16)
N1U N -0.6682(3) 0.5882(2) 0.00097(16)
N2V N 0.3792(4) 0.0914(3) 0.0176(2)
N2E N -0.3708(4) 0.3414(3) -0.0176(2)
N2U N -0.6292(4) 0.6586(3) 0.0176(2)
N3V N 0.5146(3) 0.12568(19) 0.06753(15)
N3E N -0.2354(3) 0.37568(19) -0.06753(15)
N3U N -0.7646(3) 0.62432(19) 0.06753(15)
N3H N -0.0146(3) 0.37568(19) -0.18247(15)
N3I N -0.2354(3) 0.37432(19) -0.18247(15)
C1V C 0.2927(5) 0.2662(4) -0.0174(3)
C1E C -0.4573(5) 0.5162(4) 0.0174(3)
C1U C -0.5427(5) 0.4838(4) -0.0174(3)
H1V H 0.2606 0.2960 -0.0473
H1E H -0.4894 0.5460 0.0473
H1U H -0.5106 0.4540 -0.0473
H2V H 0.3334 0.3039 0.0044
H2E H -0.4166 0.5539 -0.0044
H2U H -0.5834 0.4461 0.0044
C2V C 0.3653(4) 0.2082(3) -0.0408(2)
C2E C -0.3847(4) 0.4582(3) 0.0408(2)
C2U C -0.6153(4) 0.5418(3) -0.0408(2)
H3V H 0.3265 0.1725 -0.0649
H3E H -0.4235 0.4225 0.0649
H3U H -0.5765 0.5775 -0.0649
H4V H 0.4179 0.2360 -0.0628
H4E H -0.3321 0.4860 0.0628
H4U H -0.6679 0.5140 -0.0628
C3V C 0.4395(4) 0.0723(3) 0.0573(2)
C3E C -0.3105(4) 0.3223(3) -0.0573(2)
C3U C -0.6895(4) 0.6777(3) 0.0573(2)
H5V H 0.4318 0.0251 0.0772
H5E H -0.3182 0.2751 -0.0772
H5U H -0.6818 0.7249 0.0772
C4V C 0.4982(3) 0.1807(3) 0.03100(17)
C4E C -0.2518(3) 0.4307(3) -0.03100(17)
C4U C -0.7482(3) 0.5693(3) 0.03100(17)
H6V H 0.5383 0.2271 0.0271
H6E H -0.2117 0.4771 -0.0271
H6U H -0.7883 0.5229 0.0271
H7I H -0.068(3) 0.200(3) -0.124(2)
H7E H -0.068(3) 0.550(3) -0.126(2)
H7H H -0.182(3) 0.550(3) -0.124(2)
O2 O 0.8196(6) 0.3286(5) 0.1465(3)
O4 O 0.8750 0.3750 0.0771(10)
N4 N 0.8750 0.3750 0.1249(2)
O2E O 0.9304(6) 0.4214(5) 0.1465(3)
O3? O 0.7909(11) 0.3794(9) 0.1063(6)
O5? O 0.914(2) 0.3025(15) 0.1305(10)
loop_
_geom_bond_atom_site_label_1
_geom_bond_atom_site_label_2
_geom_bond_site_symmetry_1
_geom_bond_site_symmetry_2
Cu1 O1 1_555 1_555
O1 H7 1_555 1_555
O2 N4 1_555 1_555
O4 N4 1_555 1_555
N1 N2 1_555 1_555
N2 C3 1_555 1_555
N3 Cu1 1_555 1_555
N4 O2E 1_555 1_555
C1 H1 1_555 1_555
H2 C1 1_555 1_555
C2 N1 1_555 1_555
H3 C2 1_555 1_555
H4 C2 1_555 1_555
C3 N3 1_555 1_555
H5 C3 1_555 1_555
C4 N1 1_555 1_555
H6 C4 1_555 1_555
Cu1S N3V 1_555 1_555
Cu1P N3U 1_555 1_555
O1E Cu1 1_555 1_555
N1V N2V 1_555 1_555
N1E N2E 1_555 1_555
N1U N2U 1_555 1_555
N2V C3V 1_555 1_555
N2E C3E 1_555 1_555
N2U C3U 1_555 1_555
N3V C3V 1_555 1_555
N3E Cu1 1_555 1_555
N3U C3U 1_555 1_555
N3H Cu1 1_555 1_555
N3I Cu1 1_555 1_555
C1V C1 1_555 1_555
C1E C1U 1_555 1_555
C1U H1U 1_555 1_555
H1V C1V 1_555 1_555
H1E C1E 1_555 1_555
H2V C1V 1_555 1_555
H2E C1E 1_555 1_555
H2U C1U 1_555 1_555
C2V N1V 1_555 1_555
C2E N1E 1_555 1_555
C2U N1U 1_555 1_555
H3V C2V 1_555 1_555
H3E C2E 1_555 1_555
H3U C2U 1_555 1_555
H4V C2V 1_555 1_555
H4E C2E 1_555 1_555
H4U C2U 1_555 1_555
C3V H5V 1_555 1_555
C3E N3E 1_555 1_555
C3U H5U 1_555 1_555
H5E C3E 1_555 1_555
C4V N1V 1_555 1_555
C4E N1E 1_555 1_555
C4U N1U 1_555 1_555
H6V C4V 1_555 1_555
H6E C4E 1_555 1_555
H6U C4U 1_555 1_555
H7I O1 1_555 1_555
H7E O1E 1_555 1_555
H7H O1E 1_555 1_555
N3 C4 1_555 1_555
C1 C2 1_555 1_555
N3V C4V 1_555 1_555
N3E C4E 1_555 1_555
N3U C4U 1_555 1_555
C1V C2V 1_555 1_555
C1E C2E 1_555 1_555
C1U C2U 1_555 1_555

#END
