
#######################################################################
#
#                 Cambridge Crystallographic Data Centre
#                                CCDC 
#
#######################################################################
#
# If this CIF has been generated from an entry in the Cambridge 
# Structural Database, then it will include bibliographic, chemical, 
# crystal, experimental, refinement or atomic coordinate data resulting 
# from the CCDC's data processing and validation procedures.
#
#######################################################################

data_OPAPIF
_symmetry_cell_setting           triclinic
_symmetry_space_group_name_H-M   'P -1'
_symmetry_Int_Tables_number      2
_space_group_name_Hall           '-P 1'
loop_
_symmetry_equiv_pos_site_id
_symmetry_equiv_pos_as_xyz
1 x,y,z
2 -x,-y,-z
_cell_length_a                   9.4829(19)
_cell_length_b                   11.505(2)
_cell_length_c                   14.582(3)
_cell_angle_alpha                69.48(3)
_cell_angle_beta                 85.36(3)
_cell_angle_gamma                86.32(3)
_cell_volume                     1483.99
loop_
_atom_site_label
_atom_site_type_symbol
_atom_site_fract_x
_atom_site_fract_y
_atom_site_fract_z
Eu1 Eu 1.20338(2) 0.044943(19) -0.002385(16)
S1 S 0.95187(14) -0.22556(13) -0.23759(10)
S2 S 1.43233(13) 0.36577(12) 0.14980(10)
S3 S 1.22345(14) -0.26068(13) 0.24717(10)
O1 O 1.1735(3) -0.0437(3) -0.1267(2)
O2 O 1.0467(3) -0.1172(3) 0.0746(2)
O3 O 0.8704(3) -0.2429(3) 0.1265(3)
O4 O 0.9498(3) -0.1044(3) -0.1112(3)
C1 C 1.0764(5) -0.0986(4) -0.1456(3)
C2 C 1.1136(6) -0.1947(5) 0.3188(4)
N1 N 1.6910(4) 0.4680(3) 0.0943(3)
N2 N 1.7931(4) 0.3700(4) 0.0012(3)
N3 N 0.9245(4) -0.3464(4) -0.3628(3)
N4 N 0.9775(5) -0.2032(4) 0.3384(3)
C3 C 0.9962(5) -0.2186(4) 0.1281(3)
C4 C 1.0895(5) -0.3181(4) 0.1961(4)
H1 H 1.1350 -0.3685 0.1601
H2 H 1.0300 -0.3717 0.2494
N5 N 1.6570(4) 0.3259(4) 0.0325(3)
N6 N 1.1684(5) -0.1270(4) 0.3665(3)
N7 N 1.6630(5) 0.5465(4) 0.1501(4)
H3 H 1.668(6) 0.614(6) 0.110(4)
H4 H 1.736(6) 0.518(5) 0.198(4)
C5 C 1.0716(6) -0.0179(5) 0.4810(4)
H5 H 1.1219 0.0566 0.4439
H6 H 1.1267 -0.0657 0.5360
C6 C 1.0160(5) -0.3036(5) -0.3159(4)
N8 N 0.7773(5) -0.3217(6) -0.3596(5)
H7 H 0.7251 -0.3459 -0.3945
H8 H 0.7396 -0.2824 -0.3227
C7 C 1.1124(5) -0.1617(4) -0.2206(3)
H9 H 1.1481 -0.1021 -0.2822
H10 H 1.1843 -0.2272 -0.1973
N9 N 0.9413(5) -0.1363(4) 0.4021(3)
N10 N 1.1360(5) -0.4006(5) -0.4029(4)
C8 C 1.0571(6) -0.0929(5) 0.4171(4)
N11 N 1.1455(5) -0.3335(6) -0.3379(4)
C9 C 1.0033(6) -0.4060(5) -0.4152(4)
C10 C 0.9438(6) -0.4694(5) -0.4762(4)
H11 H 0.8793 -0.5315 -0.4350
H12 H 0.8900 -0.4089 -0.5266
N12 N 1.3083(5) -0.0942(5) 0.3625(4)
H13 H 1.3304 -0.0481 0.3941
H14 H 1.3725 -0.1202 0.3284
O5 O 1.3141(3) 0.2225(3) 0.0309(2)
O6 O 1.3559(3) 0.0348(3) 0.1350(3)
C11 C 1.4224(5) 0.1998(4) 0.1820(4)
H15 H 1.5173 0.1634 0.1935
H16 H 1.3665 0.1686 0.2438
C12 C 1.3605(4) 0.1523(4) 0.1091(3)
C13 C 1.5990(5) 0.3845(4) 0.0886(3)
C14 C 1.8103(5) 0.4542(4) 0.0394(4)
C15 C 1.9403(5) 0.5257(5) 0.0273(4)
H17 H 1.9696 0.5192 0.0912
H18 H 1.9205 0.6127 -0.0095
O7 O 1.3706(3) -0.1261(3) 0.0197(2)
H19 H 1.3738 -0.1942 0.0061
H20 H 1.4300 -0.1610 0.0716
O8 O 1.4028(3) 0.1189(3) -0.1304(2)
Eu1A Eu 0.79662(2) -1.044943(19) -0.997615(16)
Eu1A_2 Eu 0.79662(2) -0.044943(19) 0.002385(16)
Eu1_2 Eu 1.20338(2) -0.955057(19) -1.002385(16)
Eu1A_3 Eu 2.79662(2) 0.955057(19) 0.002385(16)
Eu1A_4 Eu 0.79662(2) -0.044943(19) 1.002385(16)
Eu1_3 Eu 1.20338(2) 0.044943(19) 0.997615(16)
S1A S 1.04813(14) -0.77444(13) -0.76241(10)
S2A S 2.56767(13) 0.63423(12) -0.14980(10)
S3A S 0.77655(14) 0.26068(13) 0.75283(10)
O1A O 0.8265(3) -0.9563(3) -0.8733(2)
O1A_2 O 0.8265(3) 0.0437(3) 0.1267(2)
O2A O 0.9533(3) 0.1172(3) 0.9254(2)
O2A_2 O 0.9533(3) 0.1172(3) -0.0746(2)
O3A O 1.1296(3) 0.2429(3) 0.8735(3)
O3A_2 O 1.1296(3) 0.2429(3) -0.1265(3)
O4A O 1.0502(3) -0.8956(3) -0.8888(3)
O4A_2 O 1.0502(3) 0.1044(3) 0.1112(3)
C1A C 0.9236(5) -0.9014(4) -0.8544(3)
C2A C 0.8864(6) 0.1947(5) 0.6812(4)
N1A N 2.3090(4) 0.5320(3) -0.0943(3)
N2A N 2.2069(4) 0.6300(4) -0.0012(3)
N3A N 1.0755(4) -0.6536(4) -0.6372(3)
N4A N 1.0225(5) 0.2032(4) 0.6616(3)
C3A C 1.0038(5) 0.2186(4) 0.8719(3)
C4A C 0.9105(5) 0.3181(4) 0.8039(4)
H1A H 0.8650 0.3685 0.8399
H2A H 0.9700 0.3717 0.7506
N5A N 2.3430(4) 0.6741(4) -0.0325(3)
N6A N 0.8316(5) 0.1270(4) 0.6335(3)
N7A N 2.3370(5) 0.4535(4) -0.1501(4)
H3A H 2.332(6) 0.386(6) -0.110(4)
H4A H 2.264(6) 0.482(5) -0.198(4)
C5A C 0.9284(6) 0.0179(5) 0.5190(4)
H5A H 0.8781 -0.0566 0.5561
H6A H 0.8733 0.0657 0.4640
C6A C 0.9840(5) -0.6964(5) -0.6841(4)
N8A N 1.2227(5) -0.6783(6) -0.6404(5)
H7A H 1.2749 -0.6541 -0.6055
H8A H 1.2604 -0.7176 -0.6773
C7A C 0.8876(5) -0.8383(4) -0.7794(3)
H9A H 0.8519 -0.8979 -0.7178
H10A H 0.8157 -0.7728 -0.8027
N9A N 1.0587(5) 0.1363(4) 0.5979(3)
N10A N 0.8640(5) -0.5994(5) -0.5971(4)
C8A C 0.9429(6) 0.0929(5) 0.5829(4)
N11A N 0.8545(5) -0.6665(6) -0.6621(4)
C9A C 0.9967(6) -0.5940(5) -0.5848(4)
C10A C 1.0562(6) -0.5306(5) -0.5238(4)
H11A H 1.1207 -0.4685 -0.5650
H12A H 1.1100 -0.5911 -0.4734
N12A N 0.6917(5) 0.0942(5) 0.6375(4)
H13A H 0.6696 0.0481 0.6059
H14A H 0.6275 0.1202 0.6716
O5A O 2.6859(3) 0.7775(3) -0.0309(2)
O5A_2 O 0.6859(3) -0.2225(3) -0.0309(2)
O6A O 2.6441(3) 0.9652(3) -0.1350(3)
O6A_2 O 0.6441(3) -0.0348(3) -0.1350(3)
C11A C 2.5776(5) 0.8002(4) -0.1820(4)
H15A H 2.4827 0.8366 -0.1935
H16A H 2.6335 0.8314 -0.2438
C12A C 2.6395(4) 0.8477(4) -0.1091(3)
C13A C 2.4010(5) 0.6155(4) -0.0886(3)
C14A C 2.1897(5) 0.5458(4) -0.0394(4)
C15A C 2.0597(5) 0.4743(5) -0.0273(4)
H17A H 2.0304 0.4808 -0.0912
H18A H 2.0795 0.3873 0.0095
O7A O 0.6294(3) 0.1261(3) -0.0197(2)
H19A H 0.6262 0.1942 -0.0061
H20A H 0.5700 0.1610 -0.0716
O8A O 0.5972(3) -0.1189(3) 0.1304(2)
O9 O 1.3236(6) 0.2660(6) -0.3101(4)
O10 O 0.6036(6) 0.3606(6) 0.5252(5)
O11 O 1.4567(6) 0.4871(6) 0.3486(5)
O12 O 0.5908(9) 0.1662(10) 0.3898(6)
O13 O 0.6390(9) -0.1174(11) 0.4408(7)
loop_
_geom_bond_atom_site_label_1
_geom_bond_atom_site_label_2
_geom_bond_site_symmetry_1
_geom_bond_site_symmetry_2
Eu1 O1 1_555 1_555
S1 C6 1_555 1_555
S2 C11 1_555 1_555
S3 C2 1_555 1_555
O1 C1 1_555 1_555
O2 Eu1 1_555 1_555
O3 C3 1_555 1_555
O4 C1 1_555 1_555
C1 C7 1_555 1_555
C2 N4 1_555 1_555
N1 N7 1_555 1_555
N2 N5 1_555 1_555
N3 C6 1_555 1_555
N4 N9 1_555 1_555
C3 O2 1_555 1_555
C4 S3 1_555 1_555
H1 C4 1_555 1_555
H2 C4 1_555 1_555
N5 C13 1_555 1_555
N6 C2 1_555 1_555
N7 H3 1_555 1_555
H4 N7 1_555 1_555
C5 H5 1_555 1_555
H6 C5 1_555 1_555
C6 N11 1_555 1_555
N8 N3 1_555 1_555
H7 N8 1_555 1_555
H8 N8 1_555 1_555
C7 S1 1_555 1_555
H9 C7 1_555 1_555
H10 C7 1_555 1_555
N9 C8 1_555 1_555
N10 N11 1_555 1_555
C8 N6 1_555 1_555
C9 N3 1_555 1_555
C10 C9 1_555 1_555
H11 C10 1_555 1_555
H12 C10 1_555 1_555
N12 N6 1_555 1_555
H13 N12 1_555 1_555
H14 N12 1_555 1_555
O5 Eu1 1_555 1_555
O6 Eu1 1_555 1_555
C11 H15 1_555 1_555
H16 C11 1_555 1_555
C12 O5 1_555 1_555
C13 S2 1_555 1_555
C14 N1 1_555 1_555
C15 C14 1_555 1_555
H17 C15 1_555 1_555
H18 C15 1_555 1_555
O7 Eu1 1_555 1_555
H19 O7 1_555 1_555
H20 O7 1_555 1_555
O8 Eu1 1_555 1_555
Eu1A O1A 1_555 1_555
Eu1A_2 O2 1_555 1_555
Eu1_2 O4A 1_555 1_555
Eu1A_3 O5A 1_555 1_555
Eu1A_4 O2A 1_555 1_555
Eu1_3 O2A 1_555 1_555
S1A C6A 1_555 1_555
S2A C11A 1_555 1_555
S3A C2A 1_555 1_555
O1A C1A 1_555 1_555
O1A_2 Eu1A_2 1_555 1_555
O2A C3A 1_555 1_555
O2A_2 Eu1 1_555 1_555
O3A Eu1_3 1_555 1_555
O3A_2 Eu1 1_555 1_555
O4A C1A 1_555 1_555
O4A_2 Eu1 1_555 1_555
C1A C7A 1_555 1_555
C2A N4A 1_555 1_555
N1A N7A 1_555 1_555
N2A N5A 1_555 1_555
N3A C6A 1_555 1_555
N4A N9A 1_555 1_555
C3A O3A 1_555 1_555
C4A S3A 1_555 1_555
H1A C4A 1_555 1_555
H2A C4A 1_555 1_555
N5A C13A 1_555 1_555
N6A C2A 1_555 1_555
N7A H3A 1_555 1_555
H4A N7A 1_555 1_555
C5A C5 1_555 1_555
H5A C5A 1_555 1_555
H6A C5A 1_555 1_555
C6A N11A 1_555 1_555
N8A N3A 1_555 1_555
H7A N8A 1_555 1_555
H8A N8A 1_555 1_555
C7A S1A 1_555 1_555
H9A C7A 1_555 1_555
H10A C7A 1_555 1_555
N9A C8A 1_555 1_555
N10A N11A 1_555 1_555
C8A N6A 1_555 1_555
C9A N3A 1_555 1_555
C10A C10 1_555 1_555
H11A C10A 1_555 1_555
H12A C10A 1_555 1_555
N12A N6A 1_555 1_555
H13A N12A 1_555 1_555
H14A N12A 1_555 1_555
O5A C12A 1_555 1_555
O5A_2 Eu1A_2 1_555 1_555
O6A Eu1A_3 1_555 1_555
O6A_2 Eu1A_2 1_555 1_555
C11A H15A 1_555 1_555
H16A C11A 1_555 1_555
C12A O6A 1_555 1_555
C13A S2A 1_555 1_555
C14A N1A 1_555 1_555
C15A C15 1_555 1_555
H17A C15A 1_555 1_555
H18A C15A 1_555 1_555
O7A Eu1A_2 1_555 1_555
H19A O7A 1_555 1_555
H20A O7A 1_555 1_555
O8A Eu1A_2 1_555 1_555
O3 Eu1A_2 1_555 1_555
O4 Eu1A_2 1_555 1_555
N1 C13 1_555 1_555
N2 C14 1_555 1_555
C3 C4 1_555 1_555
C5 C8 1_555 1_555
N10 C9 1_555 1_555
O6 C12 1_555 1_555
C11 C12 1_555 1_555
Eu1A_2 O2A_2 1_555 1_555
N1A C13A 1_555 1_555
N2A C14A 1_555 1_555
C3A C4A 1_555 1_555
C5A C8A 1_555 1_555
N10A C9A 1_555 1_555
C9A C10A 1_555 1_555
C11A C12A 1_555 1_555
C14A C15A 1_555 1_555

#END
