
#######################################################################
#
#                 Cambridge Crystallographic Data Centre
#                                CCDC 
#
#######################################################################
#
# If this CIF has been generated from an entry in the Cambridge 
# Structural Database, then it will include bibliographic, chemical, 
# crystal, experimental, refinement or atomic coordinate data resulting 
# from the CCDC's data processing and validation procedures.
#
#######################################################################

data_OPAPOL
_symmetry_cell_setting           triclinic
_symmetry_space_group_name_H-M   'P -1'
_symmetry_Int_Tables_number      2
_space_group_name_Hall           '-P 1'
loop_
_symmetry_equiv_pos_site_id
_symmetry_equiv_pos_as_xyz
1 x,y,z
2 -x,-y,-z
_cell_length_a                   9.4642(19)
_cell_length_b                   11.474(2)
_cell_length_c                   14.575(3)
_cell_angle_alpha                69.77(3)
_cell_angle_beta                 85.43(3)
_cell_angle_gamma                86.44(3)
_cell_volume                     1479.36
loop_
_atom_site_label
_atom_site_type_symbol
_atom_site_fract_x
_atom_site_fract_y
_atom_site_fract_z
Tb1 Tb 1.202986(16) 0.045350(14) -0.002524(11)
S1 S 0.95195(11) -0.22599(11) -0.23666(8)
S2 S 1.43126(10) 0.36555(9) 0.14962(8)
S3 S 1.22366(11) -0.26225(11) 0.24749(8)
O1 O 1.1726(3) -0.0423(3) -0.12535(19)
O2 O 1.0495(3) -0.1158(2) 0.07463(19)
O3 O 0.8709(3) -0.2398(2) 0.1244(2)
O4 O 0.9500(3) -0.1069(3) -0.1083(2)
C1 C 1.0751(4) -0.0980(3) -0.1441(3)
C2 C 1.1134(5) -0.1963(4) 0.3196(3)
N1 N 1.6904(3) 0.4675(3) 0.0950(2)
N2 N 1.7929(4) 0.3678(3) 0.0031(3)
N3 N 0.9243(4) -0.3476(3) -0.3621(3)
N4 N 0.9775(4) -0.2046(3) 0.3384(3)
C3 C 0.9974(4) -0.2180(3) 0.1278(3)
C4 C 1.0888(4) -0.3185(4) 0.1952(3)
H1 H 1.1340 -0.3689 0.1590
H2 H 1.0283 -0.3718 0.2480
N5 N 1.6563(4) 0.3253(3) 0.0327(3)
N6 N 1.1690(4) -0.1276(3) 0.3665(2)
N7 N 1.6623(4) 0.5470(4) 0.1498(3)
H3 H 1.671(6) 0.612(5) 0.112(4)
H4 H 1.737(6) 0.520(5) 0.191(4)
C5 C 1.0724(5) -0.0175(4) 0.4807(3)
H5 H 1.1220 0.0574 0.4434
H6 H 1.1283 -0.0645 0.5354
C6 C 1.0168(4) -0.3034(4) -0.3153(3)
N8 N 0.7770(4) -0.3239(5) -0.3575(4)
H7 H 0.7241 -0.3481 -0.3922
H8 H 0.7398 -0.2850 -0.3200
C7 C 1.1128(4) -0.1600(4) -0.2203(3)
H9 H 1.1473 -0.0995 -0.2817
H10 H 1.1859 -0.2246 -0.1978
N9 N 0.9419(4) -0.1372(3) 0.4023(3)
N10 N 1.1367(4) -0.3978(4) -0.4040(3)
C8 C 1.0578(5) -0.0934(4) 0.4171(3)
N11 N 1.1460(4) -0.3311(4) -0.3396(3)
C9 C 1.0046(5) -0.4061(4) -0.4151(3)
C10 C 0.9438(5) -0.4706(4) -0.4753(3)
H11 H 0.8813 -0.5341 -0.4334
H12 H 0.8876 -0.4110 -0.5245
N12 N 1.3089(4) -0.0926(4) 0.3616(3)
H13 H 1.3303 -0.0451 0.3926
H14 H 1.3736 -0.1185 0.3277
O5 O 1.3131(3) 0.2221(3) 0.0298(2)
O6 O 1.3536(3) 0.0349(2) 0.1337(2)
C11 C 1.4211(4) 0.2000(4) 0.1808(3)
H15 H 1.5163 0.1636 0.1920
H16 H 1.3654 0.1686 0.2425
C12 C 1.3593(4) 0.1531(3) 0.1082(3)
C13 C 1.5981(4) 0.3851(3) 0.0879(3)
C14 C 1.8102(4) 0.4540(4) 0.0397(3)
C15 C 1.9405(4) 0.5252(4) 0.0280(3)
H17 H 1.9707 0.5177 0.0919
H18 H 1.9206 0.6125 -0.0077
O7 O 1.3695(3) -0.1240(2) 0.0190(2)
H19 H 1.3727 -0.1921 0.0054
H20 H 1.4289 -0.1589 0.0709
O8 O 1.4011(3) 0.1183(2) -0.1283(2)
Tb1A Tb 0.797014(16) -1.045350(14) -0.997476(11)
Tb1A_2 Tb 0.797014(16) -0.045350(14) 0.002524(11)
Tb1_2 Tb 1.202986(16) -0.954650(14) -1.002524(11)
Tb1A_3 Tb 2.797014(16) 0.954650(14) 0.002524(11)
Tb1A_4 Tb 0.797014(16) -0.045350(14) 1.002524(11)
Tb1_3 Tb 1.202986(16) 0.045350(14) 0.997476(11)
S1A S 1.04805(11) -0.77401(11) -0.76334(8)
S2A S 2.56874(10) 0.63445(9) -0.14962(8)
S3A S 0.77634(11) 0.26225(11) 0.75251(8)
O1A O 0.8274(3) -0.9577(3) -0.87465(19)
O1A_2 O 0.8274(3) 0.0423(3) 0.12535(19)
O2A O 0.9505(3) 0.1158(2) 0.92537(19)
O2A_2 O 0.9505(3) 0.1158(2) -0.07463(19)
O3A O 1.1291(3) 0.2398(2) 0.8756(2)
O3A_2 O 1.1291(3) 0.2398(2) -0.1244(2)
O4A O 1.0500(3) -0.8931(3) -0.8917(2)
O4A_2 O 1.0500(3) 0.1069(3) 0.1083(2)
C1A C 0.9249(4) -0.9020(3) -0.8559(3)
C2A C 0.8866(5) 0.1963(4) 0.6804(3)
N1A N 2.3096(3) 0.5325(3) -0.0950(2)
N2A N 2.2071(4) 0.6322(3) -0.0031(3)
N3A N 1.0757(4) -0.6524(3) -0.6379(3)
N4A N 1.0225(4) 0.2046(3) 0.6616(3)
C3A C 1.0026(4) 0.2180(3) 0.8722(3)
C4A C 0.9112(4) 0.3185(4) 0.8048(3)
H1A H 0.8660 0.3689 0.8410
H2A H 0.9717 0.3718 0.7520
N5A N 2.3437(4) 0.6747(3) -0.0327(3)
N6A N 0.8310(4) 0.1276(3) 0.6335(2)
N7A N 2.3377(4) 0.4530(4) -0.1498(3)
H3A H 2.329(6) 0.388(5) -0.112(4)
H4A H 2.263(6) 0.480(5) -0.191(4)
C5A C 0.9276(5) 0.0175(4) 0.5193(3)
H5A H 0.8780 -0.0574 0.5566
H6A H 0.8717 0.0645 0.4646
C6A C 0.9832(4) -0.6966(4) -0.6847(3)
N8A N 1.2230(4) -0.6761(5) -0.6425(4)
H7A H 1.2759 -0.6519 -0.6078
H8A H 1.2602 -0.7150 -0.6800
C7A C 0.8872(4) -0.8400(4) -0.7797(3)
H9A H 0.8527 -0.9005 -0.7183
H10A H 0.8141 -0.7754 -0.8022
N9A N 1.0581(4) 0.1372(3) 0.5977(3)
N10A N 0.8633(4) -0.6022(4) -0.5960(3)
C8A C 0.9422(5) 0.0934(4) 0.5829(3)
N11A N 0.8540(4) -0.6689(4) -0.6604(3)
C9A C 0.9954(5) -0.5939(4) -0.5849(3)
C10A C 1.0562(5) -0.5294(4) -0.5247(3)
H11A H 1.1187 -0.4659 -0.5666
H12A H 1.1124 -0.5890 -0.4755
N12A N 0.6911(4) 0.0926(4) 0.6384(3)
H13A H 0.6697 0.0451 0.6074
H14A H 0.6264 0.1185 0.6723
O5A O 2.6869(3) 0.7779(3) -0.0298(2)
O5A_2 O 0.6869(3) -0.2221(3) -0.0298(2)
O6A O 2.6464(3) 0.9651(2) -0.1337(2)
O6A_2 O 0.6464(3) -0.0349(2) -0.1337(2)
C11A C 2.5789(4) 0.8000(4) -0.1808(3)
H15A H 2.4837 0.8364 -0.1920
H16A H 2.6346 0.8314 -0.2425
C12A C 2.6407(4) 0.8469(3) -0.1082(3)
C13A C 2.4019(4) 0.6149(3) -0.0879(3)
C14A C 2.1898(4) 0.5460(4) -0.0397(3)
C15A C 2.0595(4) 0.4748(4) -0.0280(3)
H17A H 2.0293 0.4823 -0.0919
H18A H 2.0794 0.3875 0.0077
O7A O 0.6305(3) 0.1240(2) -0.0190(2)
H19A H 0.6273 0.1921 -0.0054
H20A H 0.5711 0.1589 -0.0709
O8A O 0.5989(3) -0.1183(2) 0.1283(2)
O9 O 1.3231(5) 0.2649(5) -0.3075(3)
O10 O 0.6030(5) 0.3584(5) 0.5261(4)
O11 O 1.4563(5) 0.4872(5) 0.3488(4)
O12 O 0.5912(7) 0.1636(7) 0.3879(5)
O13 O 0.6395(7) -0.1178(9) 0.4405(6)
loop_
_geom_bond_atom_site_label_1
_geom_bond_atom_site_label_2
_geom_bond_site_symmetry_1
_geom_bond_site_symmetry_2
Tb1 O1 1_555 1_555
S1 C6 1_555 1_555
S2 C11 1_555 1_555
S3 C2 1_555 1_555
O1 C1 1_555 1_555
O2 Tb1 1_555 1_555
O3 C3 1_555 1_555
O4 C1 1_555 1_555
C1 C7 1_555 1_555
C2 N4 1_555 1_555
N1 N7 1_555 1_555
N2 N5 1_555 1_555
N3 C6 1_555 1_555
N4 N9 1_555 1_555
C3 O2 1_555 1_555
C4 S3 1_555 1_555
H1 C4 1_555 1_555
H2 C4 1_555 1_555
N5 C13 1_555 1_555
N6 C2 1_555 1_555
N7 H3 1_555 1_555
H4 N7 1_555 1_555
C5 H5 1_555 1_555
H6 C5 1_555 1_555
C6 N11 1_555 1_555
N8 N3 1_555 1_555
H7 N8 1_555 1_555
H8 N8 1_555 1_555
C7 S1 1_555 1_555
H9 C7 1_555 1_555
H10 C7 1_555 1_555
N9 C8 1_555 1_555
N10 N11 1_555 1_555
C8 N6 1_555 1_555
C9 N3 1_555 1_555
C10 C9 1_555 1_555
H11 C10 1_555 1_555
H12 C10 1_555 1_555
N12 N6 1_555 1_555
H13 N12 1_555 1_555
H14 N12 1_555 1_555
O5 Tb1 1_555 1_555
O6 Tb1 1_555 1_555
C11 H15 1_555 1_555
H16 C11 1_555 1_555
C12 O5 1_555 1_555
C13 S2 1_555 1_555
C14 N1 1_555 1_555
C15 C14 1_555 1_555
H17 C15 1_555 1_555
H18 C15 1_555 1_555
O7 Tb1 1_555 1_555
H19 O7 1_555 1_555
H20 O7 1_555 1_555
O8 Tb1 1_555 1_555
Tb1A O1A 1_555 1_555
Tb1A_2 O2 1_555 1_555
Tb1_2 O4A 1_555 1_555
Tb1A_3 O5A 1_555 1_555
Tb1A_4 O2A 1_555 1_555
Tb1_3 O2A 1_555 1_555
S1A C6A 1_555 1_555
S2A C11A 1_555 1_555
S3A C2A 1_555 1_555
O1A C1A 1_555 1_555
O1A_2 Tb1A_2 1_555 1_555
O2A C3A 1_555 1_555
O2A_2 Tb1 1_555 1_555
O3A Tb1_3 1_555 1_555
O3A_2 Tb1 1_555 1_555
O4A C1A 1_555 1_555
O4A_2 Tb1 1_555 1_555
C1A C7A 1_555 1_555
C2A N4A 1_555 1_555
N1A N7A 1_555 1_555
N2A N5A 1_555 1_555
N3A C6A 1_555 1_555
N4A N9A 1_555 1_555
C3A O3A 1_555 1_555
C4A S3A 1_555 1_555
H1A C4A 1_555 1_555
H2A C4A 1_555 1_555
N5A C13A 1_555 1_555
N6A C2A 1_555 1_555
N7A H3A 1_555 1_555
H4A N7A 1_555 1_555
C5A C5 1_555 1_555
H5A C5A 1_555 1_555
H6A C5A 1_555 1_555
C6A N11A 1_555 1_555
N8A N3A 1_555 1_555
H7A N8A 1_555 1_555
H8A N8A 1_555 1_555
C7A S1A 1_555 1_555
H9A C7A 1_555 1_555
H10A C7A 1_555 1_555
N9A C8A 1_555 1_555
N10A N11A 1_555 1_555
C8A N6A 1_555 1_555
C9A N3A 1_555 1_555
C10A C10 1_555 1_555
H11A C10A 1_555 1_555
H12A C10A 1_555 1_555
N12A N6A 1_555 1_555
H13A N12A 1_555 1_555
H14A N12A 1_555 1_555
O5A C12A 1_555 1_555
O5A_2 Tb1A_2 1_555 1_555
O6A Tb1A_3 1_555 1_555
O6A_2 Tb1A_2 1_555 1_555
C11A H15A 1_555 1_555
H16A C11A 1_555 1_555
C12A O6A 1_555 1_555
C13A S2A 1_555 1_555
C14A N1A 1_555 1_555
C15A C15 1_555 1_555
H17A C15A 1_555 1_555
H18A C15A 1_555 1_555
O7A Tb1A_2 1_555 1_555
H19A O7A 1_555 1_555
H20A O7A 1_555 1_555
O8A Tb1A_2 1_555 1_555
O3 Tb1A_2 1_555 1_555
O4 Tb1A_2 1_555 1_555
N1 C13 1_555 1_555
N2 C14 1_555 1_555
C3 C4 1_555 1_555
C5 C8 1_555 1_555
N10 C9 1_555 1_555
O6 C12 1_555 1_555
C11 C12 1_555 1_555
Tb1A_2 O2A_2 1_555 1_555
N1A C13A 1_555 1_555
N2A C14A 1_555 1_555
C3A C4A 1_555 1_555
C5A C8A 1_555 1_555
N10A C9A 1_555 1_555
C9A C10A 1_555 1_555
C11A C12A 1_555 1_555
C14A C15A 1_555 1_555

#END
