
#######################################################################
#
#                 Cambridge Crystallographic Data Centre
#                                CCDC 
#
#######################################################################
#
# If this CIF has been generated from an entry in the Cambridge 
# Structural Database, then it will include bibliographic, chemical, 
# crystal, experimental, refinement or atomic coordinate data resulting 
# from the CCDC's data processing and validation procedures.
#
#######################################################################

data_OPOYUO
_symmetry_cell_setting           monoclinic
_symmetry_space_group_name_H-M   'P 21/c'
_symmetry_Int_Tables_number      14
_space_group_name_Hall           '-P 2ybc'
loop_
_symmetry_equiv_pos_site_id
_symmetry_equiv_pos_as_xyz
1 x,y,z
2 -x,1/2+y,1/2-z
3 -x,-y,-z
4 x,1/2-y,1/2+z
_cell_length_a                   8.7713(8)
_cell_length_b                   18.1647(16)
_cell_length_c                   15.8994(14)
_cell_angle_alpha                90
_cell_angle_beta                 90.0041
_cell_angle_gamma                90
_cell_volume                     2533.22
loop_
_atom_site_label
_atom_site_type_symbol
_atom_site_fract_x
_atom_site_fract_y
_atom_site_fract_z
Zn1 Zn 0.38676(4) 0.51923(2) 0.43292(2)
C1 C 0.8550(4) 0.3236(2) 0.3668(2)
H1 H 0.9017 0.3338 0.4195
C2 C 0.7117(4) 0.3518(2) 0.3489(2)
C3 C 0.6426(5) 0.3356(3) 0.2724(3)
H2 H 0.5451 0.3555 0.2597
C4 C 0.7151(6) 0.2907(4) 0.2148(3)
H3 H 0.6660 0.2783 0.1634
C5 C 0.9407(5) 0.1852(3) 0.1030(3)
H4 H 0.8484 0.1916 0.0726
C6 C 1.0585(5) 0.1439(3) 0.0707(3)
H5 H 1.0458 0.1207 0.0175
C7 C 1.1954(4) 0.1350(2) 0.1134(2)
C8 C 1.2141(4) 0.1662(2) 0.1935(2)
H6 H 1.3062 0.1594 0.2239
C9 C 1.0877(4) 0.2456(2) 0.3125(2)
C10 C 0.9305(4) 0.2803(2) 0.3080(2)
C11 C 0.8586(5) 0.2640(3) 0.2319(3)
C12 C 0.9615(5) 0.2174(3) 0.1824(3)
C13 C 1.0966(4) 0.2069(2) 0.2272(2)
C14 C 1.0947(6) 0.1902(3) 0.3844(3)
H7 H 1.0131 0.1538 0.3777
H8 H 1.0818 0.2159 0.4381
H9 H 1.1937 0.1652 0.3837
C15 C 1.2138(5) 0.3035(3) 0.3206(3)
H10 H 1.2066 0.3384 0.2737
H11 H 1.3135 0.2792 0.3194
H12 H 1.2019 0.3301 0.3739
C16 C 0.6331(4) 0.4005(2) 0.4106(2)
C17 C 1.3184(4) 0.0903(2) 0.0738(2)
C18 C 0.0991(5) 0.4972(2) 0.3325(3)
H13 H 0.0539 0.4861 0.3853
C19 C 0.0112(5) 0.4893(3) 0.2602(3)
H14 H -0.0920 0.4737 0.2639
C20 C 0.0764(5) 0.5043(2) 0.1830(2)
C21 C 0.2258(6) 0.5281(3) 0.1816(3)
H15 H 0.2737 0.5397 0.1296
C22 C 0.3046(5) 0.5350(3) 0.2557(3)
H16 H 0.4073 0.5514 0.2536
C23 C -0.0114(5) 0.4944(3) 0.1048(3)
H17 H -0.1149 0.4792 0.1076
N1 N 0.2435(4) 0.51954(17) 0.33107(19)
N2 N 0.0502(4) 0.5060(2) 0.0338(2)
O1 O 0.6881(3) 0.40445(16) 0.48401(16)
O2 O 0.5189(3) 0.43578(17) 0.38475(18)
O3 O 1.2830(3) 0.05666(17) 0.00713(17)
O4 O 1.4467(3) 0.08817(16) 0.10856(18)
Zn1B Zn -0.38676(4) 0.48077(2) -0.43292(2)
Zn1_2 Zn -0.61324(4) 0.51923(2) -0.56708(2)
Zn1A Zn -1.38676(4) 1.01923(2) 0.06708(2)
Zn1A_2 Zn 1.61324(4) 0.01923(2) 0.06708(2)
Zn1B_2 Zn 0.61324(4) 0.48077(2) 0.56708(2)
Zn1C Zn -1.61324(4) 0.98077(2) -0.06708(2)
Zn1C_2 Zn 1.38676(4) -0.01923(2) -0.06708(2)
C1B C -0.8550(4) 0.6764(2) -0.3668(2)
H1B H -0.9017 0.6662 -0.4195
C2B C -0.7117(4) 0.6482(2) -0.3489(2)
C3B C -0.6426(5) 0.6644(3) -0.2724(3)
H2B H -0.5451 0.6445 -0.2597
C4B C -0.7151(6) 0.7093(4) -0.2148(3)
H3B H -0.6660 0.7217 -0.1634
C5B C -0.9407(5) 0.8148(3) -0.1030(3)
H4B H -0.8484 0.8084 -0.0726
C6B C -1.0585(5) 0.8561(3) -0.0707(3)
H5B H -1.0458 0.8793 -0.0175
C7B C -1.1954(4) 0.8650(2) -0.1134(2)
C8B C -1.2141(4) 0.8338(2) -0.1935(2)
H6B H -1.3062 0.8406 -0.2239
C9B C -1.0877(4) 0.7544(2) -0.3125(2)
C10B C -0.9305(4) 0.7197(2) -0.3080(2)
C11B C -0.8586(5) 0.7360(3) -0.2319(3)
C12B C -0.9615(5) 0.7826(3) -0.1824(3)
C13B C -1.0966(4) 0.7931(2) -0.2272(2)
C14B C -1.0947(6) 0.8098(3) -0.3844(3)
H7B H -1.0131 0.8462 -0.3777
H8B H -1.0818 0.7841 -0.4381
H9B H -1.1937 0.8348 -0.3837
C15B C -1.2138(5) 0.6965(3) -0.3206(3)
H10B H -1.2066 0.6616 -0.2737
H11B H -1.3135 0.7208 -0.3194
H12B H -1.2019 0.6699 -0.3739
C16B C -0.6331(4) 0.5995(2) -0.4106(2)
C17B C -1.3184(4) 0.9097(2) -0.0738(2)
C18B C -0.0991(5) 0.5028(2) -0.3325(3)
H13B H -0.0539 0.5139 -0.3853
C19B C -0.0112(5) 0.5107(3) -0.2602(3)
H14B H 0.0920 0.5263 -0.2639
C20B C -0.0764(5) 0.4957(2) -0.1830(2)
C21B C -0.2258(6) 0.4719(3) -0.1816(3)
H15B H -0.2737 0.4603 -0.1296
C22B C -0.3046(5) 0.4650(3) -0.2557(3)
H16B H -0.4073 0.4486 -0.2536
C23B C 0.0114(5) 0.5056(3) -0.1048(3)
H17B H 0.1149 0.5208 -0.1076
N1B N -0.2435(4) 0.48046(17) -0.33107(19)
N2B N -0.0502(4) 0.4940(2) -0.0338(2)
O1B O -0.6881(3) 0.59555(16) -0.48401(16)
O1_2 O -0.3119(3) 0.40445(16) -0.51599(16)
O1B_2 O 0.3119(3) 0.59555(16) 0.51599(16)
O2B O -0.5189(3) 0.56422(17) -0.38475(18)
O3B O -1.2830(3) 0.94334(17) -0.00713(17)
O3A O -0.2830(3) 0.55666(17) -0.50713(17)
O3C O 0.2830(3) 0.44334(17) 0.50713(17)
O4B O -1.4467(3) 0.91183(16) -0.10856(18)
O4A O 0.5533(3) 0.58817(16) 0.39144(18)
O4C O -0.5533(3) 0.41183(16) -0.39144(18)
C24 C 0.5123(14) 0.2807(9) -0.0183(8)
H18 H 0.5694 0.2925 -0.0695
H19 H 0.4370 0.2424 -0.0307
H20 H 0.5828 0.2630 0.0250
C25 C 0.3464(14) 0.3372(9) 0.0860(7)
H21 H 0.3018 0.3845 0.1023
H22 H 0.4119 0.3191 0.1315
H23 H 0.2648 0.3015 0.0755
C26 C 0.4173(14) 0.4110(10) -0.0293(8)
H24 H 0.3590 0.4479 -0.0018
N3 N 0.4346(12) 0.3464(8) 0.0118(6)
O5 O 0.4669(9) 0.4259(6) -0.0953(5)
O6 O -0.3537(17) 0.4828(11) 0.2013(12)
loop_
_geom_bond_atom_site_label_1
_geom_bond_atom_site_label_2
_geom_bond_site_symmetry_1
_geom_bond_site_symmetry_2
Zn1 N1 1_555 1_555
C1 H1 1_555 1_555
C2 C1 1_555 1_555
C3 C2 1_555 1_555
H2 C3 1_555 1_555
C4 C3 1_555 1_555
H3 C4 1_555 1_555
C5 H4 1_555 1_555
C6 C5 1_555 1_555
H5 C6 1_555 1_555
C7 C6 1_555 1_555
C8 C7 1_555 1_555
H6 C8 1_555 1_555
C9 C10 1_555 1_555
C10 C1 1_555 1_555
C11 C4 1_555 1_555
C12 C5 1_555 1_555
C13 C8 1_555 1_555
C14 C9 1_555 1_555
H7 C14 1_555 1_555
H8 C14 1_555 1_555
H9 C14 1_555 1_555
C15 C9 1_555 1_555
H10 C15 1_555 1_555
H11 C15 1_555 1_555
H12 C15 1_555 1_555
C16 C2 1_555 1_555
C17 C7 1_555 1_555
C18 H13 1_555 1_555
C19 C18 1_555 1_555
H14 C19 1_555 1_555
C20 C19 1_555 1_555
C21 C20 1_555 1_555
H15 C21 1_555 1_555
C22 C21 1_555 1_555
H16 C22 1_555 1_555
C23 C20 1_555 1_555
H17 C23 1_555 1_555
N1 C18 1_555 1_555
N2 C23 1_555 1_555
O1 C16 1_555 1_555
O2 Zn1 1_555 1_555
O3 C17 1_555 1_555
O4 C17 1_555 1_555
C24 H18 1_555 1_555
H19 C24 1_555 1_555
H20 C24 1_555 1_555
C25 H21 1_555 1_555
H22 C25 1_555 1_555
H23 C25 1_555 1_555
C26 H24 1_555 1_555
N3 C24 1_555 1_555
O5 C26 1_555 1_555
Zn1B N1B 1_555 1_555
Zn1_2 O1B 1_555 1_555
Zn1A O3B 1_555 1_555
Zn1A_2 O4 1_555 1_555
Zn1B_2 O1 1_555 1_555
Zn1C O4B 1_555 1_555
Zn1C_2 O3 1_555 1_555
C1B H1B 1_555 1_555
C2B C1B 1_555 1_555
C3B C2B 1_555 1_555
H2B C3B 1_555 1_555
C4B C3B 1_555 1_555
H3B C4B 1_555 1_555
C5B H4B 1_555 1_555
C6B C5B 1_555 1_555
H5B C6B 1_555 1_555
C7B C6B 1_555 1_555
C8B C7B 1_555 1_555
H6B C8B 1_555 1_555
C9B C10B 1_555 1_555
C10B C1B 1_555 1_555
C11B C4B 1_555 1_555
C12B C5B 1_555 1_555
C13B C8B 1_555 1_555
C14B C9B 1_555 1_555
H7B C14B 1_555 1_555
H8B C14B 1_555 1_555
H9B C14B 1_555 1_555
C15B C9B 1_555 1_555
H10B C15B 1_555 1_555
H11B C15B 1_555 1_555
H12B C15B 1_555 1_555
C16B C2B 1_555 1_555
C17B C7B 1_555 1_555
C18B H13B 1_555 1_555
C19B C18B 1_555 1_555
H14B C19B 1_555 1_555
C20B C19B 1_555 1_555
C21B C20B 1_555 1_555
H15B C21B 1_555 1_555
C22B C21B 1_555 1_555
H16B C22B 1_555 1_555
C23B C20B 1_555 1_555
H17B C23B 1_555 1_555
N1B C18B 1_555 1_555
N2B N2 1_555 1_555
O1B C16B 1_555 1_555
O1_2 Zn1B 1_555 1_555
O1B_2 Zn1 1_555 1_555
O2B Zn1B 1_555 1_555
O3B C17B 1_555 1_555
O3A Zn1B 1_555 1_555
O3C Zn1 1_555 1_555
O4B C17B 1_555 1_555
O4A Zn1 1_555 1_555
O4C Zn1B 1_555 1_555
C9 C13 1_555 1_555
C10 C11 1_555 1_555
C11 C12 1_555 1_555
C12 C13 1_555 1_555
C16 O2 1_555 1_555
C22 N1 1_555 1_555
C25 N3 1_555 1_555
C26 N3 1_555 1_555
C9B C13B 1_555 1_555
C10B C11B 1_555 1_555
C11B C12B 1_555 1_555
C12B C13B 1_555 1_555
C16B O2B 1_555 1_555
C22B N1B 1_555 1_555
C23B N2B 1_555 1_555

#END
