
#######################################################################
#
#                 Cambridge Crystallographic Data Centre
#                                CCDC 
#
#######################################################################
#
# If this CIF has been generated from an entry in the Cambridge 
# Structural Database, then it will include bibliographic, chemical, 
# crystal, experimental, refinement or atomic coordinate data resulting 
# from the CCDC's data processing and validation procedures.
#
#######################################################################

data_OQETEK
_symmetry_cell_setting           tetragonal
_symmetry_space_group_name_H-M   'P 43'
_symmetry_Int_Tables_number      78
_space_group_name_Hall           'P 4cw'
loop_
_symmetry_equiv_pos_site_id
_symmetry_equiv_pos_as_xyz
1 x,y,z
2 -x,-y,1/2+z
3 -y,x,3/4+z
4 y,-x,1/4+z
_cell_length_a                   14.642(2)
_cell_length_b                   14.642(2)
_cell_length_c                   14.333(3)
_cell_angle_alpha                90
_cell_angle_beta                 90
_cell_angle_gamma                90
_cell_volume                     3072.83
loop_
_atom_site_label
_atom_site_type_symbol
_atom_site_fract_x
_atom_site_fract_y
_atom_site_fract_z
Yb1 Yb 0.63346(2) 0.41359(2) 0.48494(6)
O1 O 0.6142(5) 0.3623(5) 0.3384(5)
O2 O 0.6083(5) 0.4857(4) 0.2514(5)
O3 O 0.4591(5) 0.3273(5) -0.1240(5)
O4 O 0.4214(5) 0.4482(5) -0.0401(5)
O5 O 0.6492(5) -0.2203(4) 0.2183(5)
O6 O 0.5083(5) -0.2393(4) 0.1741(5)
O7 O 0.6234(5) 0.2728(5) 0.5438(6)
H1 H 0.649(8) 0.268(3) 0.609(3)
H2 H 0.665(6) 0.227(2) 0.512(6)
C1 C 0.5712(7) 0.3447(6) 0.1838(7)
C2 C 0.5281(7) 0.3819(7) 0.1074(6)
H3 H 0.5186 0.4446 0.1043
C3 C 0.4989(7) 0.3264(7) 0.0350(7)
C4 C 0.5075(8) 0.2331(8) 0.0397(8)
H4 H 0.4850 0.1966 -0.0081
C5 C 0.5505(8) 0.1930(6) 0.1173(7)
C6 C 0.5817(7) 0.2506(7) 0.1895(7)
H5 H 0.6098 0.2253 0.2416
C7 C 0.6008(7) 0.4009(6) 0.2625(6)
C8 C 0.4563(7) 0.3697(7) -0.0504(8)
C9 C 0.5593(8) 0.0935(7) 0.1272(7)
C10 C 0.6391(8) 0.0573(7) 0.1623(9)
H6 H 0.6890 0.0947 0.1747
C11 C 0.6436(9) -0.0347(8) 0.1786(9)
H7 H 0.6976 -0.0598 0.2012
C12 C 0.5694(7) -0.0911(7) 0.1622(7)
C13 C 0.4888(8) -0.0554(8) 0.1284(9)
H8 H 0.4382 -0.0925 0.1186
C14 C 0.4852(10) 0.0393(8) 0.1092(9)
H9 H 0.4324 0.0647 0.0842
C15 C 0.5761(7) -0.1891(7) 0.1879(7)
Yb1B Yb 0.58641(2) 0.63346(2) 0.23494(6)
Yb1C Yb 0.41359(2) 0.36654(2) -0.26506(6)
Yb1A Yb 0.36654(2) 0.58641(2) -0.01506(6)
Yb1B_2 Yb 0.58641(2) -0.36654(2) 0.23494(6)
O2C O 0.4857(4) 0.3917(5) 0.5014(5)
O3B O 0.6727(5) 0.4591(5) 0.6260(5)
O4A O 0.5786(5) 0.5518(5) 0.4599(5)
O5C O 0.7797(4) 0.3508(5) 0.4683(5)
O6C O 0.7607(4) 0.4917(5) 0.4241(5)
loop_
_geom_bond_atom_site_label_1
_geom_bond_atom_site_label_2
_geom_bond_site_symmetry_1
_geom_bond_site_symmetry_2
Yb1 O1 1_555 1_555
O1 C7 1_555 1_555
O2 C7 1_555 1_555
O3 C8 1_555 1_555
O4 C8 1_555 1_555
O5 C15 1_555 1_555
O6 C15 1_555 1_555
O7 Yb1 1_555 1_555
H1 O7 1_555 1_555
H2 O7 1_555 1_555
C1 C2 1_555 1_555
C2 H3 1_555 1_555
C3 C2 1_555 1_555
C4 C3 1_555 1_555
H4 C4 1_555 1_555
C5 C4 1_555 1_555
C6 C1 1_555 1_555
H5 C6 1_555 1_555
C7 C1 1_555 1_555
C8 C3 1_555 1_555
C9 C5 1_555 1_555
C10 C9 1_555 1_555
H6 C10 1_555 1_555
C11 C10 1_555 1_555
H7 C11 1_555 1_555
C12 C11 1_555 1_555
C13 C12 1_555 1_555
H8 C13 1_555 1_555
C14 C9 1_555 1_555
H9 C14 1_555 1_555
C15 C12 1_555 1_555
Yb1B O2 1_555 1_555
Yb1C O3 1_555 1_555
Yb1A O4 1_555 1_555
Yb1B_2 O5 1_555 1_555
O2C Yb1 1_555 1_555
O3B Yb1 1_555 1_555
O4A Yb1 1_555 1_555
O5C Yb1 1_555 1_555
O6C Yb1 1_555 1_555
O6 Yb1B_2 1_555 1_555
C5 C6 1_555 1_555
C13 C14 1_555 1_555

#END
