
#######################################################################
#
#                 Cambridge Crystallographic Data Centre
#                                CCDC 
#
#######################################################################
#
# If this CIF has been generated from an entry in the Cambridge 
# Structural Database, then it will include bibliographic, chemical, 
# crystal, experimental, refinement or atomic coordinate data resulting 
# from the CCDC's data processing and validation procedures.
#
#######################################################################

data_OVEDUP
_symmetry_cell_setting           triclinic
_symmetry_space_group_name_H-M   'P -1'
_symmetry_Int_Tables_number      2
_space_group_name_Hall           '-P 1'
loop_
_symmetry_equiv_pos_site_id
_symmetry_equiv_pos_as_xyz
1 x,y,z
2 -x,-y,-z
_cell_length_a                   17.830
_cell_length_b                   23.277
_cell_length_c                   24.071
_cell_angle_alpha                95.14
_cell_angle_beta                 90.32
_cell_angle_gamma                102.22
_cell_volume                     9721.45
loop_
_atom_site_label
_atom_site_type_symbol
_atom_site_fract_x
_atom_site_fract_y
_atom_site_fract_z
Zn1 Zn 0.79588(2) -0.247760(18) 0.481270(16)
Zn2 Zn 0.75726(3) -0.379140(18) 0.453710(16)
Zn3 Zn 0.29199(2) -0.251020(19) 0.964450(16)
Zn4 Zn 1.25898(3) -0.381660(19) -0.030420(17)
O1 O 0.71908(16) -0.27314(12) 0.54063(10)
O2 O 0.69188(17) -0.37079(12) 0.52158(11)
C1 C 0.6879(2) -0.3241(2) 0.54968(15)
C2 C 0.6395(2) -0.33125(18) 0.60126(16)
C3 C 0.6228(2) -0.2822(2) 0.63091(16)
H1 H 0.6399 -0.2446 0.6194
C4 C 0.6130(3) -0.3861(2) 0.61919(18)
H2 H 0.6249 -0.4187 0.5988
C5 C 0.5799(2) -0.2904(2) 0.67815(16)
C6 C 0.5689(3) -0.3949(2) 0.66695(18)
H3 H 0.5508 -0.4327 0.6778
C7 C 0.5535(3) -0.3466(2) 0.69695(18)
S1 S 0.55230(8) -0.23482(6) 0.72317(5)
O3 O 0.5024(2) -0.20660(15) 0.69469(14)
O4 O 0.6184(2) -0.19755(14) 0.75281(13)
C8 C 0.5083(3) -0.3441(2) 0.74787(17)
C9 C 0.5019(2) -0.28592(19) 0.76636(16)
C10 C 0.4753(3) -0.3898(2) 0.77757(19)
H4 H 0.4804 -0.4280 0.7664
C11 C 0.4595(2) -0.2735(2) 0.81242(16)
H5 H 0.4542 -0.2353 0.8235
C12 C 0.4336(3) -0.3785(2) 0.82500(18)
H6 H 0.4115 -0.4093 0.8456
C13 C 0.4251(2) -0.3215(2) 0.84143(17)
C14 C 0.3742(2) -0.3118(2) 0.88984(16)
O5 O 0.36662(16) -0.25995(13) 0.90374(11)
O6 O 0.34231(16) -0.35727(13) 0.91240(10)
O7 O 1.18260(15) -0.36609(12) 0.02777(10)
O8 O 1.21337(16) -0.26837(12) 0.02445(10)
C15 C 1.1789(2) -0.31475(19) 0.04485(15)
C16 C 1.1319(2) -0.30509(17) 0.09529(15)
C17 C 1.0905(3) -0.35233(19) 0.11983(16)
H7 H 1.0896 -0.3908 0.1051
C18 C 1.1321(3) -0.24757(19) 0.11761(17)
H8 H 1.1598 -0.2158 0.1004
C19 C 1.0501(3) -0.34120(18) 0.16691(17)
C20 C 1.0913(3) -0.2372(2) 0.16528(18)
H9 H 1.0913 -0.1989 0.1799
C21 C 1.0507(3) -0.28490(19) 0.19064(16)
S2 S 0.99029(13) -0.39402(6) 0.20490(7)
O9 O 0.9212(3) -0.4251(2) 0.17338(18)
O10 O 1.0367(4) -0.4275(2) 0.2298(2)
C22 C 1.0061(2) -0.28320(19) 0.24110(17)
C23 C 0.9712(3) -0.33894(19) 0.25517(18)
C24 C 0.9932(3) -0.23468(19) 0.27398(17)
H10 H 1.0156 -0.1968 0.2655
C25 C 0.9255(3) -0.34785(19) 0.30120(17)
H11 H 0.9024 -0.3857 0.3094
C26 C 0.9466(3) -0.24283(19) 0.31976(17)
H12 H 0.9362 -0.2101 0.3409
C27 C 0.9153(2) -0.29861(18) 0.33464(16)
C28 C 0.8657(2) -0.30580(19) 0.38466(16)
O11 O 0.83075(15) -0.35796(12) 0.39130(10)
O12 O 0.86239(16) -0.26046(12) 0.41486(10)
O13 O 0.87933(16) -0.25525(12) 0.53587(10)
O14 O 0.85143(16) -0.35245(12) 0.50878(10)
C29 C 0.8852(2) -0.3079(2) 0.53956(16)
C30 C 0.9335(2) -0.32089(19) 0.58710(17)
C31 C 0.9718(2) -0.27501(18) 0.62374(16)
H13 H 0.9715 -0.2360 0.6184
C32 C 0.9358(3) -0.3790(2) 0.59499(18)
H14 H 0.9109 -0.4092 0.5692
C33 C 1.0105(2) -0.28902(17) 0.66871(16)
C34 C 0.9739(3) -0.3925(2) 0.63980(18)
H15 H 0.9748 -0.4316 0.6442
C35 C 1.0110(3) -0.34827(19) 0.67839(18)
S3 S 1.06063(7) -0.24012(5) 0.72358(4)
O15 O 1.01033(18) -0.20953(13) 0.75538(12)
O16 O 1.13042(17) -0.20532(13) 0.70351(12)
C36 C 1.0504(2) -0.35307(18) 0.73061(16)
C37 C 1.0809(2) -0.29747(18) 0.76032(16)
C38 C 1.0604(2) -0.40378(18) 0.75336(17)
H16 H 1.0418 -0.4410 0.7348
C39 C 1.1200(2) -0.29181(18) 0.81017(16)
H17 H 1.1394 -0.2547 0.8286
C40 C 1.0985(2) -0.39735(19) 0.80407(16)
H18 H 1.1034 -0.4313 0.8201
C41 C 1.1303(2) -0.34255(18) 0.83292(15)
C42 C 1.1760(2) -0.3373(2) 0.88602(16)
O17 O 1.20674(16) -0.28586(12) 0.90531(11)
O18 O 1.18259(15) -0.38451(12) 0.90618(10)
O19 O 0.67381(15) -0.36532(12) 0.40239(10)
O20 O 0.70534(17) -0.26825(13) 0.42457(11)
C43 C 0.6714(2) -0.3132(2) 0.39556(16)
C44 C 0.6248(2) -0.30270(18) 0.34638(16)
C45 C 0.5846(3) -0.3499(2) 0.31140(18)
H19 H 0.5821 -0.3887 0.3191
C46 C 0.6261(3) -0.2457(2) 0.33448(19)
H20 H 0.6523 -0.2143 0.3585
C47 C 0.5487(3) -0.3371(2) 0.26517(19)
C48 C 0.5885(3) -0.2345(2) 0.2865(2)
H21 H 0.5901 -0.1958 0.2789
C49 C 0.5497(3) -0.28029(19) 0.25102(17)
S4 S 0.49570(17) -0.38907(7) 0.21312(9)
O21 O 0.5538(5) -0.4194(3) 0.1823(2)
O22 O 0.4320(5) -0.4218(2) 0.2320(3)
C50 C 0.5097(3) -0.2777(2) 0.19874(18)
C51 C 0.4752(3) -0.3336(2) 0.1731(2)
C52 C 0.5025(3) -0.2273(2) 0.17250(19)
C53 C 0.4349(3) -0.3427(2) 0.1228(2)
C54 C 0.4607(3) -0.2361(2) 0.12103(19)
C55 C 0.4259(2) -0.2932(2) 0.09793(16)
C56 C 0.3754(2) -0.3006(2) 0.04641(16)
O23 O 0.34062(17) -0.35211(14) 0.03091(11)
O24 O 0.37248(16) -0.25436(13) 0.02368(11)
N1 N 0.7994(2) -0.16066(15) 0.48410(14)
C85 C 0.8171(6) -0.1315(3) 0.4450(4)
H34 H 0.8381 -0.1493 0.4145
C86 C 0.7672(9) -0.1348(4) 0.5119(5)
H35 H 0.7326 -0.1565 0.5349
C87 C 0.8088(6) -0.0732(3) 0.4417(4)
H36 H 0.8162 -0.0572 0.4076
C88 C 0.7715(10) -0.0736(4) 0.5171(6)
H37 H 0.7568 -0.0572 0.5509
C89 C 0.7917(3) -0.0414(2) 0.4830(3)
C90 C 0.7876(3) 0.0192(2) 0.4818(2)
C91 C 0.7870(3) 0.0691(2) 0.4799(3)
C92 C 0.7842(3) 0.1301(2) 0.4776(2)
C93 C 0.7373(3) 0.1577(2) 0.5128(2)
H38 H 0.7086 0.1366 0.5394
C94 C 0.8262(3) 0.1621(2) 0.4371(2)
H39 H 0.8562 0.1439 0.4127
C95 C 0.7332(3) 0.2146(2) 0.5088(2)
H40 H 0.7018 0.2325 0.5322
C96 C 0.8233(3) 0.2199(2) 0.4331(2)
H41 H 0.8521 0.2414 0.4069
C97 C 0.7768(3) 0.2461(2) 0.4691(2)
C98 C 0.7726(3) 0.3068(2) 0.4640(2)
C99 C 0.7701(3) 0.3568(2) 0.4602(2)
C100 C 0.7642(3) 0.41700(19) 0.4571(2)
C101 C 0.7221(3) 0.4441(3) 0.4935(3)
H42 H 0.6955 0.4242 0.5216
C102 C 0.8083(6) 0.4510(3) 0.4206(3)
H43 H 0.8435 0.4363 0.3980
C103 C 0.7200(3) 0.5018(2) 0.4874(3)
H44 H 0.6887 0.5191 0.5114
C104 C 0.7978(5) 0.5089(2) 0.4189(2)
H45 H 0.8227 0.5308 0.3914
N2 N 0.75644(19) 0.53361(14) 0.45237(13)
N3 N 0.28865(18) -0.16477(14) 0.96367(14)
C105 C 0.3418(4) -0.1277(2) 0.9405(3)
H46 H 0.3816 -0.1423 0.9237
C106 C 0.2296(3) -0.1435(2) 0.9828(2)
H47 H 0.1882 -0.1696 0.9962
C107 C 0.3430(4) -0.0693(3) 0.9393(3)
H48 H 0.3827 -0.0450 0.9223
C108 C 0.2259(3) -0.0853(2) 0.9840(3)
H49 H 0.1835 -0.0726 0.9988
C109 C 0.2837(3) -0.0467(2) 0.9639(3)
C110 C 0.2807(3) 0.0149(2) 0.9641(3)
C111 C 0.2814(3) 0.0656(2) 0.9622(2)
C112 C 0.2802(3) 0.1263(2) 0.9587(2)
C113 C 0.3244(4) 0.1575(2) 0.9196(2)
H50 H 0.3558 0.1395 0.8962
C114 C 0.2356(3) 0.1541(2) 0.9938(2)
H51 H 0.2065 0.1330 1.0202
C115 C 0.3209(4) 0.2152(3) 0.9160(3)
H52 H 0.3473 0.2355 0.8880
C116 C 0.2332(3) 0.2121(2) 0.9906(3)
H53 H 0.2012 0.2301 1.0135
C117 C 0.2797(4) 0.2436(2) 0.9523(3)
C118 C 0.2781(5) 0.3062(3) 0.9511(4)
C119 C 0.2743(4) 0.3527(3) 0.9604(3)
C120 C 0.2685(4) 0.4122(2) 0.9622(3)
C121 C 0.2460(10) 0.4363(4) 0.9255(4)
H54 H 0.2386 0.4157 0.8903
C122 C 0.2829(10) 0.4484(4) 1.0029(5)
H55 H 0.3069 0.4375 1.0335
C123 C 0.2296(6) 0.4932(4) 0.9314(4)
H56 H 0.1931 0.5015 0.9073
C124 C 0.2661(9) 0.5060(3) 1.0077(4)
H57 H 0.2582 0.5234 1.0429
N4 N 0.2617(2) 0.53314(16) 0.96742(15)
Zn2_2 Zn 0.75726(3) 0.620860(18) 0.453710(16)
Zn3_2 Zn 1.29199(2) -0.251020(19) -0.035550(16)
Zn3_3 Zn 1.29199(2) -0.251020(19) 0.964450(16)
Zn3_4 Zn 0.29199(2) -0.251020(19) -0.035550(16)
Zn4_2 Zn 0.25898(3) -0.381660(19) 0.969580(17)
Zn4_3 Zn 1.25898(3) -0.381660(19) 0.969580(17)
Zn4_4 Zn 0.25898(3) -0.381660(19) -0.030420(17)
Zn4_5 Zn 0.25898(3) 0.618340(19) 0.969580(17)
O6_2 O 1.34231(16) -0.35727(13) -0.08760(10)
O8_2 O 0.21337(16) -0.26837(12) 1.02445(10)
O17_2 O 0.20674(16) -0.28586(12) 0.90531(11)
O18_2 O 1.18259(15) -0.38451(12) -0.09382(10)
O23_2 O 1.34062(17) -0.35211(14) 0.03091(11)
O24_2 O 0.37248(16) -0.25436(13) 1.02368(11)
N2_2 N 0.75644(19) -0.46639(14) 0.45237(13)
N4_2 N 1.2617(2) -0.46686(16) -0.03258(15)
Zn5 Zn 0.01775(2) -0.934830(18) -0.001630(16)
Zn6 Zn -0.48147(2) -0.934640(18) -0.486370(16)
O25 O -0.07181(15) -0.96134(11) -0.05815(10)
O26 O -0.09962(15) -1.05902(11) -0.05492(10)
C57 C -0.1048(2) -1.01292(18) -0.07629(15)
C58 C -0.1526(2) -1.02004(19) -0.12890(16)
C59 C -0.1583(2) -0.97011(18) -0.15535(16)
H22 H -0.1351 -0.9326 -0.1396
C60 C -0.1889(3) -1.07500(18) -0.15275(17)
H23 H -0.1854 -1.1083 -0.1351
C61 C -0.1981(3) -0.97738(18) -0.20422(16)
C62 C -0.2301(3) -1.08139(19) -0.20196(19)
H24 H -0.2553 -1.1188 -0.2169
C63 C -0.2345(3) -1.03297(18) -0.22929(17)
S5 S -0.21232(8) -0.92126(5) -0.24590(5)
O27 O -0.1414(2) -0.89320(14) -0.26913(13)
O28 O -0.2568(2) -0.88430(14) -0.21707(13)
C64 C -0.2741(3) -1.03046(18) -0.28227(17)
C65 C -0.2693(2) -0.97221(17) -0.29582(17)
C66 C -0.3136(3) -1.07671(19) -0.31767(19)
H25 H -0.3159 -1.1155 -0.3101
C67 C -0.3046(2) -0.95980(18) -0.34296(16)
H26 H -0.3002 -0.9210 -0.3514
C68 C -0.3499(3) -1.06437(19) -0.36473(18)
H27 H -0.3770 -1.0955 -0.3887
C69 C -0.3469(2) -1.00634(18) -0.37748(15)
C70 C -0.3945(2) -0.99666(18) -0.42540(15)
O29 O -0.39905(15) -0.94382(12) -0.43108(10)
O30 O -0.42842(16) -1.04050(12) -0.45618(10)
O31 O 0.44169(15) -0.95725(12) -0.42678(10)
O32 O 0.41352(15) -1.05585(11) -0.44865(10)
C71 C 0.4073(2) -1.0090(2) -0.41956(15)
C72 C 0.3548(2) -1.01611(19) -0.37056(15)
C73 C 0.3424(3) -0.96669(18) -0.33890(16)
H28 H 0.3649 -0.9289 -0.3477
C74 C 0.3208(3) -1.0724(2) -0.35669(19)
H29 H 0.3291 -1.1053 -0.3787
C75 C 0.2959(3) -0.97521(18) -0.29428(18)
C76 C 0.2756(4) -1.0800(2) -0.3113(2)
H30 H 0.2544 -1.1178 -0.3018
C77 C 0.2612(3) -1.0307(2) -0.2793(2)
S6 S 0.26995(9) -0.92034(5) -0.24786(6)
O33 O 0.3350(2) -0.88540(13) -0.21676(13)
O34 O 0.2234(3) -0.88900(16) -0.27631(15)
C78 C 0.2153(3) -1.0288(2) -0.2297(2)
C79 C 0.2133(3) -0.97300(19) -0.20742(18)
C80 C 0.1763(3) -1.0768(2) -0.2024(2)
H31 H 0.1768 -1.1154 -0.2159
C81 C 0.1741(2) -0.96084(18) -0.16033(17)
H32 H 0.1739 -0.9221 -0.1469
C82 C 0.1372(3) -1.0650(2) -0.1550(2)
H33 H 0.1113 -1.0965 -0.1366
C83 C 0.1349(3) -1.00801(18) -0.13356(16)
C84 C 0.0897(2) -0.99839(18) -0.08279(15)
O35 O 0.08729(15) -0.94669(11) -0.06649(10)
O36 O 0.05822(15) -1.04388(11) -0.06034(10)
N5 N 0.02047(18) -0.84697(13) 0.00535(12)
C125 C 0.0344(3) -0.81622(18) -0.03861(18)
H58 H 0.0463 -0.8351 -0.0721
C126 C 0.0085(4) -0.8186(2) 0.0519(2)
H59 H 0.0023 -0.8390 0.0836
C127 C 0.0320(3) -0.75789(19) -0.03667(19)
H60 H 0.0424 -0.7378 -0.0684
C128 C 0.0046(4) -0.7603(2) 0.0575(2)
H61 H -0.0047 -0.7423 0.0921
C129 C 0.0143(3) -0.72879(18) 0.01215(18)
C130 C 0.0109(3) -0.6680(2) 0.01474(19)
C131 C 0.0080(3) -0.6175(2) 0.01247(19)
C132 C 0.0033(2) -0.55783(18) 0.00689(19)
C133 C 0.0325(3) -0.5320(2) -0.0391(2)
H62 H 0.0555 -0.5534 -0.0659
C134 C -0.0286(3) -0.5255(2) 0.0466(2)
H63 H -0.0476 -0.5421 0.0787
N6 N -0.47774(19) -0.84697(13) -0.48524(13)
C135 C -0.4800(3) -0.8126(2) -0.4413(2)
H64 H -0.4799 -0.8273 -0.4066
C136 C -0.4688(3) -0.8219(2) -0.5352(2)
H65 H -0.4607 -0.8448 -0.5674
C137 C -0.4826(4) -0.7530(2) -0.4438(2)
H66 H -0.4826 -0.7295 -0.4104
C138 C -0.4715(3) -0.7632(2) -0.5384(2)
H67 H -0.4646 -0.7465 -0.5722
C139 C -0.4849(3) -0.72929(19) -0.4891(2)
C140 C -0.4879(3) -0.6690(2) -0.4928(2)
C141 C -0.4917(3) -0.6185(2) -0.4938(2)
C142 C -0.4954(3) -0.5586(2) -0.4959(3)
C143 C -0.5274(3) -0.5288(2) -0.4533(3)
H68 H -0.5460 -0.5477 -0.4221
C144 C -0.4684(3) -0.5305(2) -0.5426(2)
H69 H -0.4474 -0.5510 -0.5713
Zn5A Zn -0.01775(2) -1.065170(18) 0.001630(16)
Zn5A_2 Zn -0.01775(2) -0.065170(18) 0.001630(16)
Zn6A Zn 0.48147(2) -1.065360(18) 0.486370(16)
Zn6A_2 Zn -0.51853(2) -1.065360(18) -0.513630(16)
Zn6_2 Zn 0.51853(2) -0.934640(18) -0.486370(16)
Zn6A_3 Zn 0.48147(2) -1.065360(18) -0.513630(16)
Zn6A_4 Zn -0.51853(2) -0.065360(18) -0.513630(16)
Zn6_3 Zn 0.51853(2) -0.934640(18) 0.513630(16)
Zn6A_5 Zn -0.51853(2) -1.065360(18) 0.486370(16)
Zn6_4 Zn -0.48147(2) -0.934640(18) 0.513630(16)
O25A O 0.07181(15) -1.03866(11) 0.05815(10)
O26A O 0.09962(15) -0.94098(11) 0.05492(10)
C57A C 0.1048(2) -0.98708(18) 0.07629(15)
C58A C 0.1526(2) -0.97996(19) 0.12890(16)
C59A C 0.1583(2) -1.02989(18) 0.15535(16)
H22A H 0.1351 -1.0674 0.1396
C60A C 0.1889(3) -0.92500(18) 0.15275(17)
H23A H 0.1854 -0.8917 0.1351
C61A C 0.1981(3) -1.02262(18) 0.20422(16)
C62A C 0.2301(3) -0.91861(19) 0.20196(19)
H24A H 0.2553 -0.8812 0.2169
C63A C 0.2345(3) -0.96703(18) 0.22929(17)
S5A S 0.21232(8) -1.07874(5) 0.24590(5)
O27A O 0.1414(2) -1.10680(14) 0.26913(13)
O28A O 0.2568(2) -1.11570(14) 0.21707(13)
C64A C 0.2741(3) -0.96954(18) 0.28227(17)
C65A C 0.2693(2) -1.02779(17) 0.29582(17)
C66A C 0.3136(3) -0.92329(19) 0.31767(19)
H25A H 0.3159 -0.8845 0.3101
C67A C 0.3046(2) -1.04020(18) 0.34296(16)
H26A H 0.3002 -1.0790 0.3514
C68A C 0.3499(3) -0.93563(19) 0.36473(18)
H27A H 0.3770 -0.9045 0.3887
C69A C 0.3469(2) -0.99366(18) 0.37748(15)
C70A C 0.3945(2) -1.00334(18) 0.42540(15)
O29A O 0.39905(15) -1.05618(12) 0.43108(10)
O30A O 0.42842(16) -0.95950(12) 0.45618(10)
O30A_2 O -0.57158(16) -0.95950(12) -0.54382(10)
O30_2 O 0.57158(16) -1.04050(12) 0.54382(10)
O31A O -0.44169(15) -1.04275(12) 0.42678(10)
O31_2 O -0.55831(15) -0.95725(12) -0.42678(10)
O31A_2 O 0.55831(15) -1.04275(12) 0.42678(10)
O32A O -0.41352(15) -0.94415(11) 0.44865(10)
O32A_2 O -0.41352(15) -0.94415(11) -0.55135(10)
O32_2 O 0.41352(15) -1.05585(11) 0.55135(10)
C71A C -0.4073(2) -0.9910(2) 0.41956(15)
C72A C -0.3548(2) -0.98389(19) 0.37056(15)
C73A C -0.3424(3) -1.03331(18) 0.33890(16)
H28A H -0.3649 -1.0711 0.3477
C74A C -0.3208(3) -0.9276(2) 0.35669(19)
H29A H -0.3291 -0.8947 0.3787
C75A C -0.2959(3) -1.02479(18) 0.29428(18)
C76A C -0.2756(4) -0.9200(2) 0.3113(2)
H30A H -0.2544 -0.8822 0.3018
C77A C -0.2612(3) -0.9693(2) 0.2793(2)
S6A S -0.26995(9) -1.07966(5) 0.24786(6)
O33A O -0.3350(2) -1.11460(13) 0.21676(13)
O34A O -0.2234(3) -1.11100(16) 0.27631(15)
C78A C -0.2153(3) -0.9712(2) 0.2297(2)
C79A C -0.2133(3) -1.02700(19) 0.20742(18)
C80A C -0.1763(3) -0.9232(2) 0.2024(2)
H31A H -0.1768 -0.8846 0.2159
C81A C -0.1741(2) -1.03916(18) 0.16033(17)
H32A H -0.1739 -1.0779 0.1469
C82A C -0.1372(3) -0.9350(2) 0.1550(2)
H33A H -0.1113 -0.9035 0.1366
C83A C -0.1349(3) -0.99199(18) 0.13356(16)
C84A C -0.0897(2) -1.00161(18) 0.08279(15)
O35A O -0.08729(15) -1.05331(11) 0.06649(10)
O36A O -0.05822(15) -0.95612(11) 0.06034(10)
N5A N -0.02047(18) -0.15303(13) -0.00535(12)
N5A_2 N -0.02047(18) -1.15303(13) -0.00535(12)
C125A C -0.0344(3) -0.18378(18) 0.03861(18)
H58A H -0.0463 -0.1649 0.0721
C126A C -0.0085(4) -0.1814(2) -0.0519(2)
H59A H -0.0023 -0.1610 -0.0836
C127A C -0.0320(3) -0.24211(19) 0.03667(19)
H60A H -0.0424 -0.2622 0.0684
C128A C -0.0046(4) -0.2397(2) -0.0575(2)
H61A H 0.0047 -0.2577 -0.0921
C129A C -0.0143(3) -0.27121(18) -0.01215(18)
C130A C -0.0109(3) -0.3320(2) -0.01474(19)
C131A C -0.0080(3) -0.3825(2) -0.01247(19)
C132A C -0.0033(2) -0.44217(18) -0.00689(19)
C133A C -0.0325(3) -0.4680(2) 0.0391(2)
H62A H -0.0555 -0.4466 0.0659
C134A C 0.0286(3) -0.4745(2) -0.0466(2)
H63A H 0.0476 -0.4579 -0.0787
N6A N -0.52226(19) -0.15303(13) -0.51476(13)
N6A_2 N 0.47774(19) -1.15303(13) 0.48524(13)
C135A C -0.5200(3) -0.1874(2) -0.5587(2)
H64A H -0.5201 -0.1727 -0.5934
C136A C -0.5312(3) -0.1781(2) -0.4648(2)
H65A H -0.5393 -0.1552 -0.4326
C137A C -0.5174(4) -0.2470(2) -0.5562(2)
H66A H -0.5174 -0.2705 -0.5896
C138A C -0.5285(3) -0.2368(2) -0.4616(2)
H67A H -0.5354 -0.2535 -0.4278
C139A C -0.5151(3) -0.27071(19) -0.5109(2)
C140A C -0.5121(3) -0.3310(2) -0.5072(2)
C141A C -0.5083(3) -0.3815(2) -0.5062(2)
C142A C -0.5046(3) -0.4414(2) -0.5041(3)
C143A C -0.4726(3) -0.4712(2) -0.5467(3)
H68A H -0.4540 -0.4523 -0.5779
C144A C -0.5316(3) -0.4695(2) -0.4574(2)
H69A H -0.5526 -0.4490 -0.4287
loop_
_geom_bond_atom_site_label_1
_geom_bond_atom_site_label_2
_geom_bond_site_symmetry_1
_geom_bond_site_symmetry_2
Zn1 O1 1_555 1_555
Zn2 O2 1_555 1_555
Zn3 O5 1_555 1_555
Zn4 O7 1_555 1_555
Zn5 O25 1_555 1_555
Zn6 O29 1_555 1_555
O1 C1 1_555 1_555
O2 C1 1_555 1_555
C1 C2 1_555 1_555
C2 C3 1_555 1_555
C3 H1 1_555 1_555
C4 C2 1_555 1_555
H2 C4 1_555 1_555
C5 C3 1_555 1_555
C6 C4 1_555 1_555
H3 C6 1_555 1_555
C7 C5 1_555 1_555
S1 C5 1_555 1_555
O3 S1 1_555 1_555
O4 S1 1_555 1_555
C8 C7 1_555 1_555
C9 S1 1_555 1_555
C10 C8 1_555 1_555
H4 C10 1_555 1_555
C11 C9 1_555 1_555
H5 C11 1_555 1_555
C12 C10 1_555 1_555
H6 C12 1_555 1_555
C13 C11 1_555 1_555
C14 C13 1_555 1_555
O5 C14 1_555 1_555
O6 C14 1_555 1_555
O7 C15 1_555 1_555
O8 C15 1_555 1_555
C15 C16 1_555 1_555
C16 C17 1_555 1_555
C17 H7 1_555 1_555
C18 C16 1_555 1_555
H8 C18 1_555 1_555
C19 C17 1_555 1_555
C20 C18 1_555 1_555
H9 C20 1_555 1_555
C21 C19 1_555 1_555
S2 C19 1_555 1_555
O9 S2 1_555 1_555
O10 S2 1_555 1_555
C22 C21 1_555 1_555
C23 S2 1_555 1_555
C24 C22 1_555 1_555
H10 C24 1_555 1_555
C25 C23 1_555 1_555
H11 C25 1_555 1_555
C26 C24 1_555 1_555
H12 C26 1_555 1_555
C27 C25 1_555 1_555
C28 C27 1_555 1_555
O11 Zn2 1_555 1_555
O12 Zn1 1_555 1_555
O13 Zn1 1_555 1_555
O14 Zn2 1_555 1_555
C29 O13 1_555 1_555
C30 C29 1_555 1_555
C31 C30 1_555 1_555
H13 C31 1_555 1_555
C32 C30 1_555 1_555
H14 C32 1_555 1_555
C33 C31 1_555 1_555
C34 C32 1_555 1_555
H15 C34 1_555 1_555
C35 C33 1_555 1_555
S3 C33 1_555 1_555
O15 S3 1_555 1_555
O16 S3 1_555 1_555
C36 C35 1_555 1_555
C37 S3 1_555 1_555
C38 C36 1_555 1_555
H16 C38 1_555 1_555
C39 C37 1_555 1_555
H17 C39 1_555 1_555
C40 C38 1_555 1_555
H18 C40 1_555 1_555
C41 C39 1_555 1_555
C42 C41 1_555 1_555
O17 C42 1_555 1_555
O18 C42 1_555 1_555
O19 Zn2 1_555 1_555
O20 Zn1 1_555 1_555
C43 O19 1_555 1_555
C44 C43 1_555 1_555
C45 C44 1_555 1_555
H19 C45 1_555 1_555
C46 C44 1_555 1_555
H20 C46 1_555 1_555
C47 C45 1_555 1_555
C48 C46 1_555 1_555
H21 C48 1_555 1_555
C49 C47 1_555 1_555
S4 C47 1_555 1_555
O21 S4 1_555 1_555
O22 S4 1_555 1_555
C50 C49 1_555 1_555
C51 S4 1_555 1_555
C52 C50 1_555 1_555
C53 C51 1_555 1_555
C54 C52 1_555 1_555
C55 C53 1_555 1_555
C56 C55 1_555 1_555
O23 C56 1_555 1_555
O24 C56 1_555 1_555
O25 C57 1_555 1_555
O26 C57 1_555 1_555
C57 C58 1_555 1_555
C58 C59 1_555 1_555
C59 H22 1_555 1_555
C60 C58 1_555 1_555
H23 C60 1_555 1_555
C61 C59 1_555 1_555
C62 C60 1_555 1_555
H24 C62 1_555 1_555
C63 C61 1_555 1_555
S5 C61 1_555 1_555
O27 S5 1_555 1_555
O28 S5 1_555 1_555
C64 C63 1_555 1_555
C65 S5 1_555 1_555
C66 C64 1_555 1_555
H25 C66 1_555 1_555
C67 C65 1_555 1_555
H26 C67 1_555 1_555
C68 C66 1_555 1_555
H27 C68 1_555 1_555
C69 C67 1_555 1_555
C70 C69 1_555 1_555
O29 C70 1_555 1_555
O30 C70 1_555 1_555
O31 C71 1_555 1_555
O32 C71 1_555 1_555
C71 C72 1_555 1_555
C72 C73 1_555 1_555
C73 H28 1_555 1_555
C74 C72 1_555 1_555
H29 C74 1_555 1_555
C75 C73 1_555 1_555
C76 C74 1_555 1_555
H30 C76 1_555 1_555
C77 C75 1_555 1_555
S6 C75 1_555 1_555
O33 S6 1_555 1_555
O34 S6 1_555 1_555
C78 C77 1_555 1_555
C79 S6 1_555 1_555
C80 C78 1_555 1_555
H31 C80 1_555 1_555
C81 C79 1_555 1_555
H32 C81 1_555 1_555
C82 C80 1_555 1_555
H33 C82 1_555 1_555
C83 C81 1_555 1_555
C84 C83 1_555 1_555
O35 Zn5 1_555 1_555
O36 C84 1_555 1_555
N1 Zn1 1_555 1_555
C85 N1 1_555 1_555
H34 C85 1_555 1_555
C86 N1 1_555 1_555
H35 C86 1_555 1_555
C87 C85 1_555 1_555
H36 C87 1_555 1_555
C88 C86 1_555 1_555
H37 C88 1_555 1_555
C89 C87 1_555 1_555
C90 C89 1_555 1_555
C91 C90 1_555 1_555
C92 C91 1_555 1_555
C93 C92 1_555 1_555
H38 C93 1_555 1_555
C94 C92 1_555 1_555
H39 C94 1_555 1_555
C95 C93 1_555 1_555
H40 C95 1_555 1_555
C96 C94 1_555 1_555
H41 C96 1_555 1_555
C97 C95 1_555 1_555
C98 C97 1_555 1_555
C99 C98 1_555 1_555
C100 C99 1_555 1_555
C101 C100 1_555 1_555
H42 C101 1_555 1_555
C102 C100 1_555 1_555
H43 C102 1_555 1_555
C103 C101 1_555 1_555
H44 C103 1_555 1_555
C104 C102 1_555 1_555
H45 C104 1_555 1_555
N2 C103 1_555 1_555
N3 Zn3 1_555 1_555
C105 N3 1_555 1_555
H46 C105 1_555 1_555
C106 N3 1_555 1_555
H47 C106 1_555 1_555
C107 C105 1_555 1_555
H48 C107 1_555 1_555
C108 C106 1_555 1_555
H49 C108 1_555 1_555
C109 C107 1_555 1_555
C110 C109 1_555 1_555
C111 C110 1_555 1_555
C112 C111 1_555 1_555
C113 C112 1_555 1_555
H50 C113 1_555 1_555
C114 C112 1_555 1_555
H51 C114 1_555 1_555
C115 C113 1_555 1_555
H52 C115 1_555 1_555
C116 C114 1_555 1_555
H53 C116 1_555 1_555
C117 C115 1_555 1_555
C118 C117 1_555 1_555
C119 C118 1_555 1_555
C120 C119 1_555 1_555
C121 C120 1_555 1_555
H54 C121 1_555 1_555
C122 C120 1_555 1_555
H55 C122 1_555 1_555
C123 C121 1_555 1_555
H56 C123 1_555 1_555
C124 C122 1_555 1_555
H57 C124 1_555 1_555
N4 C123 1_555 1_555
N5 Zn5 1_555 1_555
C125 N5 1_555 1_555
H58 C125 1_555 1_555
C126 N5 1_555 1_555
H59 C126 1_555 1_555
C127 C125 1_555 1_555
H60 C127 1_555 1_555
C128 C126 1_555 1_555
H61 C128 1_555 1_555
C129 C127 1_555 1_555
C130 C129 1_555 1_555
C131 C130 1_555 1_555
C132 C131 1_555 1_555
C133 C132 1_555 1_555
H62 C133 1_555 1_555
C134 C132 1_555 1_555
H63 C134 1_555 1_555
N6 Zn6 1_555 1_555
C135 N6 1_555 1_555
H64 C135 1_555 1_555
C136 N6 1_555 1_555
H65 C136 1_555 1_555
C137 C135 1_555 1_555
H66 C137 1_555 1_555
C138 C136 1_555 1_555
H67 C138 1_555 1_555
C139 C137 1_555 1_555
C140 C139 1_555 1_555
C141 C140 1_555 1_555
C142 C141 1_555 1_555
C143 C142 1_555 1_555
H68 C143 1_555 1_555
C144 C142 1_555 1_555
H69 C144 1_555 1_555
Zn2_2 N2 1_555 1_555
Zn3_2 O8 1_555 1_555
Zn3_3 O17 1_555 1_555
Zn3_4 O24 1_555 1_555
Zn4_2 O6 1_555 1_555
Zn4_3 O18 1_555 1_555
Zn4_4 O23 1_555 1_555
Zn4_5 N4 1_555 1_555
Zn5A O26 1_555 1_555
Zn5A_2 N5A 1_555 1_555
Zn6A O29A 1_555 1_555
Zn6A_2 O30 1_555 1_555
Zn6_2 O31 1_555 1_555
Zn6A_3 O32 1_555 1_555
Zn6A_4 N6A 1_555 1_555
Zn6_3 O30A 1_555 1_555
Zn6A_5 O31A 1_555 1_555
Zn6_4 O32A 1_555 1_555
O6_2 Zn4 1_555 1_555
O8_2 Zn3 1_555 1_555
O17_2 Zn3 1_555 1_555
O18_2 Zn4 1_555 1_555
O23_2 Zn4 1_555 1_555
O24_2 Zn3 1_555 1_555
O25A Zn5A 1_555 1_555
O26A Zn5 1_555 1_555
C57A O25A 1_555 1_555
C58A C57A 1_555 1_555
C59A C58A 1_555 1_555
H22A C59A 1_555 1_555
C60A C58A 1_555 1_555
H23A C60A 1_555 1_555
C61A C59A 1_555 1_555
C62A C60A 1_555 1_555
H24A C62A 1_555 1_555
C63A C61A 1_555 1_555
S5A C61A 1_555 1_555
O27A S5A 1_555 1_555
O28A S5A 1_555 1_555
C64A C63A 1_555 1_555
C65A S5A 1_555 1_555
C66A C64A 1_555 1_555
H25A C66A 1_555 1_555
C67A C65A 1_555 1_555
H26A C67A 1_555 1_555
C68A C66A 1_555 1_555
H27A C68A 1_555 1_555
C69A C67A 1_555 1_555
C70A C69A 1_555 1_555
O29A C70A 1_555 1_555
O30A C70A 1_555 1_555
O30A_2 Zn6 1_555 1_555
O30_2 Zn6A 1_555 1_555
O31A C71A 1_555 1_555
O31_2 Zn6 1_555 1_555
O31A_2 Zn6A 1_555 1_555
O32A C71A 1_555 1_555
O32A_2 Zn6 1_555 1_555
O32_2 Zn6A 1_555 1_555
C71A C72A 1_555 1_555
C72A C73A 1_555 1_555
C73A H28A 1_555 1_555
C74A C72A 1_555 1_555
H29A C74A 1_555 1_555
C75A C73A 1_555 1_555
C76A C74A 1_555 1_555
H30A C76A 1_555 1_555
C77A C75A 1_555 1_555
S6A C75A 1_555 1_555
O33A S6A 1_555 1_555
O34A S6A 1_555 1_555
C78A C77A 1_555 1_555
C79A S6A 1_555 1_555
C80A C78A 1_555 1_555
H31A C80A 1_555 1_555
C81A C79A 1_555 1_555
H32A C81A 1_555 1_555
C82A C80A 1_555 1_555
H33A C82A 1_555 1_555
C83A C81A 1_555 1_555
C84A C83A 1_555 1_555
O35A Zn5A 1_555 1_555
O36A Zn5 1_555 1_555
N2_2 Zn2 1_555 1_555
N4_2 Zn4 1_555 1_555
N5A C125A 1_555 1_555
N5A_2 Zn5A 1_555 1_555
C125A H58A 1_555 1_555
C126A N5A 1_555 1_555
H59A C126A 1_555 1_555
C127A C125A 1_555 1_555
H60A C127A 1_555 1_555
C128A C126A 1_555 1_555
H61A C128A 1_555 1_555
C129A C127A 1_555 1_555
C130A C129A 1_555 1_555
C131A C130A 1_555 1_555
C132A C131A 1_555 1_555
C133A C134 1_555 1_555
H62A C133A 1_555 1_555
C134A C133 1_555 1_555
H63A C134A 1_555 1_555
N6A C135A 1_555 1_555
N6A_2 Zn6A 1_555 1_555
C135A H64A 1_555 1_555
C136A N6A 1_555 1_555
H65A C136A 1_555 1_555
C137A C135A 1_555 1_555
H66A C137A 1_555 1_555
C138A C136A 1_555 1_555
H67A C138A 1_555 1_555
C139A C137A 1_555 1_555
C140A C139A 1_555 1_555
C141A C140A 1_555 1_555
C142A C141A 1_555 1_555
C143A C144 1_555 1_555
H68A C143A 1_555 1_555
C144A C143 1_555 1_555
H69A C144A 1_555 1_555
C6 C7 1_555 1_555
C8 C9 1_555 1_555
C12 C13 1_555 1_555
C20 C21 1_555 1_555
C22 C23 1_555 1_555
C26 C27 1_555 1_555
C28 O11 1_555 1_555
C28 O12 1_555 1_555
O14 C29 1_555 1_555
C34 C35 1_555 1_555
C36 C37 1_555 1_555
C40 C41 1_555 1_555
O20 C43 1_555 1_555
C48 C49 1_555 1_555
C50 C51 1_555 1_555
C54 C55 1_555 1_555
C62 C63 1_555 1_555
C64 C65 1_555 1_555
C68 C69 1_555 1_555
C76 C77 1_555 1_555
C78 C79 1_555 1_555
C82 C83 1_555 1_555
C84 O35 1_555 1_555
O36 Zn5A 1_555 1_555
C88 C89 1_555 1_555
C96 C97 1_555 1_555
C104 N2 1_555 1_555
C108 C109 1_555 1_555
C116 C117 1_555 1_555
C124 N4 1_555 1_555
C128 C129 1_555 1_555
C138 C139 1_555 1_555
O26A C57A 1_555 1_555
C62A C63A 1_555 1_555
C64A C65A 1_555 1_555
C68A C69A 1_555 1_555
C76A C77A 1_555 1_555
C78A C79A 1_555 1_555
C82A C83A 1_555 1_555
C84A O35A 1_555 1_555
C84A O36A 1_555 1_555
C128A C129A 1_555 1_555
C132A C133A 1_555 1_555
C132A C134A 1_555 1_555
C138A C139A 1_555 1_555
C142A C143A 1_555 1_555
C142A C144A 1_555 1_555

#END
