
#######################################################################
#
#                 Cambridge Crystallographic Data Centre
#                                CCDC 
#
#######################################################################
#
# If this CIF has been generated from an entry in the Cambridge 
# Structural Database, then it will include bibliographic, chemical, 
# crystal, experimental, refinement or atomic coordinate data resulting 
# from the CCDC's data processing and validation procedures.
#
#######################################################################

data_OXALAB
_symmetry_cell_setting           triclinic
_symmetry_space_group_name_H-M   'P -1'
_symmetry_Int_Tables_number      2
_space_group_name_Hall           '-P 1'
loop_
_symmetry_equiv_pos_site_id
_symmetry_equiv_pos_as_xyz
1 x,y,z
2 -x,-y,-z
_cell_length_a                   11.868(3)
_cell_length_b                   16.265(5)
_cell_length_c                   16.379(5)
_cell_angle_alpha                108.099(2)
_cell_angle_beta                 102.855(4)
_cell_angle_gamma                101.216(2)
_cell_volume                     2808.87
loop_
_atom_site_label
_atom_site_type_symbol
_atom_site_fract_x
_atom_site_fract_y
_atom_site_fract_z
N1 N 0.0673(7) 0.1421(6) 0.4697(6)
C33 C 0.1959(8) 0.2007(6) 0.5087(7)
C34 C 0.0083(9) 0.1171(6) 0.3772(6)
Co1 Co 0.18269(5) 0.89444(4) 0.38414(4)
O1 O 0.4838(5) 0.4881(3) 0.1575(5)
C1 C 0.4591(4) 0.3399(3) 0.0583(3)
Co2 Co 0.5000 1.0000 0.5000
O2 O 0.4747(3) 0.8648(2) 0.4105(2)
C2 C 0.4036(5) 0.4124(3) 0.1020(4)
H1 H 0.3503 0.4246 0.0540
H2 H 0.3532 0.3894 0.1352
O3 O 0.2790(3) 0.8101(2) 0.3312(2)
C3 C 0.4495(6) 0.5639(4) 0.1945(5)
O4 O 0.6723(3) 0.4053(2) 0.1296(3)
C4 C 0.5425(6) 0.6347(4) 0.2508(7)
H3 H 0.6225 0.6306 0.2570
O5 O 0.0179(3) 0.8060(2) 0.2759(3)
O6 O 0.0486(4) 0.7780(3) 0.3998(3)
C5 C 0.4071(4) 0.7215(3) 0.2923(3)
O7 O 0.4186(3) 0.2103(2) -0.07348(19)
C6 C 0.3132(5) 0.6490(3) 0.2339(3)
H4 H 0.2329 0.6522 0.2281
O8 O 0.3205(2) 0.95766(19) 0.52203(19)
C7 C 0.3335(6) 0.5695(3) 0.1822(4)
H5 H 0.2678 0.5205 0.1394
O9 O 0.1448(3) 0.9879(2) 0.5076(2)
C8 C 0.3846(4) 0.8055(3) 0.3484(3)
O10 O 0.3608(3) 0.2367(2) 0.1149(2)
C9 C 0.5831(5) 0.3796(3) 0.0497(4)
H6 H 0.6006 0.3339 0.0018
H7 H 0.5814 0.4325 0.0322
O11 O 0.2128(3) 0.9953(2) 0.3306(2)
C10 C 0.7480(4) 0.4913(3) 0.1707(4)
O12 O 0.4133(3) 1.0347(2) 0.3899(2)
C11 C 0.7810(4) 0.5465(3) 0.1270(4)
H8 H 0.7493 0.5264 0.0633
C12 C 0.8607(4) 0.6321(3) 0.1754(3)
H9 H 0.8821 0.6702 0.1441
C13 C 0.9089(4) 0.6627(3) 0.2669(3)
C14 C 0.8794(5) 0.6063(4) 0.3117(4)
H10 H 0.9145 0.6254 0.3750
C15 C 0.7969(5) 0.5204(4) 0.2627(4)
H11 H 0.7746 0.4820 0.2935
C16 C -0.0039(4) 0.7539(3) 0.3168(4)
C17 C 0.3722(4) 0.2837(3) -0.0367(3)
H12 H 0.2902 0.2608 -0.0339
H13 H 0.3685 0.3208 -0.0746
C18 C 0.3698(4) 0.1589(3) -0.1636(3)
C19 C 0.4381(4) 0.1055(3) -0.2001(3)
H14 H 0.5115 0.1050 -0.1627
C20 C 0.3987(4) 0.0535(3) -0.2907(3)
H15 H 0.4466 0.0187 -0.3163
C21 C 0.2895(4) 0.0516(3) -0.3448(3)
C22 C 0.2198(4) 0.1032(3) -0.3080(3)
H16 H 0.1453 0.1022 -0.3453
C23 C 0.2596(4) 0.1568(3) -0.2162(3)
H17 H 0.2116 0.1912 -0.1903
C24 C 0.2489(4) 0.9970(3) 0.5564(3)
C25 C 0.4764(4) 0.2820(3) 0.1152(3)
H18 H 0.5177 0.2375 0.0897
H19 H 0.5265 0.3205 0.1777
C26 C 0.3564(4) 0.1883(3) 0.1695(3)
C27 C 0.2440(4) 0.1444(4) 0.1685(4)
H20 H 0.1741 0.1476 0.1293
C28 C 0.2309(4) 0.0967(4) 0.2225(4)
H21 H 0.1524 0.0692 0.2223
C29 C 0.3297(4) 0.0879(3) 0.2773(3)
C30 C 0.4426(4) 0.1309(4) 0.2777(4)
H22 H 0.5118 0.1259 0.3160
C31 C 0.4583(4) 0.1810(4) 0.2242(4)
H23 H 0.5367 0.2096 0.2252
C32 C 0.3178(4) 1.0360(3) 0.3375(3)
C35 C 0.5231(6) 0.7147(4) 0.3007(5)
H24 H 0.5899 0.7646 0.3406
O2A O 0.5253(3) 1.1352(2) 0.5895(2)
O8A O 0.6795(2) 1.04234(19) 0.47797(19)
O12A O 0.5867(3) 0.9653(2) 0.6101(2)
C13_2 C -0.0911(4) 0.6627(3) 0.2669(3)
C16_2 C 0.9961(4) 0.7539(3) 0.3168(4)
C21_2 C 0.2895(4) 1.0516(3) 0.6552(3)
C24_2 C 0.2489(4) -0.0030(3) -0.4436(3)
C29_2 C 0.3297(4) 1.0879(3) 0.2773(3)
C32_2 C 0.3178(4) 0.0360(3) 0.3375(3)
loop_
_geom_bond_atom_site_label_1
_geom_bond_atom_site_label_2
_geom_bond_site_symmetry_1
_geom_bond_site_symmetry_2
Co1 O3 1_555 1_555
O1 C2 1_555 1_555
N1 C33 1_555 1_555
C1 C2 1_555 1_555
Co2 O2 1_555 1_555
O2 C8 1_555 1_555
C2 H1 1_555 1_555
H2 C2 1_555 1_555
O3 C8 1_555 1_555
C3 O1 1_555 1_555
O4 C9 1_555 1_555
C4 C3 1_555 1_555
H3 C4 1_555 1_555
O5 Co1 1_555 1_555
O6 Co1 1_555 1_555
C5 C6 1_555 1_555
O7 C17 1_555 1_555
C6 H4 1_555 1_555
O8 Co1 1_555 1_555
C7 C3 1_555 1_555
H5 C7 1_555 1_555
O9 Co1 1_555 1_555
C8 C5 1_555 1_555
O10 C25 1_555 1_555
C9 C1 1_555 1_555
H6 C9 1_555 1_555
H7 C9 1_555 1_555
O11 Co1 1_555 1_555
C10 O4 1_555 1_555
O12 Co2 1_555 1_555
C11 C10 1_555 1_555
H8 C11 1_555 1_555
C12 C11 1_555 1_555
H9 C12 1_555 1_555
C13 C12 1_555 1_555
C14 C13 1_555 1_555
H10 C14 1_555 1_555
C15 C10 1_555 1_555
H11 C15 1_555 1_555
C16 O5 1_555 1_555
C17 C1 1_555 1_555
H12 C17 1_555 1_555
H13 C17 1_555 1_555
C18 O7 1_555 1_555
C19 C18 1_555 1_555
H14 C19 1_555 1_555
C20 C19 1_555 1_555
H15 C20 1_555 1_555
C21 C20 1_555 1_555
C22 C21 1_555 1_555
H16 C22 1_555 1_555
C23 C18 1_555 1_555
H17 C23 1_555 1_555
C24 O8 1_555 1_555
C25 C1 1_555 1_555
H18 C25 1_555 1_555
H19 C25 1_555 1_555
C26 O10 1_555 1_555
C27 C26 1_555 1_555
H20 C27 1_555 1_555
C28 C27 1_555 1_555
H21 C28 1_555 1_555
C29 C28 1_555 1_555
C30 C29 1_555 1_555
H22 C30 1_555 1_555
C31 C26 1_555 1_555
H23 C31 1_555 1_555
C32 O11 1_555 1_555
C34 N1 1_555 1_555
C35 C4 1_555 1_555
H24 C35 1_555 1_555
O2A Co2 1_555 1_555
O8A Co2 1_555 1_555
O12A Co2 1_555 1_555
C13_2 C16 1_555 1_555
C16_2 C13 1_555 1_555
C21_2 C24 1_555 1_555
C24_2 C21 1_555 1_555
C29_2 C32 1_555 1_555
C32_2 C29 1_555 1_555
Co2 O8 1_555 1_555
O6 C16 1_555 1_555
C5 C35 1_555 1_555
C6 C7 1_555 1_555
O9 C24 1_555 1_555
O12 C32 1_555 1_555
C14 C15 1_555 1_555
C22 C23 1_555 1_555
C30 C31 1_555 1_555

#END
