
#######################################################################
#
#                 Cambridge Crystallographic Data Centre
#                                CCDC 
#
#######################################################################
#
# If this CIF has been generated from an entry in the Cambridge 
# Structural Database, then it will include bibliographic, chemical, 
# crystal, experimental, refinement or atomic coordinate data resulting 
# from the CCDC's data processing and validation procedures.
#
#######################################################################

data_OXAZIX
_symmetry_cell_setting           monoclinic
_symmetry_space_group_name_H-M   'P 21/c'
_symmetry_Int_Tables_number      14
_space_group_name_Hall           '-P 2ybc'
loop_
_symmetry_equiv_pos_site_id
_symmetry_equiv_pos_as_xyz
1 x,y,z
2 -x,1/2+y,1/2-z
3 -x,-y,-z
4 x,1/2-y,1/2+z
_cell_length_a                   9.350(4)
_cell_length_b                   16.158(6)
_cell_length_c                   8.309(3)
_cell_angle_alpha                90
_cell_angle_beta                 94.078(7)
_cell_angle_gamma                90
_cell_volume                     1252.12
loop_
_atom_site_label
_atom_site_type_symbol
_atom_site_fract_x
_atom_site_fract_y
_atom_site_fract_z
Pr1 Pr -0.39198(16) 0.39347(9) 0.5319(2)
C1 C -0.245(3) 0.246(2) 0.293(4)
C2 C -0.107(3) 0.2034(19) 0.258(4)
C3 C 0.024(4) 0.234(3) 0.293(5)
H1 H 0.0338 0.2845 0.3460
C4 C 0.140(3) 0.194(2) 0.256(5)
H2 H 0.2304 0.2177 0.2765
C5 C 0.126(3) 0.1165(17) 0.185(4)
C6 C -0.008(3) 0.0876(18) 0.152(3)
H3 H -0.0185 0.0355 0.1053
C7 C 0.256(3) 0.0705(19) 0.129(3)
N1 N -0.127(2) 0.1298(16) 0.184(3)
O1 O -0.531(3) 0.2635(16) 0.454(3)
H4 H -0.4947 0.2163 0.4751
H5 H -0.6146 0.2671 0.4059
O2 O 0.239(2) 0.0012(16) 0.081(3)
O3 O 0.3744(18) 0.1086(11) 0.145(2)
O4 O -0.236(2) 0.3075(16) 0.378(3)
O5 O -0.357(2) 0.2110(14) 0.233(3)
O6 O -0.441(3) 0.5291(16) 0.676(3)
H6 H -0.4063 0.5463 0.7787
H7 H -0.5194 0.5545 0.6553
Pr1A Pr 0.39198(16) -0.10653(9) -0.0319(2)
Pr1C Pr 0.60802(16) 0.10653(9) 0.0319(2)
Pr1C_2 Pr -0.39198(16) 0.10653(9) 0.0319(2)
Pr1B Pr -0.60802(16) 0.60653(9) 0.4681(2)
N1C N -0.127(2) 0.3702(16) 0.684(3)
O2A O -0.239(2) 0.5012(16) 0.419(3)
O3C O -0.6256(18) 0.3914(11) 0.645(2)
O5C O -0.357(2) 0.2890(14) 0.733(3)
O6B O -0.559(3) 0.4709(16) 0.324(3)
H6B H -0.5937 0.4537 0.2213
H7B H -0.4806 0.4455 0.3447
loop_
_geom_bond_atom_site_label_1
_geom_bond_atom_site_label_2
_geom_bond_site_symmetry_1
_geom_bond_site_symmetry_2
Pr1 O1 1_555 1_555
C1 C2 1_555 1_555
C2 C3 1_555 1_555
C3 H1 1_555 1_555
C4 C3 1_555 1_555
H2 C4 1_555 1_555
C5 C4 1_555 1_555
C6 C5 1_555 1_555
H3 C6 1_555 1_555
C7 C5 1_555 1_555
N1 C2 1_555 1_555
O1 H4 1_555 1_555
H5 O1 1_555 1_555
O2 C7 1_555 1_555
O3 C7 1_555 1_555
O4 Pr1 1_555 1_555
O5 C1 1_555 1_555
O6 Pr1 1_555 1_555
H6 O6 1_555 1_555
H7 O6 1_555 1_555
Pr1A O2 1_555 1_555
Pr1C O3 1_555 1_555
Pr1C_2 N1 1_555 1_555
Pr1B O6 1_555 1_555
N1C Pr1 1_555 1_555
O2A Pr1 1_555 1_555
O3C Pr1 1_555 1_555
O5C Pr1 1_555 1_555
O6B Pr1 1_555 1_555
H6B O6B 1_555 1_555
H7B O6B 1_555 1_555
C1 O4 1_555 1_555
C6 N1 1_555 1_555
O5 Pr1C_2 1_555 1_555
Pr1B O6B 1_555 1_555

#END
