
#######################################################################
#
#                 Cambridge Crystallographic Data Centre
#                                CCDC 
#
#######################################################################
#
# If this CIF has been generated from an entry in the Cambridge 
# Structural Database, then it will include bibliographic, chemical, 
# crystal, experimental, refinement or atomic coordinate data resulting 
# from the CCDC's data processing and validation procedures.
#
#######################################################################

data_OXOLIX
_symmetry_cell_setting           cubic
_symmetry_space_group_name_H-M   'F d -3 m'
_symmetry_Int_Tables_number      227
_space_group_name_Hall           '-F 4vw 2vw 3'
loop_
_symmetry_equiv_pos_site_id
_symmetry_equiv_pos_as_xyz
1 x,y,z
2 x,1/4-y,1/4-z
3 3/4-x,1/4-y,1/2+z
4 3/4-x,y,3/4-z
5 -y,1/4+x,1/4+z
6 3/4+y,1/4+x,1/2-z
7 3/4+y,-x,3/4+z
8 -y,-x,-z
9 y,z,x
10 3/4-y,1/4-z,1/2+x
11 y,1/4-z,1/4-x
12 3/4-y,z,3/4-x
13 -z,1/4+y,1/4+x
14 -z,-y,-x
15 3/4+z,-y,3/4+x
16 3/4+z,1/4+y,1/2-x
17 z,x,y
18 1/4-z,1/2+x,3/4-y
19 1/4-z,1/4-x,y
20 z,3/4-x,3/4-y
21 -x,-z,-y
22 -x,3/4+z,3/4+y
23 1/4+x,1/2-z,3/4+y
24 3/4+x,1/4+z,1/2-y
25 x,1/2+y,1/2+z
26 x,3/4-y,3/4-z
27 3/4-x,3/4-y,z
28 3/4-x,1/2+y,1/4-z
29 -y,3/4+x,3/4+z
30 3/4+y,3/4+x,-z
31 3/4+y,1/2-x,1/4+z
32 -y,1/2-x,1/2-z
33 y,1/2+z,1/2+x
34 3/4-y,3/4-z,x
35 y,3/4-z,3/4-x
36 3/4-y,1/2+z,1/4-x
37 -z,3/4+y,3/4+x
38 -z,1/2-y,1/2-x
39 3/4+z,1/2-y,1/4+x
40 3/4+z,3/4+y,-x
41 z,1/2+x,1/2+y
42 1/4-z,x,1/4-y
43 1/4-z,3/4-x,1/2+y
44 z,1/4-x,1/4-y
45 -x,1/2-z,1/2-y
46 -x,1/4+z,1/4+y
47 1/4+x,-z,1/4+y
48 3/4+x,3/4+z,-y
49 1/2+x,y,1/2+z
50 1/2+x,1/4-y,3/4-z
51 1/4-x,1/4-y,z
52 1/4-x,y,1/4-z
53 1/2-y,1/4+x,3/4+z
54 1/4+y,1/4+x,-z
55 1/4+y,-x,1/4+z
56 1/2-y,-x,1/2-z
57 1/2+y,z,1/2+x
58 1/4-y,1/4-z,x
59 1/2+y,1/4-z,3/4-x
60 1/4-y,z,1/4-x
61 1/2-z,1/4+y,3/4+x
62 1/2-z,-y,1/2-x
63 1/4+z,-y,1/4+x
64 1/4+z,1/4+y,-x
65 1/2+z,x,1/2+y
66 3/4-z,1/2+x,1/4-y
67 3/4-z,1/4-x,1/2+y
68 1/2+z,3/4-x,1/4-y
69 1/2-x,-z,1/2-y
70 1/2-x,3/4+z,1/4+y
71 3/4+x,1/2-z,1/4+y
72 1/4+x,1/4+z,-y
73 1/2+x,1/2+y,z
74 1/2+x,3/4-y,1/4-z
75 1/4-x,3/4-y,1/2+z
76 1/4-x,1/2+y,3/4-z
77 1/2-y,3/4+x,1/4+z
78 1/4+y,3/4+x,1/2-z
79 1/4+y,1/2-x,3/4+z
80 1/2-y,1/2-x,-z
81 1/2+y,1/2+z,x
82 1/4-y,3/4-z,1/2+x
83 1/2+y,3/4-z,1/4-x
84 1/4-y,1/2+z,3/4-x
85 1/2-z,3/4+y,1/4+x
86 1/2-z,1/2-y,-x
87 1/4+z,1/2-y,3/4+x
88 1/4+z,3/4+y,1/2-x
89 1/2+z,1/2+x,y
90 3/4-z,x,3/4-y
91 3/4-z,3/4-x,y
92 1/2+z,1/4-x,3/4-y
93 1/2-x,1/2-z,-y
94 1/2-x,1/4+z,3/4+y
95 3/4+x,-z,3/4+y
96 1/4+x,3/4+z,1/2-y
97 -x,-y,-z
98 -x,3/4+y,3/4+z
99 1/4+x,3/4+y,1/2-z
100 1/4+x,-y,1/4+z
101 y,3/4-x,3/4-z
102 1/4-y,3/4-x,1/2+z
103 1/4-y,x,1/4-z
104 y,x,z
105 -y,-z,-x
106 1/4+y,3/4+z,1/2-x
107 -y,3/4+z,3/4+x
108 1/4+y,-z,1/4+x
109 z,3/4-y,3/4-x
110 z,y,x
111 1/4-z,y,1/4-x
112 1/4-z,3/4-y,1/2+x
113 -z,-x,-y
114 3/4+z,1/2-x,1/4+y
115 3/4+z,3/4+x,-y
116 -z,1/4+x,1/4+y
117 x,z,y
118 x,1/4-z,1/4-y
119 3/4-x,1/2+z,1/4-y
120 1/4-x,3/4-z,1/2+y
121 -x,1/2-y,1/2-z
122 -x,1/4+y,1/4+z
123 1/4+x,1/4+y,-z
124 1/4+x,1/2-y,3/4+z
125 y,1/4-x,1/4-z
126 1/4-y,1/4-x,z
127 1/4-y,1/2+x,3/4-z
128 y,1/2+x,1/2+z
129 -y,1/2-z,1/2-x
130 1/4+y,1/4+z,-x
131 -y,1/4+z,1/4+x
132 1/4+y,1/2-z,3/4+x
133 z,1/4-y,1/4-x
134 z,1/2+y,1/2+x
135 1/4-z,1/2+y,3/4-x
136 1/4-z,1/4-y,x
137 -z,1/2-x,1/2-y
138 3/4+z,-x,3/4+y
139 3/4+z,1/4+x,1/2-y
140 -z,3/4+x,3/4+y
141 x,1/2+z,1/2+y
142 x,3/4-z,3/4-y
143 3/4-x,z,3/4-y
144 1/4-x,1/4-z,y
145 1/2-x,-y,1/2-z
146 1/2-x,3/4+y,1/4+z
147 3/4+x,3/4+y,-z
148 3/4+x,-y,3/4+z
149 1/2+y,3/4-x,1/4-z
150 3/4-y,3/4-x,z
151 3/4-y,x,3/4-z
152 1/2+y,x,1/2+z
153 1/2-y,-z,1/2-x
154 3/4+y,3/4+z,-x
155 1/2-y,3/4+z,1/4+x
156 3/4+y,-z,3/4+x
157 1/2+z,3/4-y,1/4-x
158 1/2+z,y,1/2+x
159 3/4-z,y,3/4-x
160 3/4-z,3/4-y,x
161 1/2-z,-x,1/2-y
162 1/4+z,1/2-x,3/4+y
163 1/4+z,3/4+x,1/2-y
164 1/2-z,1/4+x,3/4+y
165 1/2+x,z,1/2+y
166 1/2+x,1/4-z,3/4-y
167 1/4-x,1/2+z,3/4-y
168 3/4-x,3/4-z,y
169 1/2-x,1/2-y,-z
170 1/2-x,1/4+y,3/4+z
171 3/4+x,1/4+y,1/2-z
172 3/4+x,1/2-y,1/4+z
173 1/2+y,1/4-x,3/4-z
174 3/4-y,1/4-x,1/2+z
175 3/4-y,1/2+x,1/4-z
176 1/2+y,1/2+x,z
177 1/2-y,1/2-z,-x
178 3/4+y,1/4+z,1/2-x
179 1/2-y,1/4+z,3/4+x
180 3/4+y,1/2-z,1/4+x
181 1/2+z,1/4-y,3/4-x
182 1/2+z,1/2+y,x
183 3/4-z,1/2+y,1/4-x
184 3/4-z,1/4-y,1/2+x
185 1/2-z,1/2-x,-y
186 1/4+z,-x,1/4+y
187 1/4+z,1/4+x,-y
188 1/2-z,3/4+x,1/4+y
189 1/2+x,1/2+z,y
190 1/2+x,3/4-z,1/4-y
191 1/4-x,z,1/4-y
192 3/4-x,1/4-z,1/2+y
_cell_length_a                   39.8015(8)
_cell_length_b                   39.8015(8)
_cell_length_c                   39.8015(8)
_cell_angle_alpha                90
_cell_angle_beta                 90
_cell_angle_gamma                90
_cell_volume                     63051.9
loop_
_atom_site_label
_atom_site_type_symbol
_atom_site_fract_x
_atom_site_fract_y
_atom_site_fract_z
Zr1 Zr 0.187187(18) 0.1250 0.1250
O1 O 0.1541(2) 0.1541(2) 0.0959(2)
O2 O 0.21411(9) 0.07618(9) 0.12543(9)
O3 O 0.1572(2) 0.0928(2) 0.0928(2)
C1 C 0.20399(13) 0.04601(13) 0.12764(19)
C2 C 0.23027(14) 0.01973(14) 0.1336(2)
C3 C 0.26354(16) 0.02899(16) 0.1362(2)
H1 H 0.2698 0.0519 0.1338
C4 C 0.35022(16) -0.10022(16) 0.1585(3)
C5 C 0.38399(19) -0.09142(19) 0.1593(2)
C6 C 0.27886(16) -0.02886(16) 0.1457(3)
C7 C 0.28780(17) 0.00464(18) 0.1424(2)
H2 H 0.3107 0.0110 0.1443
C8 C 0.30404(17) -0.05404(17) 0.1505(3)
C9 C 0.32499(16) -0.07499(16) 0.1552(3)
O4 O 0.3921(3) -0.0582(3) 0.1601(4)
Zr1R Zr 0.1250 0.062813(18) 0.1250
Zr1MB Zr 0.6250 -0.312813(18) 0.1250
Zr1Z Zr 0.562813(18) -0.3750 0.1250
Zr1P Zr 0.1250 0.187187(18) 0.1250
Zr1OB Zr 0.6250 0.562813(18) 0.1250
Zr1J Zr 0.1250 0.1250 0.062813(18)
Zr1H Zr 0.1250 0.1250 0.187187(18)
Zr1Z_2 Zr 0.562813(18) 0.6250 0.1250
Zr1I Zr 0.6250 0.1250 -0.312813(18)
Zr1B Zr 0.562813(18) 0.1250 -0.3750
Zr1K Zr 0.6250 0.1250 0.562813(18)
Zr1B_2 Zr 0.562813(18) 0.1250 0.6250
Zr1XA Zr 0.062813(18) 0.1250 0.1250
Zr1TB Zr -0.312813(18) -0.3750 0.1250
Zr1MB_2 Zr -0.3750 -0.312813(18) 0.1250
Zr1FA Zr 0.1250 -0.3750 -0.312813(18)
Zr1Q Zr 0.1250 -0.312813(18) -0.3750
Zr1TB_2 Zr 0.687187(18) -0.3750 0.1250
Zr1IA Zr 0.6250 -0.3750 0.062813(18)
O1A O 0.1541(2) 0.0959(2) 0.1541(2)
O1QA O 0.0959(2) 0.0959(2) 0.0959(2)
O1MB O 0.6541(2) -0.3459(2) 0.0959(2)
O1AA O 0.5959(2) -0.3459(2) 0.1541(2)
O1Z O 0.5959(2) -0.4041(2) 0.0959(2)
O1P O 0.0959(2) 0.1541(2) 0.1541(2)
O1UB O 0.6541(2) 0.5959(2) 0.1541(2)
O1Z_2 O 0.5959(2) 0.5959(2) 0.0959(2)
O2UD O 0.17382(9) 0.03589(9) 0.12543(9)
O2SF O 0.57618(9) -0.28589(9) 0.12543(9)
O2Z O 0.53589(9) -0.32618(9) 0.12543(9)
O2A O 0.21411(9) 0.17382(9) 0.12457(9)
O2XC O 0.17382(9) 0.21411(9) 0.12457(9)
O2RE O 0.57618(9) 0.53589(9) 0.12457(9)
O2AA O 0.53589(9) 0.57618(9) 0.12457(9)
O2LD O 0.21411(9) 0.12543(9) 0.07618(9)
O2GB O 0.17382(9) 0.12543(9) 0.03589(9)
O2DB O 0.57618(9) 0.12543(9) -0.28589(9)
O2LE O 0.53589(9) 0.12543(9) -0.32618(9)
O2MD O 0.21411(9) 0.12457(9) 0.17382(9)
O2EB O 0.17382(9) 0.12457(9) 0.21411(9)
O2FB O 0.57618(9) 0.12457(9) 0.53589(9)
O2IG O 0.53589(9) 0.12457(9) 0.57618(9)
O2TD O 0.07618(9) 0.03589(9) 0.12457(9)
O2YA O 0.03589(9) 0.07618(9) 0.12457(9)
O2UB O -0.28589(9) -0.32618(9) 0.12457(9)
O2RF O -0.32618(9) -0.28589(9) 0.12457(9)
O2R O 0.12457(9) 0.03589(9) 0.07618(9)
O2FD O 0.12457(9) 0.07618(9) 0.03589(9)
O2GD O 0.12457(9) -0.32618(9) -0.28589(9)
O2Q O 0.12457(9) -0.28589(9) -0.32618(9)
O2QA O 0.12543(9) 0.03589(9) 0.17382(9)
O2RF_2 O 0.67382(9) -0.28589(9) 0.12457(9)
O2JC O 0.62543(9) -0.28589(9) 0.07618(9)
O2MB O 0.62457(9) -0.28589(9) 0.17382(9)
O2AA_2 O 0.53589(9) -0.42382(9) 0.12457(9)
O2KF O 0.53589(9) -0.37543(9) 0.07618(9)
O2ND O 0.53589(9) -0.37457(9) 0.17382(9)
O2YC O 0.07618(9) 0.21411(9) 0.12543(9)
O2OA O 0.12457(9) 0.21411(9) 0.17382(9)
O2P O 0.12543(9) 0.21411(9) 0.07618(9)
O2SE O 0.67382(9) 0.53589(9) 0.12543(9)
O2OB O 0.62543(9) 0.53589(9) 0.17382(9)
O2LC O 0.62457(9) 0.53589(9) 0.07618(9)
O3A O 0.1572(2) 0.1572(2) 0.1572(2)
O3H O 0.0928(2) 0.0928(2) 0.1572(2)
O3Z O 0.5928(2) -0.3428(2) 0.0928(2)
O3GA O 0.6572(2) -0.3428(2) 0.1572(2)
O3AA O 0.5928(2) -0.4072(2) 0.1572(2)
O3J O 0.0928(2) 0.1572(2) 0.0928(2)
O3AA_2 O 0.5928(2) 0.5928(2) 0.1572(2)
O3IA O 0.6572(2) 0.5928(2) 0.0928(2)
C1Z C 0.54601(13) -0.29601(13) 0.12764(19)
C1A C 0.20399(13) 0.20399(13) 0.12236(19)
C1AA C 0.54601(13) 0.54601(13) 0.12236(19)
C1GB C 0.20399(13) 0.12764(19) 0.04601(13)
C1DB C 0.54601(13) 0.12764(19) -0.29601(13)
C1EB C 0.20399(13) 0.12236(19) 0.20399(13)
C1FB C 0.54601(13) 0.12236(19) 0.54601(13)
C1YA C 0.04601(13) 0.04601(13) 0.12236(19)
C1UB C -0.29601(13) -0.29601(13) 0.12236(19)
C1R C 0.12236(19) 0.04601(13) 0.04601(13)
C1Q C 0.12236(19) -0.29601(13) -0.29601(13)
C2Z C 0.51973(14) -0.26973(14) 0.1336(2)
C2A C 0.23027(14) 0.23027(14) 0.1164(2)
C2AA C 0.51973(14) 0.51973(14) 0.1164(2)
C2GB C 0.23027(14) 0.1336(2) 0.01973(14)
C2DB C 0.51973(14) 0.1336(2) -0.26973(14)
C2EB C 0.23027(14) 0.1164(2) 0.23027(14)
C2FB C 0.51973(14) 0.1164(2) 0.51973(14)
C2YA C 0.01973(14) 0.01973(14) 0.1164(2)
C2UB C -0.26973(14) -0.26973(14) 0.1164(2)
C2R C 0.1164(2) 0.01973(14) 0.01973(14)
C2Q C 0.1164(2) -0.26973(14) -0.26973(14)
C3UD C 0.22101(16) -0.01354(16) 0.1362(2)
C3SF C 0.52899(16) -0.23646(16) 0.1362(2)
C3Z C 0.48646(16) -0.27899(16) 0.1362(2)
C3A C 0.26354(16) 0.22101(16) 0.1138(2)
C3XC C 0.22101(16) 0.26354(16) 0.1138(2)
C3RE C 0.52899(16) 0.48646(16) 0.1138(2)
C3AA C 0.48646(16) 0.52899(16) 0.1138(2)
C3LD C 0.26354(16) 0.1362(2) 0.02899(16)
C3GB C 0.22101(16) 0.1362(2) -0.01354(16)
C3DB C 0.52899(16) 0.1362(2) -0.23646(16)
C3LE C 0.48646(16) 0.1362(2) -0.27899(16)
C3MD C 0.26354(16) 0.1138(2) 0.22101(16)
C3EB C 0.22101(16) 0.1138(2) 0.26354(16)
C3FB C 0.52899(16) 0.1138(2) 0.48646(16)
C3IG C 0.48646(16) 0.1138(2) 0.52899(16)
C3TD C 0.02899(16) -0.01354(16) 0.1138(2)
C3YA C -0.01354(16) 0.02899(16) 0.1138(2)
C3UB C -0.23646(16) -0.27899(16) 0.1138(2)
C3RF C -0.27899(16) -0.23646(16) 0.1138(2)
C3R C 0.1138(2) -0.01354(16) 0.02899(16)
C3FD C 0.1138(2) 0.02899(16) -0.01354(16)
C3GD C 0.1138(2) -0.27899(16) -0.23646(16)
C3Q C 0.1138(2) -0.23646(16) -0.27899(16)
H1Z H 0.4802 -0.3019 0.1338
H1SF H 0.5519 -0.2302 0.1338
H1UD H 0.1981 -0.0198 0.1338
H1A H 0.2698 0.1981 0.1162
H1AA H 0.4802 0.5519 0.1162
H1RE H 0.5519 0.4802 0.1162
H1XC H 0.1981 0.2698 0.1162
H1LD H 0.2698 0.1338 0.0519
H1LE H 0.4802 0.1338 -0.3019
H1DB H 0.5519 0.1338 -0.2302
H1GB H 0.1981 0.1338 -0.0198
H1MD H 0.2698 0.1162 0.1981
H1IG H 0.4802 0.1162 0.5519
H1FB H 0.5519 0.1162 0.4802
H1EB H 0.1981 0.1162 0.2698
H1TD H 0.0519 -0.0198 0.1162
H1RF H -0.3019 -0.2302 0.1162
H1UB H -0.2302 -0.3019 0.1162
H1YA H -0.0198 0.0519 0.1162
H1R H 0.1162 -0.0198 0.0519
H1Q H 0.1162 -0.2302 -0.3019
H1GD H 0.1162 -0.3019 -0.2302
H1FD H 0.1162 0.0519 -0.0198
C4Z C 0.39978(16) -0.14978(16) 0.1585(3)
C4A C 0.35022(16) 0.35022(16) 0.0915(3)
C4AA C 0.39978(16) 0.39978(16) 0.0915(3)
C4GB C 0.35022(16) 0.1585(3) -0.10022(16)
C4DB C 0.39978(16) 0.1585(3) -0.14978(16)
C4EB C 0.35022(16) 0.0915(3) 0.35022(16)
C4FB C 0.39978(16) 0.0915(3) 0.39978(16)
C4YA C -0.10022(16) -0.10022(16) 0.0915(3)
C4UB C -0.14978(16) -0.14978(16) 0.0915(3)
C4R C 0.0915(3) -0.10022(16) -0.10022(16)
C4Q C 0.0915(3) -0.14978(16) -0.14978(16)
C5SF C 0.40858(19) -0.11601(19) 0.1593(2)
C5Z C 0.36601(19) -0.15858(19) 0.1593(2)
C5UD C 0.34142(19) -0.13399(19) 0.1593(2)
C5A C 0.38399(19) 0.34142(19) 0.0907(2)
C5RE C 0.40858(19) 0.36601(19) 0.0907(2)
C5AA C 0.36601(19) 0.40858(19) 0.0907(2)
C5XC C 0.34142(19) 0.38399(19) 0.0907(2)
C5LD C 0.38399(19) 0.1593(2) -0.09142(19)
C5DB C 0.40858(19) 0.1593(2) -0.11601(19)
C5LE C 0.36601(19) 0.1593(2) -0.15858(19)
C5GB C 0.34142(19) 0.1593(2) -0.13399(19)
C5MD C 0.38399(19) 0.0907(2) 0.34142(19)
C5FB C 0.40858(19) 0.0907(2) 0.36601(19)
C5IG C 0.36601(19) 0.0907(2) 0.40858(19)
C5EB C 0.34142(19) 0.0907(2) 0.38399(19)
C5TD C -0.09142(19) -0.13399(19) 0.0907(2)
C5UB C -0.11601(19) -0.15858(19) 0.0907(2)
C5RF C -0.15858(19) -0.11601(19) 0.0907(2)
C5YA C -0.13399(19) -0.09142(19) 0.0907(2)
C5R C 0.0907(2) -0.13399(19) -0.09142(19)
C5GD C 0.0907(2) -0.15858(19) -0.11601(19)
C5Q C 0.0907(2) -0.11601(19) -0.15858(19)
C5FD C 0.0907(2) -0.09142(19) -0.13399(19)
C6Z C 0.47114(16) -0.22114(16) 0.1457(3)
C6A C 0.27886(16) 0.27886(16) 0.1043(3)
C6AA C 0.47114(16) 0.47114(16) 0.1043(3)
C6GB C 0.27886(16) 0.1457(3) -0.02886(16)
C6DB C 0.47114(16) 0.1457(3) -0.22114(16)
C6EB C 0.27886(16) 0.1043(3) 0.27886(16)
C6FB C 0.47114(16) 0.1043(3) 0.47114(16)
C6YA C -0.02886(16) -0.02886(16) 0.1043(3)
C6UB C -0.22114(16) -0.22114(16) 0.1043(3)
C6R C 0.1043(3) -0.02886(16) -0.02886(16)
C6Q C 0.1043(3) -0.22114(16) -0.22114(16)
C7UD C 0.24536(18) -0.03780(17) 0.1424(2)
C7SF C 0.50464(18) -0.21220(17) 0.1424(2)
C7Z C 0.46220(17) -0.25464(18) 0.1424(2)
C7A C 0.28780(17) 0.24536(18) 0.1076(2)
C7XC C 0.24536(18) 0.28780(17) 0.1076(2)
C7RE C 0.50464(18) 0.46220(17) 0.1076(2)
C7AA C 0.46220(17) 0.50464(18) 0.1076(2)
C7LD C 0.28780(17) 0.1424(2) 0.00464(18)
C7GB C 0.24536(18) 0.1424(2) -0.03780(17)
C7DB C 0.50464(18) 0.1424(2) -0.21220(17)
C7LE C 0.46220(17) 0.1424(2) -0.25464(18)
C7MD C 0.28780(17) 0.1076(2) 0.24536(18)
C7EB C 0.24536(18) 0.1076(2) 0.28780(17)
C7FB C 0.50464(18) 0.1076(2) 0.46220(17)
C7IG C 0.46220(17) 0.1076(2) 0.50464(18)
C7TD C 0.00464(18) -0.03780(17) 0.1076(2)
C7YA C -0.03780(17) 0.00464(18) 0.1076(2)
C7UB C -0.21220(17) -0.25464(18) 0.1076(2)
C7RF C -0.25464(18) -0.21220(17) 0.1076(2)
C7R C 0.1076(2) -0.03780(17) 0.00464(18)
C7FD C 0.1076(2) 0.00464(18) -0.03780(17)
C7GD C 0.1076(2) -0.25464(18) -0.21220(17)
C7Q C 0.1076(2) -0.21220(17) -0.25464(18)
H2UD H 0.2390 -0.0607 0.1443
H2SF H 0.5110 -0.1893 0.1443
H2Z H 0.4393 -0.2610 0.1443
H2A H 0.3107 0.2390 0.1057
H2XC H 0.2390 0.3107 0.1057
H2RE H 0.5110 0.4393 0.1057
H2AA H 0.4393 0.5110 0.1057
H2LD H 0.3107 0.1443 0.0110
H2GB H 0.2390 0.1443 -0.0607
H2DB H 0.5110 0.1443 -0.1893
H2LE H 0.4393 0.1443 -0.2610
H2MD H 0.3107 0.1057 0.2390
H2EB H 0.2390 0.1057 0.3107
H2FB H 0.5110 0.1057 0.4393
H2IG H 0.4393 0.1057 0.5110
H2TD H 0.0110 -0.0607 0.1057
H2YA H -0.0607 0.0110 0.1057
H2UB H -0.1893 -0.2610 0.1057
H2RF H -0.2610 -0.1893 0.1057
H2R H 0.1057 -0.0607 0.0110
H2FD H 0.1057 0.0110 -0.0607
H2GD H 0.1057 -0.2610 -0.1893
H2Q H 0.1057 -0.1893 -0.2610
C8Z C 0.44596(17) -0.19596(17) 0.1505(3)
C8A C 0.30404(17) 0.30404(17) 0.0995(3)
C8AA C 0.44596(17) 0.44596(17) 0.0995(3)
C8GB C 0.30404(17) 0.1505(3) -0.05404(17)
C8DB C 0.44596(17) 0.1505(3) -0.19596(17)
C8EB C 0.30404(17) 0.0995(3) 0.30404(17)
C8FB C 0.44596(17) 0.0995(3) 0.44596(17)
C8YA C -0.05404(17) -0.05404(17) 0.0995(3)
C8UB C -0.19596(17) -0.19596(17) 0.0995(3)
C8R C 0.0995(3) -0.05404(17) -0.05404(17)
C8Q C 0.0995(3) -0.19596(17) -0.19596(17)
C9Z C 0.42501(16) -0.17501(16) 0.1552(3)
C9A C 0.32499(16) 0.32499(16) 0.0948(3)
C9AA C 0.42501(16) 0.42501(16) 0.0948(3)
C9GB C 0.32499(16) 0.1552(3) -0.07499(16)
C9DB C 0.42501(16) 0.1552(3) -0.17501(16)
C9EB C 0.32499(16) 0.0948(3) 0.32499(16)
C9FB C 0.42501(16) 0.0948(3) 0.42501(16)
C9YA C -0.07499(16) -0.07499(16) 0.0948(3)
C9UB C -0.17501(16) -0.17501(16) 0.0948(3)
C9R C 0.0948(3) -0.07499(16) -0.07499(16)
C9Q C 0.0948(3) -0.17501(16) -0.17501(16)
O4UD O 0.3082(3) -0.1421(3) 0.1601(4)
O4Z O 0.3579(3) -0.1918(3) 0.1601(4)
O4SF O 0.4418(3) -0.1079(3) 0.1601(4)
O4A O 0.3921(3) 0.3082(3) 0.0899(4)
O4XC O 0.3082(3) 0.3921(3) 0.0899(4)
O4AA O 0.3579(3) 0.4418(3) 0.0899(4)
O4RE O 0.4418(3) 0.3579(3) 0.0899(4)
O4LD O 0.3921(3) 0.1601(4) -0.0582(3)
O4GB O 0.3082(3) 0.1601(4) -0.1421(3)
O4LE O 0.3579(3) 0.1601(4) -0.1918(3)
O4DB O 0.4418(3) 0.1601(4) -0.1079(3)
O4MD O 0.3921(3) 0.0899(4) 0.3082(3)
O4EB O 0.3082(3) 0.0899(4) 0.3921(3)
O4IG O 0.3579(3) 0.0899(4) 0.4418(3)
O4FB O 0.4418(3) 0.0899(4) 0.3579(3)
O4TD O -0.0582(3) -0.1421(3) 0.0899(4)
O4YA O -0.1421(3) -0.0582(3) 0.0899(4)
O4RF O -0.1918(3) -0.1079(3) 0.0899(4)
O4UB O -0.1079(3) -0.1918(3) 0.0899(4)
O4R O 0.0899(4) -0.1421(3) -0.0582(3)
O4FD O 0.0899(4) -0.0582(3) -0.1421(3)
O4Q O 0.0899(4) -0.1079(3) -0.1918(3)
O4GD O 0.0899(4) -0.1918(3) -0.1079(3)
loop_
_geom_bond_atom_site_label_1
_geom_bond_atom_site_label_2
_geom_bond_site_symmetry_1
_geom_bond_site_symmetry_2
Zr1 O1 1_555 1_555
O1 Zr1P 1_555 1_555
O2 Zr1 1_555 1_555
O3 Zr1 1_555 1_555
C1 O2 1_555 1_555
C2 C1 1_555 1_555
C3 C2 1_555 1_555
H1 C3 1_555 1_555
C4 C5 1_555 1_555
C5 O4 1_555 1_555
C6 C7 1_555 1_555
C7 C3 1_555 1_555
H2 C7 1_555 1_555
C8 C6 1_555 1_555
C9 C4 1_555 1_555
Zr1R O3 1_555 1_555
Zr1MB O1MB 1_555 1_555
Zr1Z O1AA 1_555 1_555
Zr1P O1P 1_555 1_555
Zr1OB O1UB 1_555 1_555
Zr1J O1 1_555 1_555
Zr1H O1A 1_555 1_555
Zr1Z_2 O1Z_2 1_555 1_555
Zr1I O2DB 1_555 1_555
Zr1B O2LE 1_555 1_555
Zr1K O2FB 1_555 1_555
Zr1B_2 O2IG 1_555 1_555
Zr1XA O1QA 1_555 1_555
Zr1TB O2UB 1_555 1_555
Zr1MB_2 O2RF 1_555 1_555
Zr1FA O2GD 1_555 1_555
Zr1Q O2Q 1_555 1_555
Zr1TB_2 O1MB 1_555 1_555
Zr1IA O1MB 1_555 1_555
O1A Zr1 1_555 1_555
O1QA Zr1R 1_555 1_555
O1AA Zr1MB 1_555 1_555
O1Z Zr1Z 1_555 1_555
O1P Zr1H 1_555 1_555
O1Z_2 Zr1OB 1_555 1_555
O2UD C1 1_555 1_555
O2SF Zr1MB 1_555 1_555
O2Z Zr1Z 1_555 1_555
O2A Zr1 1_555 1_555
O2XC Zr1P 1_555 1_555
O2RE Zr1OB 1_555 1_555
O2AA Zr1Z_2 1_555 1_555
O2LD Zr1 1_555 1_555
O2GB Zr1J 1_555 1_555
O2DB C1DB 1_555 1_555
O2LE C1DB 1_555 1_555
O2MD Zr1 1_555 1_555
O2EB Zr1H 1_555 1_555
O2FB C1FB 1_555 1_555
O2IG C1FB 1_555 1_555
O2TD Zr1R 1_555 1_555
O2YA Zr1XA 1_555 1_555
O2UB C1UB 1_555 1_555
O2RF C1UB 1_555 1_555
O2R Zr1R 1_555 1_555
O2FD Zr1J 1_555 1_555
O2GD C1Q 1_555 1_555
O2Q C1Q 1_555 1_555
O2QA Zr1R 1_555 1_555
O2RF_2 Zr1MB 1_555 1_555
O2JC Zr1MB 1_555 1_555
O2MB Zr1MB 1_555 1_555
O2AA_2 Zr1Z 1_555 1_555
O2KF Zr1Z 1_555 1_555
O2ND Zr1Z 1_555 1_555
O2YC Zr1P 1_555 1_555
O2OA Zr1P 1_555 1_555
O2P Zr1P 1_555 1_555
O2SE Zr1OB 1_555 1_555
O2OB Zr1OB 1_555 1_555
O2LC Zr1OB 1_555 1_555
O3A Zr1 1_555 1_555
O3H Zr1R 1_555 1_555
O3Z Zr1MB 1_555 1_555
O3GA Zr1MB 1_555 1_555
O3AA Zr1Z 1_555 1_555
O3J Zr1P 1_555 1_555
O3AA_2 Zr1OB 1_555 1_555
O3IA Zr1OB 1_555 1_555
C1Z O2SF 1_555 1_555
C1A O2A 1_555 1_555
C1AA O2RE 1_555 1_555
C1GB O2LD 1_555 1_555
C1DB C2DB 1_555 1_555
C1EB O2MD 1_555 1_555
C1FB C2FB 1_555 1_555
C1YA O2TD 1_555 1_555
C1UB C2UB 1_555 1_555
C1R O2R 1_555 1_555
C1Q C2Q 1_555 1_555
C2Z C1Z 1_555 1_555
C2A C1A 1_555 1_555
C2AA C1AA 1_555 1_555
C2GB C1GB 1_555 1_555
C2DB C3DB 1_555 1_555
C2EB C1EB 1_555 1_555
C2FB C3FB 1_555 1_555
C2YA C1YA 1_555 1_555
C2UB C3UB 1_555 1_555
C2R C1R 1_555 1_555
C2Q C3GD 1_555 1_555
C3UD C2 1_555 1_555
C3SF C2Z 1_555 1_555
C3Z C2Z 1_555 1_555
C3A C2A 1_555 1_555
C3XC C2A 1_555 1_555
C3RE C2AA 1_555 1_555
C3AA C2AA 1_555 1_555
C3LD C2GB 1_555 1_555
C3GB C2GB 1_555 1_555
C3DB H1DB 1_555 1_555
C3LE C2DB 1_555 1_555
C3MD C2EB 1_555 1_555
C3EB C2EB 1_555 1_555
C3FB H1FB 1_555 1_555
C3IG C2FB 1_555 1_555
C3TD C2YA 1_555 1_555
C3YA C2YA 1_555 1_555
C3UB H1UB 1_555 1_555
C3RF C2UB 1_555 1_555
C3R C2R 1_555 1_555
C3FD C2R 1_555 1_555
C3GD H1GD 1_555 1_555
C3Q C2Q 1_555 1_555
H1Z C3Z 1_555 1_555
H1SF C3SF 1_555 1_555
H1UD C3UD 1_555 1_555
H1A C3A 1_555 1_555
H1AA C3AA 1_555 1_555
H1RE C3RE 1_555 1_555
H1XC C3XC 1_555 1_555
H1LD C3LD 1_555 1_555
H1LE C3LE 1_555 1_555
H1GB C3GB 1_555 1_555
H1MD C3MD 1_555 1_555
H1IG C3IG 1_555 1_555
H1EB C3EB 1_555 1_555
H1TD C3TD 1_555 1_555
H1RF C3RF 1_555 1_555
H1YA C3YA 1_555 1_555
H1R C3R 1_555 1_555
H1Q C3Q 1_555 1_555
H1FD C3FD 1_555 1_555
C4Z C5SF 1_555 1_555
C4A C5A 1_555 1_555
C4AA C5RE 1_555 1_555
C4GB C5LD 1_555 1_555
C4DB C5DB 1_555 1_555
C4EB C5MD 1_555 1_555
C4FB C5FB 1_555 1_555
C4YA C5TD 1_555 1_555
C4UB C5UB 1_555 1_555
C4R C5R 1_555 1_555
C4Q C5GD 1_555 1_555
C5SF C5 1_555 1_555
C5Z C4Z 1_555 1_555
C5UD C4 1_555 1_555
C5A C5RE 1_555 1_555
C5RE O4RE 1_555 1_555
C5AA C4AA 1_555 1_555
C5XC C4A 1_555 1_555
C5LD C5DB 1_555 1_555
C5DB O4DB 1_555 1_555
C5LE C4DB 1_555 1_555
C5GB C4GB 1_555 1_555
C5MD C5FB 1_555 1_555
C5FB O4FB 1_555 1_555
C5IG C4FB 1_555 1_555
C5EB C4EB 1_555 1_555
C5TD C5UB 1_555 1_555
C5UB O4UB 1_555 1_555
C5RF C4UB 1_555 1_555
C5YA C4YA 1_555 1_555
C5R C5GD 1_555 1_555
C5GD O4GD 1_555 1_555
C5Q C4Q 1_555 1_555
C5FD C4R 1_555 1_555
C6Z C7SF 1_555 1_555
C6A C7A 1_555 1_555
C6AA C7RE 1_555 1_555
C6GB C7LD 1_555 1_555
C6DB C7DB 1_555 1_555
C6EB C7MD 1_555 1_555
C6FB C7FB 1_555 1_555
C6YA C7TD 1_555 1_555
C6UB C7UB 1_555 1_555
C6R C7R 1_555 1_555
C6Q C7GD 1_555 1_555
C7UD C6 1_555 1_555
C7SF C3SF 1_555 1_555
C7Z C3Z 1_555 1_555
C7A C3A 1_555 1_555
C7XC C3XC 1_555 1_555
C7RE C3RE 1_555 1_555
C7AA C3AA 1_555 1_555
C7LD C3LD 1_555 1_555
C7GB C3GB 1_555 1_555
C7DB C3DB 1_555 1_555
C7LE C3LE 1_555 1_555
C7MD C3MD 1_555 1_555
C7EB C3EB 1_555 1_555
C7FB C3FB 1_555 1_555
C7IG C3IG 1_555 1_555
C7TD C3TD 1_555 1_555
C7YA C3YA 1_555 1_555
C7UB C3UB 1_555 1_555
C7RF C3RF 1_555 1_555
C7R C3R 1_555 1_555
C7FD C3FD 1_555 1_555
C7GD C3GD 1_555 1_555
C7Q C3Q 1_555 1_555
H2UD C7UD 1_555 1_555
H2SF C7SF 1_555 1_555
H2Z C7Z 1_555 1_555
H2A C7A 1_555 1_555
H2XC C7XC 1_555 1_555
H2RE C7RE 1_555 1_555
H2AA C7AA 1_555 1_555
H2LD C7LD 1_555 1_555
H2GB C7GB 1_555 1_555
H2DB C7DB 1_555 1_555
H2LE C7LE 1_555 1_555
H2MD C7MD 1_555 1_555
H2EB C7EB 1_555 1_555
H2FB C7FB 1_555 1_555
H2IG C7IG 1_555 1_555
H2TD C7TD 1_555 1_555
H2YA C7YA 1_555 1_555
H2UB C7UB 1_555 1_555
H2RF C7RF 1_555 1_555
H2R C7R 1_555 1_555
H2FD C7FD 1_555 1_555
H2GD C7GD 1_555 1_555
H2Q C7Q 1_555 1_555
C8Z C6Z 1_555 1_555
C8A C6A 1_555 1_555
C8AA C6AA 1_555 1_555
C8GB C6GB 1_555 1_555
C8DB C6DB 1_555 1_555
C8EB C6EB 1_555 1_555
C8FB C6FB 1_555 1_555
C8YA C6YA 1_555 1_555
C8UB C6UB 1_555 1_555
C8R C6R 1_555 1_555
C8Q C6Q 1_555 1_555
C9Z C4Z 1_555 1_555
C9A C4A 1_555 1_555
C9AA C4AA 1_555 1_555
C9GB C4GB 1_555 1_555
C9DB C4DB 1_555 1_555
C9EB C4EB 1_555 1_555
C9FB C4FB 1_555 1_555
C9YA C4YA 1_555 1_555
C9UB C4UB 1_555 1_555
C9R C4R 1_555 1_555
C9Q C4Q 1_555 1_555
O4UD C5UD 1_555 1_555
O4Z C5Z 1_555 1_555
O4SF C5SF 1_555 1_555
O4A C5A 1_555 1_555
O4XC C5XC 1_555 1_555
O4AA C5AA 1_555 1_555
O4LD C5LD 1_555 1_555
O4GB C5GB 1_555 1_555
O4LE C5LE 1_555 1_555
O4MD C5MD 1_555 1_555
O4EB C5EB 1_555 1_555
O4IG C5IG 1_555 1_555
O4TD C5TD 1_555 1_555
O4YA C5YA 1_555 1_555
O4RF C5RF 1_555 1_555
O4R C5R 1_555 1_555
O4FD C5FD 1_555 1_555
O4Q C5Q 1_555 1_555
O3 Zr1J 1_555 1_555
C8 C9 1_555 1_555
Zr1R O1A 1_555 1_555
Zr1R O2UD 1_555 1_555
Zr1Z O3Z 1_555 1_555
Zr1P O3A 1_555 1_555
Zr1J O1QA 1_555 1_555
Zr1J O3J 1_555 1_555
Zr1H O3A 1_555 1_555
Zr1H O3H 1_555 1_555
Zr1Z_2 O3AA_2 1_555 1_555
Zr1XA O1P 1_555 1_555
Zr1XA O3H 1_555 1_555
Zr1XA O3J 1_555 1_555
Zr1TB_2 O3GA 1_555 1_555
Zr1IA O1Z 1_555 1_555
Zr1IA O3Z 1_555 1_555
O2Z C1Z 1_555 1_555
O2XC C1A 1_555 1_555
O2AA C1AA 1_555 1_555
O2GB C1GB 1_555 1_555
O2EB C1EB 1_555 1_555
O2YA C1YA 1_555 1_555
O2FD C1R 1_555 1_555
C3UD C7UD 1_555 1_555
C5Z C5UD 1_555 1_555
C5AA C5XC 1_555 1_555
C5LE C5GB 1_555 1_555
C5IG C5EB 1_555 1_555
C5RF C5YA 1_555 1_555
C5Q C5FD 1_555 1_555
C6Z C7Z 1_555 1_555
C6A C7XC 1_555 1_555
C6AA C7AA 1_555 1_555
C6GB C7GB 1_555 1_555
C6DB C7LE 1_555 1_555
C6EB C7EB 1_555 1_555
C6FB C7IG 1_555 1_555
C6YA C7YA 1_555 1_555
C6UB C7RF 1_555 1_555
C6R C7FD 1_555 1_555
C6Q C7Q 1_555 1_555
C8Z C9Z 1_555 1_555
C8A C9A 1_555 1_555
C8AA C9AA 1_555 1_555
C8GB C9GB 1_555 1_555
C8DB C9DB 1_555 1_555
C8EB C9EB 1_555 1_555
C8FB C9FB 1_555 1_555
C8YA C9YA 1_555 1_555
C8UB C9UB 1_555 1_555
C8R C9R 1_555 1_555
C8Q C9Q 1_555 1_555

#END
