
#######################################################################
#
#                 Cambridge Crystallographic Data Centre
#                                CCDC 
#
#######################################################################
#
# If this CIF has been generated from an entry in the Cambridge 
# Structural Database, then it will include bibliographic, chemical, 
# crystal, experimental, refinement or atomic coordinate data resulting 
# from the CCDC's data processing and validation procedures.
#
#######################################################################

data_OXOLET
_symmetry_cell_setting           cubic
_symmetry_space_group_name_H-M   'F d -3 m'
_symmetry_Int_Tables_number      227
_space_group_name_Hall           '-F 4vw 2vw 3'
loop_
_symmetry_equiv_pos_site_id
_symmetry_equiv_pos_as_xyz
1 x,y,z
2 x,1/4-y,1/4-z
3 3/4-x,1/4-y,1/2+z
4 3/4-x,y,3/4-z
5 -y,1/4+x,1/4+z
6 3/4+y,1/4+x,1/2-z
7 3/4+y,-x,3/4+z
8 -y,-x,-z
9 y,z,x
10 3/4-y,1/4-z,1/2+x
11 y,1/4-z,1/4-x
12 3/4-y,z,3/4-x
13 -z,1/4+y,1/4+x
14 -z,-y,-x
15 3/4+z,-y,3/4+x
16 3/4+z,1/4+y,1/2-x
17 z,x,y
18 1/4-z,1/2+x,3/4-y
19 1/4-z,1/4-x,y
20 z,3/4-x,3/4-y
21 -x,-z,-y
22 -x,3/4+z,3/4+y
23 1/4+x,1/2-z,3/4+y
24 3/4+x,1/4+z,1/2-y
25 x,1/2+y,1/2+z
26 x,3/4-y,3/4-z
27 3/4-x,3/4-y,z
28 3/4-x,1/2+y,1/4-z
29 -y,3/4+x,3/4+z
30 3/4+y,3/4+x,-z
31 3/4+y,1/2-x,1/4+z
32 -y,1/2-x,1/2-z
33 y,1/2+z,1/2+x
34 3/4-y,3/4-z,x
35 y,3/4-z,3/4-x
36 3/4-y,1/2+z,1/4-x
37 -z,3/4+y,3/4+x
38 -z,1/2-y,1/2-x
39 3/4+z,1/2-y,1/4+x
40 3/4+z,3/4+y,-x
41 z,1/2+x,1/2+y
42 1/4-z,x,1/4-y
43 1/4-z,3/4-x,1/2+y
44 z,1/4-x,1/4-y
45 -x,1/2-z,1/2-y
46 -x,1/4+z,1/4+y
47 1/4+x,-z,1/4+y
48 3/4+x,3/4+z,-y
49 1/2+x,y,1/2+z
50 1/2+x,1/4-y,3/4-z
51 1/4-x,1/4-y,z
52 1/4-x,y,1/4-z
53 1/2-y,1/4+x,3/4+z
54 1/4+y,1/4+x,-z
55 1/4+y,-x,1/4+z
56 1/2-y,-x,1/2-z
57 1/2+y,z,1/2+x
58 1/4-y,1/4-z,x
59 1/2+y,1/4-z,3/4-x
60 1/4-y,z,1/4-x
61 1/2-z,1/4+y,3/4+x
62 1/2-z,-y,1/2-x
63 1/4+z,-y,1/4+x
64 1/4+z,1/4+y,-x
65 1/2+z,x,1/2+y
66 3/4-z,1/2+x,1/4-y
67 3/4-z,1/4-x,1/2+y
68 1/2+z,3/4-x,1/4-y
69 1/2-x,-z,1/2-y
70 1/2-x,3/4+z,1/4+y
71 3/4+x,1/2-z,1/4+y
72 1/4+x,1/4+z,-y
73 1/2+x,1/2+y,z
74 1/2+x,3/4-y,1/4-z
75 1/4-x,3/4-y,1/2+z
76 1/4-x,1/2+y,3/4-z
77 1/2-y,3/4+x,1/4+z
78 1/4+y,3/4+x,1/2-z
79 1/4+y,1/2-x,3/4+z
80 1/2-y,1/2-x,-z
81 1/2+y,1/2+z,x
82 1/4-y,3/4-z,1/2+x
83 1/2+y,3/4-z,1/4-x
84 1/4-y,1/2+z,3/4-x
85 1/2-z,3/4+y,1/4+x
86 1/2-z,1/2-y,-x
87 1/4+z,1/2-y,3/4+x
88 1/4+z,3/4+y,1/2-x
89 1/2+z,1/2+x,y
90 3/4-z,x,3/4-y
91 3/4-z,3/4-x,y
92 1/2+z,1/4-x,3/4-y
93 1/2-x,1/2-z,-y
94 1/2-x,1/4+z,3/4+y
95 3/4+x,-z,3/4+y
96 1/4+x,3/4+z,1/2-y
97 -x,-y,-z
98 -x,3/4+y,3/4+z
99 1/4+x,3/4+y,1/2-z
100 1/4+x,-y,1/4+z
101 y,3/4-x,3/4-z
102 1/4-y,3/4-x,1/2+z
103 1/4-y,x,1/4-z
104 y,x,z
105 -y,-z,-x
106 1/4+y,3/4+z,1/2-x
107 -y,3/4+z,3/4+x
108 1/4+y,-z,1/4+x
109 z,3/4-y,3/4-x
110 z,y,x
111 1/4-z,y,1/4-x
112 1/4-z,3/4-y,1/2+x
113 -z,-x,-y
114 3/4+z,1/2-x,1/4+y
115 3/4+z,3/4+x,-y
116 -z,1/4+x,1/4+y
117 x,z,y
118 x,1/4-z,1/4-y
119 3/4-x,1/2+z,1/4-y
120 1/4-x,3/4-z,1/2+y
121 -x,1/2-y,1/2-z
122 -x,1/4+y,1/4+z
123 1/4+x,1/4+y,-z
124 1/4+x,1/2-y,3/4+z
125 y,1/4-x,1/4-z
126 1/4-y,1/4-x,z
127 1/4-y,1/2+x,3/4-z
128 y,1/2+x,1/2+z
129 -y,1/2-z,1/2-x
130 1/4+y,1/4+z,-x
131 -y,1/4+z,1/4+x
132 1/4+y,1/2-z,3/4+x
133 z,1/4-y,1/4-x
134 z,1/2+y,1/2+x
135 1/4-z,1/2+y,3/4-x
136 1/4-z,1/4-y,x
137 -z,1/2-x,1/2-y
138 3/4+z,-x,3/4+y
139 3/4+z,1/4+x,1/2-y
140 -z,3/4+x,3/4+y
141 x,1/2+z,1/2+y
142 x,3/4-z,3/4-y
143 3/4-x,z,3/4-y
144 1/4-x,1/4-z,y
145 1/2-x,-y,1/2-z
146 1/2-x,3/4+y,1/4+z
147 3/4+x,3/4+y,-z
148 3/4+x,-y,3/4+z
149 1/2+y,3/4-x,1/4-z
150 3/4-y,3/4-x,z
151 3/4-y,x,3/4-z
152 1/2+y,x,1/2+z
153 1/2-y,-z,1/2-x
154 3/4+y,3/4+z,-x
155 1/2-y,3/4+z,1/4+x
156 3/4+y,-z,3/4+x
157 1/2+z,3/4-y,1/4-x
158 1/2+z,y,1/2+x
159 3/4-z,y,3/4-x
160 3/4-z,3/4-y,x
161 1/2-z,-x,1/2-y
162 1/4+z,1/2-x,3/4+y
163 1/4+z,3/4+x,1/2-y
164 1/2-z,1/4+x,3/4+y
165 1/2+x,z,1/2+y
166 1/2+x,1/4-z,3/4-y
167 1/4-x,1/2+z,3/4-y
168 3/4-x,3/4-z,y
169 1/2-x,1/2-y,-z
170 1/2-x,1/4+y,3/4+z
171 3/4+x,1/4+y,1/2-z
172 3/4+x,1/2-y,1/4+z
173 1/2+y,1/4-x,3/4-z
174 3/4-y,1/4-x,1/2+z
175 3/4-y,1/2+x,1/4-z
176 1/2+y,1/2+x,z
177 1/2-y,1/2-z,-x
178 3/4+y,1/4+z,1/2-x
179 1/2-y,1/4+z,3/4+x
180 3/4+y,1/2-z,1/4+x
181 1/2+z,1/4-y,3/4-x
182 1/2+z,1/2+y,x
183 3/4-z,1/2+y,1/4-x
184 3/4-z,1/4-y,1/2+x
185 1/2-z,1/2-x,-y
186 1/4+z,-x,1/4+y
187 1/4+z,1/4+x,-y
188 1/2-z,3/4+x,1/4+y
189 1/2+x,1/2+z,y
190 1/2+x,3/4-z,1/4-y
191 1/4-x,z,1/4-y
192 3/4-x,1/4-z,1/2+y
_cell_length_a                   39.8144(11)
_cell_length_b                   39.8144(11)
_cell_length_c                   39.8144(11)
_cell_angle_alpha                90
_cell_angle_beta                 90
_cell_angle_gamma                90
_cell_volume                     63113.2
loop_
_atom_site_label
_atom_site_type_symbol
_atom_site_fract_x
_atom_site_fract_y
_atom_site_fract_z
Zr1 Zr 0.187160(8) 0.1250 0.1250
O1 O 0.21408(4) 0.07623(4) 0.12543(4)
C1 C 0.20385(6) 0.04615(6) 0.12776(8)
C2 C 0.23016(6) 0.01984(6) 0.13355(10)
C3 C 0.26352(7) 0.02889(7) 0.13629(10)
H1 H 0.2698 0.0518 0.1342
C4 C 0.35029(7) -0.10029(7) 0.15738(15)
C5 C 0.27880(7) -0.02880(7) 0.14482(16)
C6 C 0.38342(9) -0.09200(9) 0.15967(11)
C7 C 0.28775(8) 0.00490(8) 0.14200(12)
H2 H 0.3106 0.0114 0.1440
C8 C 0.30412(8) -0.05412(8) 0.15041(17)
C9 C 0.32495(8) -0.07495(8) 0.15477(16)
O2 O 0.15448(9) 0.15448(9) 0.09552(9)
O3 O 0.15711(9) 0.09289(9) 0.09289(9)
O4 O 0.39150(17) -0.05934(15) 0.1622(2)
C10 C 0.4284(3) -0.0509(3) 0.1706(5)
Zr1R Zr 0.1250 0.062840(8) 0.1250
Zr1MB Zr 0.6250 -0.312840(8) 0.1250
Zr1Z Zr 0.562840(8) -0.3750 0.1250
Zr1P Zr 0.1250 0.187160(8) 0.1250
Zr1OB Zr 0.6250 0.562840(8) 0.1250
Zr1J Zr 0.1250 0.1250 0.062840(8)
Zr1Z_2 Zr 0.562840(8) 0.6250 0.1250
Zr1I Zr 0.6250 0.1250 -0.312840(8)
Zr1B Zr 0.562840(8) 0.1250 -0.3750
Zr1H Zr 0.1250 0.1250 0.187160(8)
Zr1K Zr 0.6250 0.1250 0.562840(8)
Zr1B_2 Zr 0.562840(8) 0.1250 0.6250
Zr1XA Zr 0.062840(8) 0.1250 0.1250
Zr1TB Zr -0.312840(8) -0.3750 0.1250
Zr1MB_2 Zr -0.3750 -0.312840(8) 0.1250
Zr1FA Zr 0.1250 -0.3750 -0.312840(8)
Zr1Q Zr 0.1250 -0.312840(8) -0.3750
Zr1TB_2 Zr 0.687160(8) -0.3750 0.1250
Zr1IA Zr 0.6250 -0.3750 0.062840(8)
O1UD O 0.17377(4) 0.03592(4) 0.12543(4)
O1SF O 0.57623(4) -0.28592(4) 0.12543(4)
O1Z O 0.53592(4) -0.32623(4) 0.12543(4)
O1A O 0.21408(4) 0.17377(4) 0.12457(4)
O1XC O 0.17377(4) 0.21408(4) 0.12457(4)
O1RE O 0.57623(4) 0.53592(4) 0.12457(4)
O1AA O 0.53592(4) 0.57623(4) 0.12457(4)
O1LD O 0.21408(4) 0.12543(4) 0.07623(4)
O1GB O 0.17377(4) 0.12543(4) 0.03592(4)
O1DB O 0.57623(4) 0.12543(4) -0.28592(4)
O1LE O 0.53592(4) 0.12543(4) -0.32623(4)
O1MD O 0.21408(4) 0.12457(4) 0.17377(4)
O1EB O 0.17377(4) 0.12457(4) 0.21408(4)
O1FB O 0.57623(4) 0.12457(4) 0.53592(4)
O1IG O 0.53592(4) 0.12457(4) 0.57623(4)
O1TD O 0.07623(4) 0.03592(4) 0.12457(4)
O1YA O 0.03592(4) 0.07623(4) 0.12457(4)
O1UB O -0.28592(4) -0.32623(4) 0.12457(4)
O1RF O -0.32623(4) -0.28592(4) 0.12457(4)
O1R O 0.12457(4) 0.03592(4) 0.07623(4)
O1FD O 0.12457(4) 0.07623(4) 0.03592(4)
O1GD O 0.12457(4) -0.32623(4) -0.28592(4)
O1Q O 0.12457(4) -0.28592(4) -0.32623(4)
O1QA O 0.12543(4) 0.03592(4) 0.17377(4)
O1RF_2 O 0.67377(4) -0.28592(4) 0.12457(4)
O1JC O 0.62543(4) -0.28592(4) 0.07623(4)
O1MB O 0.62457(4) -0.28592(4) 0.17377(4)
O1AA_2 O 0.53592(4) -0.42377(4) 0.12457(4)
O1KF O 0.53592(4) -0.37543(4) 0.07623(4)
O1ND O 0.53592(4) -0.37457(4) 0.17377(4)
O1YC O 0.07623(4) 0.21408(4) 0.12543(4)
O1OA O 0.12457(4) 0.21408(4) 0.17377(4)
O1P O 0.12543(4) 0.21408(4) 0.07623(4)
O1SE O 0.67377(4) 0.53592(4) 0.12543(4)
O1OB O 0.62543(4) 0.53592(4) 0.17377(4)
O1LC O 0.62457(4) 0.53592(4) 0.07623(4)
C1Z C 0.54615(6) -0.29615(6) 0.12776(8)
C1A C 0.20385(6) 0.20385(6) 0.12224(8)
C1AA C 0.54615(6) 0.54615(6) 0.12224(8)
C1GB C 0.20385(6) 0.12776(8) 0.04615(6)
C1DB C 0.54615(6) 0.12776(8) -0.29615(6)
C1EB C 0.20385(6) 0.12224(8) 0.20385(6)
C1FB C 0.54615(6) 0.12224(8) 0.54615(6)
C1YA C 0.04615(6) 0.04615(6) 0.12224(8)
C1UB C -0.29615(6) -0.29615(6) 0.12224(8)
C1R C 0.12224(8) 0.04615(6) 0.04615(6)
C1Q C 0.12224(8) -0.29615(6) -0.29615(6)
C2Z C 0.51984(6) -0.26984(6) 0.13355(10)
C2A C 0.23016(6) 0.23016(6) 0.11645(10)
C2AA C 0.51984(6) 0.51984(6) 0.11645(10)
C2GB C 0.23016(6) 0.13355(10) 0.01984(6)
C2DB C 0.51984(6) 0.13355(10) -0.26984(6)
C2EB C 0.23016(6) 0.11645(10) 0.23016(6)
C2FB C 0.51984(6) 0.11645(10) 0.51984(6)
C2YA C 0.01984(6) 0.01984(6) 0.11645(10)
C2UB C -0.26984(6) -0.26984(6) 0.11645(10)
C2R C 0.11645(10) 0.01984(6) 0.01984(6)
C2Q C 0.11645(10) -0.26984(6) -0.26984(6)
C3UD C 0.22111(7) -0.01352(7) 0.13629(10)
C3SF C 0.52889(7) -0.23648(7) 0.13629(10)
C3Z C 0.48648(7) -0.27889(7) 0.13629(10)
C3A C 0.26352(7) 0.22111(7) 0.11371(10)
C3XC C 0.22111(7) 0.26352(7) 0.11371(10)
C3RE C 0.52889(7) 0.48648(7) 0.11371(10)
C3AA C 0.48648(7) 0.52889(7) 0.11371(10)
C3LD C 0.26352(7) 0.13629(10) 0.02889(7)
C3GB C 0.22111(7) 0.13629(10) -0.01352(7)
C3DB C 0.52889(7) 0.13629(10) -0.23648(7)
C3LE C 0.48648(7) 0.13629(10) -0.27889(7)
C3MD C 0.26352(7) 0.11371(10) 0.22111(7)
C3EB C 0.22111(7) 0.11371(10) 0.26352(7)
C3FB C 0.52889(7) 0.11371(10) 0.48648(7)
C3IG C 0.48648(7) 0.11371(10) 0.52889(7)
C3TD C 0.02889(7) -0.01352(7) 0.11371(10)
C3YA C -0.01352(7) 0.02889(7) 0.11371(10)
C3UB C -0.23648(7) -0.27889(7) 0.11371(10)
C3RF C -0.27889(7) -0.23648(7) 0.11371(10)
C3R C 0.11371(10) -0.01352(7) 0.02889(7)
C3FD C 0.11371(10) 0.02889(7) -0.01352(7)
C3GD C 0.11371(10) -0.27889(7) -0.23648(7)
C3Q C 0.11371(10) -0.23648(7) -0.27889(7)
H1UD H 0.1982 -0.0198 0.1342
H1Z H 0.4802 -0.3018 0.1342
H1SF H 0.5518 -0.2302 0.1342
H1A H 0.2698 0.1982 0.1158
H1XC H 0.1982 0.2698 0.1158
H1AA H 0.4802 0.5518 0.1158
H1RE H 0.5518 0.4802 0.1158
H1LD H 0.2698 0.1342 0.0518
H1GB H 0.1982 0.1342 -0.0198
H1LE H 0.4802 0.1342 -0.3018
H1DB H 0.5518 0.1342 -0.2302
H1MD H 0.2698 0.1158 0.1982
H1EB H 0.1982 0.1158 0.2698
H1IG H 0.4802 0.1158 0.5518
H1FB H 0.5518 0.1158 0.4802
H1TD H 0.0518 -0.0198 0.1158
H1YA H -0.0198 0.0518 0.1158
H1RF H -0.3018 -0.2302 0.1158
H1UB H -0.2302 -0.3018 0.1158
H1R H 0.1158 -0.0198 0.0518
H1FD H 0.1158 0.0518 -0.0198
H1Q H 0.1158 -0.2302 -0.3018
H1GD H 0.1158 -0.3018 -0.2302
C4Z C 0.39971(7) -0.14971(7) 0.15738(15)
C4A C 0.35029(7) 0.35029(7) 0.09262(15)
C4AA C 0.39971(7) 0.39971(7) 0.09262(15)
C4GB C 0.35029(7) 0.15738(15) -0.10029(7)
C4DB C 0.39971(7) 0.15738(15) -0.14971(7)
C4EB C 0.35029(7) 0.09262(15) 0.35029(7)
C4FB C 0.39971(7) 0.09262(15) 0.39971(7)
C4YA C -0.10029(7) -0.10029(7) 0.09262(15)
C4UB C -0.14971(7) -0.14971(7) 0.09262(15)
C4R C 0.09262(15) -0.10029(7) -0.10029(7)
C4Q C 0.09262(15) -0.14971(7) -0.14971(7)
C5Z C 0.47120(7) -0.22120(7) 0.14482(16)
C5A C 0.27880(7) 0.27880(7) 0.10518(16)
C5AA C 0.47120(7) 0.47120(7) 0.10518(16)
C5GB C 0.27880(7) 0.14482(16) -0.02880(7)
C5DB C 0.47120(7) 0.14482(16) -0.22120(7)
C5EB C 0.27880(7) 0.10518(16) 0.27880(7)
C5FB C 0.47120(7) 0.10518(16) 0.47120(7)
C5YA C -0.02880(7) -0.02880(7) 0.10518(16)
C5UB C -0.22120(7) -0.22120(7) 0.10518(16)
C5R C 0.10518(16) -0.02880(7) -0.02880(7)
C5Q C 0.10518(16) -0.22120(7) -0.22120(7)
C6SF C 0.40800(9) -0.11658(9) 0.15967(11)
C6Z C 0.36658(9) -0.15800(9) 0.15967(11)
C6UD C 0.34200(9) -0.13342(9) 0.15967(11)
C6A C 0.38342(9) 0.34200(9) 0.09033(11)
C6RE C 0.40800(9) 0.36658(9) 0.09033(11)
C6AA C 0.36658(9) 0.40800(9) 0.09033(11)
C6XC C 0.34200(9) 0.38342(9) 0.09033(11)
C6LD C 0.38342(9) 0.15967(11) -0.09200(9)
C6DB C 0.40800(9) 0.15967(11) -0.11658(9)
C6LE C 0.36658(9) 0.15967(11) -0.15800(9)
C6GB C 0.34200(9) 0.15967(11) -0.13342(9)
C6MD C 0.38342(9) 0.09033(11) 0.34200(9)
C6FB C 0.40800(9) 0.09033(11) 0.36658(9)
C6IG C 0.36658(9) 0.09033(11) 0.40800(9)
C6EB C 0.34200(9) 0.09033(11) 0.38342(9)
C6TD C -0.09200(9) -0.13342(9) 0.09033(11)
C6UB C -0.11658(9) -0.15800(9) 0.09033(11)
C6RF C -0.15800(9) -0.11658(9) 0.09033(11)
C6YA C -0.13342(9) -0.09200(9) 0.09033(11)
C6R C 0.09033(11) -0.13342(9) -0.09200(9)
C6GD C 0.09033(11) -0.15800(9) -0.11658(9)
C6Q C 0.09033(11) -0.11658(9) -0.15800(9)
C6FD C 0.09033(11) -0.09200(9) -0.13342(9)
C7UD C 0.24510(8) -0.03775(8) 0.14200(12)
C7SF C 0.50490(8) -0.21225(8) 0.14200(12)
C7Z C 0.46225(8) -0.25490(8) 0.14200(12)
C7A C 0.28775(8) 0.24510(8) 0.10800(12)
C7XC C 0.24510(8) 0.28775(8) 0.10800(12)
C7RE C 0.50490(8) 0.46225(8) 0.10800(12)
C7AA C 0.46225(8) 0.50490(8) 0.10800(12)
C7LD C 0.28775(8) 0.14200(12) 0.00490(8)
C7GB C 0.24510(8) 0.14200(12) -0.03775(8)
C7DB C 0.50490(8) 0.14200(12) -0.21225(8)
C7LE C 0.46225(8) 0.14200(12) -0.25490(8)
C7MD C 0.28775(8) 0.10800(12) 0.24510(8)
C7EB C 0.24510(8) 0.10800(12) 0.28775(8)
C7FB C 0.50490(8) 0.10800(12) 0.46225(8)
C7IG C 0.46225(8) 0.10800(12) 0.50490(8)
C7TD C 0.00490(8) -0.03775(8) 0.10800(12)
C7YA C -0.03775(8) 0.00490(8) 0.10800(12)
C7UB C -0.21225(8) -0.25490(8) 0.10800(12)
C7RF C -0.25490(8) -0.21225(8) 0.10800(12)
C7R C 0.10800(12) -0.03775(8) 0.00490(8)
C7FD C 0.10800(12) 0.00490(8) -0.03775(8)
C7GD C 0.10800(12) -0.25490(8) -0.21225(8)
C7Q C 0.10800(12) -0.21225(8) -0.25490(8)
H2UD H 0.2386 -0.0606 0.1440
H2Z H 0.4394 -0.2614 0.1440
H2SF H 0.5114 -0.1894 0.1440
H2A H 0.3106 0.2386 0.1060
H2XC H 0.2386 0.3106 0.1060
H2AA H 0.4394 0.5114 0.1060
H2RE H 0.5114 0.4394 0.1060
H2LD H 0.3106 0.1440 0.0114
H2GB H 0.2386 0.1440 -0.0606
H2LE H 0.4394 0.1440 -0.2614
H2DB H 0.5114 0.1440 -0.1894
H2MD H 0.3106 0.1060 0.2386
H2EB H 0.2386 0.1060 0.3106
H2IG H 0.4394 0.1060 0.5114
H2FB H 0.5114 0.1060 0.4394
H2TD H 0.0114 -0.0606 0.1060
H2YA H -0.0606 0.0114 0.1060
H2RF H -0.2614 -0.1894 0.1060
H2UB H -0.1894 -0.2614 0.1060
H2R H 0.1060 -0.0606 0.0114
H2FD H 0.1060 0.0114 -0.0606
H2Q H 0.1060 -0.1894 -0.2614
H2GD H 0.1060 -0.2614 -0.1894
C8Z C 0.44588(8) -0.19588(8) 0.15041(17)
C8A C 0.30412(8) 0.30412(8) 0.09959(17)
C8AA C 0.44588(8) 0.44588(8) 0.09959(17)
C8GB C 0.30412(8) 0.15041(17) -0.05412(8)
C8DB C 0.44588(8) 0.15041(17) -0.19588(8)
C8EB C 0.30412(8) 0.09959(17) 0.30412(8)
C8FB C 0.44588(8) 0.09959(17) 0.44588(8)
C8YA C -0.05412(8) -0.05412(8) 0.09959(17)
C8UB C -0.19588(8) -0.19588(8) 0.09959(17)
C8R C 0.09959(17) -0.05412(8) -0.05412(8)
C8Q C 0.09959(17) -0.19588(8) -0.19588(8)
C9Z C 0.42505(8) -0.17505(8) 0.15477(16)
C9A C 0.32495(8) 0.32495(8) 0.09523(16)
C9AA C 0.42505(8) 0.42505(8) 0.09523(16)
C9GB C 0.32495(8) 0.15477(16) -0.07495(8)
C9DB C 0.42505(8) 0.15477(16) -0.17505(8)
C9EB C 0.32495(8) 0.09523(16) 0.32495(8)
C9FB C 0.42505(8) 0.09523(16) 0.42505(8)
C9YA C -0.07495(8) -0.07495(8) 0.09523(16)
C9UB C -0.17505(8) -0.17505(8) 0.09523(16)
C9R C 0.09523(16) -0.07495(8) -0.07495(8)
C9Q C 0.09523(16) -0.17505(8) -0.17505(8)
O2A O 0.15448(9) 0.09552(9) 0.15448(9)
O2QA O 0.09552(9) 0.09552(9) 0.09552(9)
O2MB O 0.65448(9) -0.34552(9) 0.09552(9)
O2AA O 0.59552(9) -0.34552(9) 0.15448(9)
O2Z O 0.59552(9) -0.40448(9) 0.09552(9)
O2P O 0.09552(9) 0.15448(9) 0.15448(9)
O2UB O 0.65448(9) 0.59552(9) 0.15448(9)
O2Z_2 O 0.59552(9) 0.59552(9) 0.09552(9)
O3A O 0.15711(9) 0.15711(9) 0.15711(9)
O3H O 0.09289(9) 0.09289(9) 0.15711(9)
O3Z O 0.59289(9) -0.34289(9) 0.09289(9)
O3GA O 0.65711(9) -0.34289(9) 0.15711(9)
O3AA O 0.59289(9) -0.40711(9) 0.15711(9)
O3J O 0.09289(9) 0.15711(9) 0.09289(9)
O3AA_2 O 0.59289(9) 0.59289(9) 0.15711(9)
O3IA O 0.65711(9) 0.59289(9) 0.09289(9)
O4UD O 0.30934(15) -0.14150(17) 0.1622(2)
O4Z O 0.35850(17) -0.19066(15) 0.1622(2)
O4SF O 0.44066(15) -0.10850(17) 0.1622(2)
O4A O 0.39150(17) 0.30934(15) 0.0878(2)
O4XC O 0.30934(15) 0.39150(17) 0.0878(2)
O4AA O 0.35850(17) 0.44066(15) 0.0878(2)
O4RE O 0.44066(15) 0.35850(17) 0.0878(2)
O4LD O 0.39150(17) 0.1622(2) -0.05934(15)
O4GB O 0.30934(15) 0.1622(2) -0.14150(17)
O4LE O 0.35850(17) 0.1622(2) -0.19066(15)
O4DB O 0.44066(15) 0.1622(2) -0.10850(17)
O4MD O 0.39150(17) 0.0878(2) 0.30934(15)
O4EB O 0.30934(15) 0.0878(2) 0.39150(17)
O4IG O 0.35850(17) 0.0878(2) 0.44066(15)
O4FB O 0.44066(15) 0.0878(2) 0.35850(17)
O4TD O -0.05934(15) -0.14150(17) 0.0878(2)
O4YA O -0.14150(17) -0.05934(15) 0.0878(2)
O4RF O -0.19066(15) -0.10850(17) 0.0878(2)
O4UB O -0.10850(17) -0.19066(15) 0.0878(2)
O4R O 0.0878(2) -0.14150(17) -0.05934(15)
O4FD O 0.0878(2) -0.05934(15) -0.14150(17)
O4Q O 0.0878(2) -0.10850(17) -0.19066(15)
O4GD O 0.0878(2) -0.19066(15) -0.10850(17)
C10UD C 0.3009(3) -0.1784(3) 0.1706(5)
C10Z C 0.3216(3) -0.1991(3) 0.1706(5)
C10SF C 0.4491(3) -0.0716(3) 0.1706(5)
C10A C 0.4284(3) 0.3009(3) 0.0794(5)
C10XC C 0.3009(3) 0.4284(3) 0.0794(5)
C10AA C 0.3216(3) 0.4491(3) 0.0794(5)
C10RE C 0.4491(3) 0.3216(3) 0.0794(5)
C10LD C 0.4284(3) 0.1706(5) -0.0509(3)
C10GB C 0.3009(3) 0.1706(5) -0.1784(3)
C10LE C 0.3216(3) 0.1706(5) -0.1991(3)
C10DB C 0.4491(3) 0.1706(5) -0.0716(3)
C10MD C 0.4284(3) 0.0794(5) 0.3009(3)
C10EB C 0.3009(3) 0.0794(5) 0.4284(3)
C10IG C 0.3216(3) 0.0794(5) 0.4491(3)
C10FB C 0.4491(3) 0.0794(5) 0.3216(3)
C10TD C -0.0509(3) -0.1784(3) 0.0794(5)
C10YA C -0.1784(3) -0.0509(3) 0.0794(5)
C10RF C -0.1991(3) -0.0716(3) 0.0794(5)
C10UB C -0.0716(3) -0.1991(3) 0.0794(5)
C10R C 0.0794(5) -0.1784(3) -0.0509(3)
C10FD C 0.0794(5) -0.0509(3) -0.1784(3)
C10Q C 0.0794(5) -0.0716(3) -0.1991(3)
C10GD C 0.0794(5) -0.1991(3) -0.0716(3)
loop_
_geom_bond_atom_site_label_1
_geom_bond_atom_site_label_2
_geom_bond_site_symmetry_1
_geom_bond_site_symmetry_2
Zr1 O1 1_555 1_555
O1 C1 1_555 1_555
C1 C2 1_555 1_555
C2 C3 1_555 1_555
C3 H1 1_555 1_555
C4 C6 1_555 1_555
C5 C7 1_555 1_555
C6 O4 1_555 1_555
C7 C3 1_555 1_555
H2 C7 1_555 1_555
C8 C5 1_555 1_555
C9 C4 1_555 1_555
O2 Zr1 1_555 1_555
O3 Zr1 1_555 1_555
O4 C10 1_555 1_555
C10 C10SF 1_555 1_555
Zr1R O3 1_555 1_555
Zr1MB O1SF 1_555 1_555
Zr1Z O1Z 1_555 1_555
Zr1P O2 1_555 1_555
Zr1OB O1RE 1_555 1_555
Zr1J O2 1_555 1_555
Zr1Z_2 O1AA 1_555 1_555
Zr1I O1DB 1_555 1_555
Zr1B O1LE 1_555 1_555
Zr1H O1EB 1_555 1_555
Zr1K O1FB 1_555 1_555
Zr1B_2 O1IG 1_555 1_555
Zr1XA O1YA 1_555 1_555
Zr1TB O1UB 1_555 1_555
Zr1MB_2 O1RF 1_555 1_555
Zr1FA O1GD 1_555 1_555
Zr1Q O1Q 1_555 1_555
Zr1TB_2 O2MB 1_555 1_555
Zr1IA O2MB 1_555 1_555
O1UD C1 1_555 1_555
O1SF C1Z 1_555 1_555
O1Z C1Z 1_555 1_555
O1A Zr1 1_555 1_555
O1XC Zr1P 1_555 1_555
O1RE C1AA 1_555 1_555
O1AA C1AA 1_555 1_555
O1LD Zr1 1_555 1_555
O1GB Zr1J 1_555 1_555
O1DB C1DB 1_555 1_555
O1LE C1DB 1_555 1_555
O1MD Zr1 1_555 1_555
O1EB C1EB 1_555 1_555
O1FB C1FB 1_555 1_555
O1IG C1FB 1_555 1_555
O1TD Zr1R 1_555 1_555
O1YA C1YA 1_555 1_555
O1UB C1UB 1_555 1_555
O1RF C1UB 1_555 1_555
O1R Zr1R 1_555 1_555
O1FD Zr1J 1_555 1_555
O1GD C1Q 1_555 1_555
O1Q C1Q 1_555 1_555
O1QA Zr1R 1_555 1_555
O1RF_2 Zr1MB 1_555 1_555
O1JC Zr1MB 1_555 1_555
O1MB Zr1MB 1_555 1_555
O1AA_2 Zr1Z 1_555 1_555
O1KF Zr1Z 1_555 1_555
O1ND Zr1Z 1_555 1_555
O1YC Zr1P 1_555 1_555
O1OA Zr1P 1_555 1_555
O1P Zr1P 1_555 1_555
O1SE Zr1OB 1_555 1_555
O1OB Zr1OB 1_555 1_555
O1LC Zr1OB 1_555 1_555
C1Z C2Z 1_555 1_555
C1A O1A 1_555 1_555
C1AA C2AA 1_555 1_555
C1GB O1LD 1_555 1_555
C1DB C2DB 1_555 1_555
C1EB O1MD 1_555 1_555
C1FB C2FB 1_555 1_555
C1YA O1TD 1_555 1_555
C1UB C2UB 1_555 1_555
C1R O1R 1_555 1_555
C1Q C2Q 1_555 1_555
C2Z C3SF 1_555 1_555
C2A C1A 1_555 1_555
C2AA C3RE 1_555 1_555
C2GB C1GB 1_555 1_555
C2DB C3DB 1_555 1_555
C2EB C1EB 1_555 1_555
C2FB C3FB 1_555 1_555
C2YA C1YA 1_555 1_555
C2UB C3UB 1_555 1_555
C2R C1R 1_555 1_555
C2Q C3GD 1_555 1_555
C3UD C2 1_555 1_555
C3SF H1SF 1_555 1_555
C3Z C2Z 1_555 1_555
C3A C2A 1_555 1_555
C3XC C2A 1_555 1_555
C3RE H1RE 1_555 1_555
C3AA C2AA 1_555 1_555
C3LD C2GB 1_555 1_555
C3GB C2GB 1_555 1_555
C3DB H1DB 1_555 1_555
C3LE C2DB 1_555 1_555
C3MD C2EB 1_555 1_555
C3EB C2EB 1_555 1_555
C3FB H1FB 1_555 1_555
C3IG C2FB 1_555 1_555
C3TD C2YA 1_555 1_555
C3YA C2YA 1_555 1_555
C3UB H1UB 1_555 1_555
C3RF C2UB 1_555 1_555
C3R C2R 1_555 1_555
C3FD C2R 1_555 1_555
C3GD H1GD 1_555 1_555
C3Q C2Q 1_555 1_555
H1UD C3UD 1_555 1_555
H1Z C3Z 1_555 1_555
H1A C3A 1_555 1_555
H1XC C3XC 1_555 1_555
H1AA C3AA 1_555 1_555
H1LD C3LD 1_555 1_555
H1GB C3GB 1_555 1_555
H1LE C3LE 1_555 1_555
H1MD C3MD 1_555 1_555
H1EB C3EB 1_555 1_555
H1IG C3IG 1_555 1_555
H1TD C3TD 1_555 1_555
H1YA C3YA 1_555 1_555
H1RF C3RF 1_555 1_555
H1R C3R 1_555 1_555
H1FD C3FD 1_555 1_555
H1Q C3Q 1_555 1_555
C4Z C6SF 1_555 1_555
C4A C6A 1_555 1_555
C4AA C6RE 1_555 1_555
C4GB C6LD 1_555 1_555
C4DB C6DB 1_555 1_555
C4EB C6MD 1_555 1_555
C4FB C6FB 1_555 1_555
C4YA C6TD 1_555 1_555
C4UB C6UB 1_555 1_555
C4R C6R 1_555 1_555
C4Q C6GD 1_555 1_555
C5Z C7SF 1_555 1_555
C5A C7A 1_555 1_555
C5AA C7RE 1_555 1_555
C5GB C7LD 1_555 1_555
C5DB C7DB 1_555 1_555
C5EB C7MD 1_555 1_555
C5FB C7FB 1_555 1_555
C5YA C7TD 1_555 1_555
C5UB C7UB 1_555 1_555
C5R C7R 1_555 1_555
C5Q C7GD 1_555 1_555
C6SF C6 1_555 1_555
C6Z C4Z 1_555 1_555
C6UD C4 1_555 1_555
C6A C6RE 1_555 1_555
C6RE O4RE 1_555 1_555
C6AA C4AA 1_555 1_555
C6XC C4A 1_555 1_555
C6LD C6DB 1_555 1_555
C6DB O4DB 1_555 1_555
C6LE C4DB 1_555 1_555
C6GB C4GB 1_555 1_555
C6MD C6FB 1_555 1_555
C6FB O4FB 1_555 1_555
C6IG C4FB 1_555 1_555
C6EB C4EB 1_555 1_555
C6TD C6UB 1_555 1_555
C6UB O4UB 1_555 1_555
C6RF C4UB 1_555 1_555
C6YA C4YA 1_555 1_555
C6R C6GD 1_555 1_555
C6GD O4GD 1_555 1_555
C6Q C4Q 1_555 1_555
C6FD C4R 1_555 1_555
C7UD C5 1_555 1_555
C7SF C3SF 1_555 1_555
C7Z C3Z 1_555 1_555
C7A C3A 1_555 1_555
C7XC C3XC 1_555 1_555
C7RE C3RE 1_555 1_555
C7AA C3AA 1_555 1_555
C7LD C3LD 1_555 1_555
C7GB C3GB 1_555 1_555
C7DB C3DB 1_555 1_555
C7LE C3LE 1_555 1_555
C7MD C3MD 1_555 1_555
C7EB C3EB 1_555 1_555
C7FB C3FB 1_555 1_555
C7IG C3IG 1_555 1_555
C7TD C3TD 1_555 1_555
C7YA C3YA 1_555 1_555
C7UB C3UB 1_555 1_555
C7RF C3RF 1_555 1_555
C7R C3R 1_555 1_555
C7FD C3FD 1_555 1_555
C7GD C3GD 1_555 1_555
C7Q C3Q 1_555 1_555
H2UD C7UD 1_555 1_555
H2Z C7Z 1_555 1_555
H2SF C7SF 1_555 1_555
H2A C7A 1_555 1_555
H2XC C7XC 1_555 1_555
H2AA C7AA 1_555 1_555
H2RE C7RE 1_555 1_555
H2LD C7LD 1_555 1_555
H2GB C7GB 1_555 1_555
H2LE C7LE 1_555 1_555
H2DB C7DB 1_555 1_555
H2MD C7MD 1_555 1_555
H2EB C7EB 1_555 1_555
H2IG C7IG 1_555 1_555
H2FB C7FB 1_555 1_555
H2TD C7TD 1_555 1_555
H2YA C7YA 1_555 1_555
H2RF C7RF 1_555 1_555
H2UB C7UB 1_555 1_555
H2R C7R 1_555 1_555
H2FD C7FD 1_555 1_555
H2Q C7Q 1_555 1_555
H2GD C7GD 1_555 1_555
C8Z C5Z 1_555 1_555
C8A C5A 1_555 1_555
C8AA C5AA 1_555 1_555
C8GB C5GB 1_555 1_555
C8DB C5DB 1_555 1_555
C8EB C5EB 1_555 1_555
C8FB C5FB 1_555 1_555
C8YA C5YA 1_555 1_555
C8UB C5UB 1_555 1_555
C8R C5R 1_555 1_555
C8Q C5Q 1_555 1_555
C9Z C4Z 1_555 1_555
C9A C4A 1_555 1_555
C9AA C4AA 1_555 1_555
C9GB C4GB 1_555 1_555
C9DB C4DB 1_555 1_555
C9EB C4EB 1_555 1_555
C9FB C4FB 1_555 1_555
C9YA C4YA 1_555 1_555
C9UB C4UB 1_555 1_555
C9R C4R 1_555 1_555
C9Q C4Q 1_555 1_555
O2A Zr1 1_555 1_555
O2QA Zr1R 1_555 1_555
O2MB Zr1MB 1_555 1_555
O2AA Zr1MB 1_555 1_555
O2Z Zr1Z 1_555 1_555
O2P Zr1P 1_555 1_555
O2UB Zr1OB 1_555 1_555
O2Z_2 Zr1OB 1_555 1_555
O3A Zr1 1_555 1_555
O3H Zr1R 1_555 1_555
O3Z Zr1MB 1_555 1_555
O3GA Zr1MB 1_555 1_555
O3AA Zr1Z 1_555 1_555
O3J Zr1P 1_555 1_555
O3AA_2 Zr1OB 1_555 1_555
O3IA Zr1OB 1_555 1_555
O4UD C6UD 1_555 1_555
O4Z C6Z 1_555 1_555
O4SF C6SF 1_555 1_555
O4A C6A 1_555 1_555
O4XC C6XC 1_555 1_555
O4AA C6AA 1_555 1_555
O4RE C10RE 1_555 1_555
O4LD C6LD 1_555 1_555
O4GB C6GB 1_555 1_555
O4LE C6LE 1_555 1_555
O4DB C10DB 1_555 1_555
O4MD C6MD 1_555 1_555
O4EB C6EB 1_555 1_555
O4IG C6IG 1_555 1_555
O4FB C10FB 1_555 1_555
O4TD C6TD 1_555 1_555
O4YA C6YA 1_555 1_555
O4RF C6RF 1_555 1_555
O4UB C10UB 1_555 1_555
O4R C6R 1_555 1_555
O4FD C6FD 1_555 1_555
O4Q C6Q 1_555 1_555
O4GD C10GD 1_555 1_555
C10UD O4UD 1_555 1_555
C10Z O4Z 1_555 1_555
C10SF O4SF 1_555 1_555
C10A O4A 1_555 1_555
C10XC O4XC 1_555 1_555
C10AA O4AA 1_555 1_555
C10RE C10A 1_555 1_555
C10LD O4LD 1_555 1_555
C10GB O4GB 1_555 1_555
C10LE O4LE 1_555 1_555
C10DB C10LD 1_555 1_555
C10MD O4MD 1_555 1_555
C10EB O4EB 1_555 1_555
C10IG O4IG 1_555 1_555
C10FB C10MD 1_555 1_555
C10TD O4TD 1_555 1_555
C10YA O4YA 1_555 1_555
C10RF O4RF 1_555 1_555
C10UB C10TD 1_555 1_555
C10R O4R 1_555 1_555
C10FD O4FD 1_555 1_555
C10Q O4Q 1_555 1_555
C10GD C10R 1_555 1_555
C8 C9 1_555 1_555
O3 Zr1J 1_555 1_555
Zr1R O1UD 1_555 1_555
Zr1R O2A 1_555 1_555
Zr1Z O2AA 1_555 1_555
Zr1Z O3Z 1_555 1_555
Zr1P O3A 1_555 1_555
Zr1J O2QA 1_555 1_555
Zr1J O3J 1_555 1_555
Zr1Z_2 O2Z_2 1_555 1_555
Zr1Z_2 O3AA_2 1_555 1_555
Zr1H O2A 1_555 1_555
Zr1H O2P 1_555 1_555
Zr1H O3A 1_555 1_555
Zr1H O3H 1_555 1_555
Zr1XA O2QA 1_555 1_555
Zr1XA O2P 1_555 1_555
Zr1XA O3H 1_555 1_555
Zr1XA O3J 1_555 1_555
Zr1TB_2 O3GA 1_555 1_555
Zr1IA O2Z 1_555 1_555
Zr1IA O3Z 1_555 1_555
O1XC C1A 1_555 1_555
O1GB C1GB 1_555 1_555
O1FD C1R 1_555 1_555
C3UD C7UD 1_555 1_555
C5Z C7Z 1_555 1_555
C5A C7XC 1_555 1_555
C5AA C7AA 1_555 1_555
C5GB C7GB 1_555 1_555
C5DB C7LE 1_555 1_555
C5EB C7EB 1_555 1_555
C5FB C7IG 1_555 1_555
C5YA C7YA 1_555 1_555
C5UB C7RF 1_555 1_555
C5R C7FD 1_555 1_555
C5Q C7Q 1_555 1_555
C6Z C6UD 1_555 1_555
C6AA C6XC 1_555 1_555
C6LE C6GB 1_555 1_555
C6IG C6EB 1_555 1_555
C6RF C6YA 1_555 1_555
C6Q C6FD 1_555 1_555
C8Z C9Z 1_555 1_555
C8A C9A 1_555 1_555
C8AA C9AA 1_555 1_555
C8GB C9GB 1_555 1_555
C8DB C9DB 1_555 1_555
C8EB C9EB 1_555 1_555
C8FB C9FB 1_555 1_555
C8YA C9YA 1_555 1_555
C8UB C9UB 1_555 1_555
C8R C9R 1_555 1_555
C8Q C9Q 1_555 1_555
C10UD C10Z 1_555 1_555
C10XC C10AA 1_555 1_555
C10GB C10LE 1_555 1_555
C10EB C10IG 1_555 1_555
C10YA C10RF 1_555 1_555
C10FD C10Q 1_555 1_555

#END
