
#######################################################################
#
#                 Cambridge Crystallographic Data Centre
#                                CCDC 
#
#######################################################################
#
# If this CIF has been generated from an entry in the Cambridge 
# Structural Database, then it will include bibliographic, chemical, 
# crystal, experimental, refinement or atomic coordinate data resulting 
# from the CCDC's data processing and validation procedures.
#
#######################################################################

data_PACZUQ
_symmetry_cell_setting           triclinic
_symmetry_space_group_name_H-M   'P -1'
_symmetry_Int_Tables_number      2
_space_group_name_Hall           '-P 1'
loop_
_symmetry_equiv_pos_site_id
_symmetry_equiv_pos_as_xyz
1 x,y,z
2 -x,-y,-z
_cell_length_a                   12.514(3)
_cell_length_b                   15.767(3)
_cell_length_c                   16.171(3)
_cell_angle_alpha                114.13(3)
_cell_angle_beta                 104.06(3)
_cell_angle_gamma                103.72(3)
_cell_volume                     2612.64
loop_
_atom_site_label
_atom_site_type_symbol
_atom_site_fract_x
_atom_site_fract_y
_atom_site_fract_z
O1 O 0.190(5) 0.346(8) 0.414(4)
O2 O 0.095(4) 0.596(2) 0.629(3)
O3 O 0.122(3) 0.569(4) 0.474(4)
C1 C -1.096(3) -0.4020(11) 0.7992(12)
H1 H -1.1795 -0.4315 0.7876
H2 H -1.0903 -0.4323 0.7356
C2 C -1.0750(13) -0.3076(10) 0.8243(8)
H3 H -1.0266 -0.2909 0.7903
H4 H -1.1509 -0.3041 0.7969
C3 C -1.0326(14) -0.4407(8) 0.8558(7)
Pr1 Pr -0.53441(4) 0.10626(3) 0.96813(3)
Pr2 Pr -0.99719(4) 0.02366(3) 0.63432(3)
Pr3 Pr -0.86863(4) -0.36322(3) 1.09788(3)
C4 C -0.3698(7) 0.1392(6) 0.8229(7)
C5 C -0.3550(10) 0.0714(9) 0.7290(10)
H5 H -0.3690 0.0984 0.6851
H6 H -0.2723 0.0783 0.7473
C6 C -0.4267(10) -0.0336(10) 0.6742(9)
H7 H -0.3931 -0.0654 0.7080
H8 H -0.4193 -0.0605 0.6110
C7 C -0.6041(18) -0.1709(9) 0.6320(10)
H9 H -0.6870 -0.1979 0.5888
H10 H -0.5645 -0.2053 0.5927
C8 C -0.6023(18) -0.2022(9) 0.6992(10)
H11 H -0.5313 -0.2173 0.7116
H12 H -0.6695 -0.2656 0.6666
C9 C -0.6049(8) -0.1416(7) 0.7973(6)
C10 C -0.6269(12) -0.0535(11) 0.5758(7)
H13 H -0.5733 -0.0130 0.5597
H14 H -0.6707 -0.1193 0.5179
C11 C -0.7106(11) -0.0074(11) 0.6001(8)
H15 H -0.6657 0.0613 0.6530
H16 H -0.7567 -0.0428 0.6246
C12 C -0.7953(8) -0.0058(7) 0.5181(6)
C13 C -0.6990(8) 0.1840(7) 0.8204(6)
C14 C -0.5993(8) 0.2823(7) 0.8505(7)
H17 H -0.5952 0.3350 0.9110
H18 H -0.5240 0.2736 0.8638
C15 C -0.6136(9) 0.3159(8) 0.7770(8)
H19 H -0.6115 0.2658 0.7181
H20 H -0.5467 0.3778 0.8024
C16 C -0.7496(10) 0.3450(8) 0.6581(7)
H21 H -0.7044 0.4137 0.6770
H22 H -0.7220 0.3012 0.6137
C17 C -0.8792(11) 0.3195(8) 0.6065(7)
H23 H -0.8894 0.3351 0.5537
H24 H -0.9083 0.3599 0.6522
C18 C -0.9511(9) 0.2084(7) 0.5649(6)
C19 C -0.7303(8) 0.4215(7) 0.8338(6)
H25 H -0.7497 0.4668 0.8119
H26 H -0.6523 0.4580 0.8866
C20 C -0.8223(9) 0.3859(6) 0.8712(7)
H27 H -0.9000 0.3485 0.8180
H28 H -0.8022 0.3412 0.8937
C21 C -0.8269(7) 0.4727(6) 0.9535(6)
C22 C -0.9853(8) -0.1660(6) 1.1396(6)
C23 C -1.0548(10) -0.1316(8) 1.0794(7)
H29 H -1.1193 -0.1220 1.1005
H30 H -1.0030 -0.0664 1.0940
C24 C -1.1082(8) -0.2004(8) 0.9678(7)
H31 H -1.1453 -0.1675 0.9372
H32 H -1.1699 -0.2619 0.9513
C25 C -0.9313(8) -0.1356(9) 0.9368(9)
H33 H -0.9362 -0.0757 0.9840
H34 H -0.9528 -0.1373 0.8741
C26 C -0.8078(8) -0.1301(9) 0.9687(11)
H35 H -0.7870 -0.1285 1.0313
H36 H -0.8038 -0.1907 0.9216
C27 C -0.7175(7) -0.0410(7) 0.9791(6)
O5 O -0.4568(6) 0.1054(5) 0.8382(5)
O7 O -0.6213(5) -0.0618(4) 0.8145(4)
O9 O -0.7473(5) 0.0108(5) 0.9456(5)
O10 O -0.6772(5) 0.1336(5) 0.8613(5)
O13 O -0.6044(7) 0.2263(6) 1.0828(6)
H37 H -0.6293 0.2574 1.0580
O14 O -0.3825(7) 0.2762(6) 1.0329(5)
H38 H -0.3485 0.2740 0.9951
O16 O -0.5910(7) -0.1762(5) 0.8547(5)
O17 O -0.6067(5) -0.0219(4) 1.0228(4)
O19 O -0.8705(5) 0.0327(5) 0.5395(4)
O20 O -0.7973(5) 0.1590(4) 0.7580(4)
O21 O -0.9644(6) 0.1820(4) 0.6258(4)
O22 O -0.7952(6) -0.0402(6) 0.4357(5)
O23 O -1.1659(8) -0.1040(7) 0.6338(8)
H39 H -1.1606 -0.0868 0.6904
O24 O -0.9850(7) 0.1514(5) 0.4737(5)
O25 O -0.8918(7) -0.0410(5) 0.7327(5)
H40 H -0.8271 0.0031 0.7735
O26 O -0.9524(6) -0.2356(4) 1.0979(4)
O27 O -0.2953(6) 0.2271(5) 0.8773(6)
O28 O -0.9437(6) -0.3779(4) 0.9323(4)
O29 O -0.7521(6) 0.5596(5) 0.9931(5)
O30 O -0.6860(7) -0.3708(7) 1.2003(6)
H41 H -0.6532 -0.3193 1.2538
O31 O -1.0712(8) -0.5334(5) 0.8236(5)
O32 O -0.8516(6) -0.2527(5) 1.2670(5)
H42 H -0.8345 -0.2779 1.3013
O33 O -0.9138(5) 0.4541(4) 0.9804(4)
O34 O -0.9618(6) -0.1234(5) 1.2290(4)
N1 N -0.5550(6) -0.0647(5) 0.6560(5)
N2 N -0.7280(6) 0.3332(5) 0.7500(5)
N3 N -1.0179(6) -0.2261(5) 0.9269(5)
Pr1A Pr -0.46559(4) -0.10626(3) 1.03187(3)
Pr2A Pr -1.00281(4) -0.02366(3) 0.36568(3)
Pr2A_2 Pr -1.00281(4) -0.02366(3) 1.36568(3)
Pr3A Pr -0.13137(4) 0.36322(3) 0.90212(3)
Pr3_2 Pr -0.86863(4) 0.63678(3) 1.09788(3)
Pr3A_2 Pr -1.13137(4) -0.63678(3) 0.90212(3)
Pr3A_3 Pr -1.13137(4) 0.36322(3) 0.90212(3)
O16A O -0.4090(7) 0.1762(5) 1.1453(5)
O17A O -0.3933(5) 0.0219(4) 0.9772(4)
O19A O -1.1295(5) -0.0327(5) 0.4605(4)
O22A O -1.2048(6) 0.0402(6) 0.5643(5)
O24A O -1.0150(7) -0.1514(5) 0.5263(5)
O27A O -0.7047(6) -0.2271(5) 1.1227(6)
O29_2 O -0.7521(6) -0.4404(5) 0.9931(5)
O31A O -0.9288(8) -0.4666(5) 1.1764(5)
O33A O -1.0862(5) -0.4541(4) 1.0196(4)
O33_2 O -0.9138(5) -0.5459(4) 0.9804(4)
O34A O -1.0382(6) 0.1234(5) 0.7710(4)
O4 O 0.2357(4) 0.1180(4) 0.1921(3)
O6 O 0.305(2) 0.6047(9) 0.7594(10)
O8 O 0.6194(4) 0.5677(3) 0.8897(3)
O11 O 0.2025(16) 0.6622(10) 0.3850(9)
O12 O 0.5022(8) 0.2104(5) 0.5865(4)
O15 O 0.0459(17) 0.7482(11) 0.6641(10)
O18 O 0.508(3) 0.451(2) 0.302(2)
loop_
_geom_bond_atom_site_label_1
_geom_bond_atom_site_label_2
_geom_bond_site_symmetry_1
_geom_bond_site_symmetry_2
C1 H1 1_555 1_555
H2 C1 1_555 1_555
C2 C1 1_555 1_555
H3 C2 1_555 1_555
H4 C2 1_555 1_555
C3 C1 1_555 1_555
Pr1 O5 1_555 1_555
Pr2 O19 1_555 1_555
Pr3 O26 1_555 1_555
C4 C5 1_555 1_555
C5 H5 1_555 1_555
H6 C5 1_555 1_555
C6 C5 1_555 1_555
H7 C6 1_555 1_555
H8 C6 1_555 1_555
C7 H9 1_555 1_555
H10 C7 1_555 1_555
C8 C7 1_555 1_555
H11 C8 1_555 1_555
H12 C8 1_555 1_555
C9 C8 1_555 1_555
C10 H13 1_555 1_555
H14 C10 1_555 1_555
C11 C10 1_555 1_555
H15 C11 1_555 1_555
H16 C11 1_555 1_555
C12 C11 1_555 1_555
C13 C14 1_555 1_555
C14 H17 1_555 1_555
H18 C14 1_555 1_555
C15 C14 1_555 1_555
H19 C15 1_555 1_555
H20 C15 1_555 1_555
C16 H21 1_555 1_555
H22 C16 1_555 1_555
C17 C16 1_555 1_555
H23 C17 1_555 1_555
H24 C17 1_555 1_555
C18 C17 1_555 1_555
C19 H25 1_555 1_555
H26 C19 1_555 1_555
C20 C19 1_555 1_555
H27 C20 1_555 1_555
H28 C20 1_555 1_555
C21 C20 1_555 1_555
C22 C23 1_555 1_555
C23 H29 1_555 1_555
H30 C23 1_555 1_555
C24 C23 1_555 1_555
H31 C24 1_555 1_555
H32 C24 1_555 1_555
C25 H33 1_555 1_555
H34 C25 1_555 1_555
C26 C25 1_555 1_555
H35 C26 1_555 1_555
H36 C26 1_555 1_555
C27 C26 1_555 1_555
O5 C4 1_555 1_555
O7 Pr1 1_555 1_555
O9 Pr1 1_555 1_555
O10 Pr1 1_555 1_555
O13 Pr1 1_555 1_555
H37 O13 1_555 1_555
O14 Pr1 1_555 1_555
H38 O14 1_555 1_555
O16 C9 1_555 1_555
O17 Pr1 1_555 1_555
O19 C12 1_555 1_555
O20 Pr2 1_555 1_555
O21 Pr2 1_555 1_555
O22 C12 1_555 1_555
O23 Pr2 1_555 1_555
H39 O23 1_555 1_555
O24 C18 1_555 1_555
O25 Pr2 1_555 1_555
H40 O25 1_555 1_555
O26 C22 1_555 1_555
O27 C4 1_555 1_555
O28 C3 1_555 1_555
O29 C21 1_555 1_555
O30 Pr3 1_555 1_555
H41 O30 1_555 1_555
O31 C3 1_555 1_555
O32 Pr3 1_555 1_555
H42 O32 1_555 1_555
O33 C21 1_555 1_555
O34 C22 1_555 1_555
N1 C6 1_555 1_555
N2 C15 1_555 1_555
N3 C2 1_555 1_555
Pr1A O16 1_555 1_555
Pr2A O19 1_555 1_555
Pr2A_2 O34 1_555 1_555
Pr3A O27 1_555 1_555
Pr3_2 O29 1_555 1_555
Pr3A_2 O31 1_555 1_555
Pr3A_3 O33 1_555 1_555
O16A Pr1 1_555 1_555
O17A Pr1 1_555 1_555
O19A Pr2 1_555 1_555
O22A Pr2 1_555 1_555
O24A Pr2 1_555 1_555
O27A Pr3 1_555 1_555
O29_2 Pr3 1_555 1_555
O31A Pr3 1_555 1_555
O33A Pr3 1_555 1_555
O33_2 Pr3 1_555 1_555
O34A Pr2 1_555 1_555
Pr3 O28 1_555 1_555
C7 N1 1_555 1_555
C9 O7 1_555 1_555
C10 N1 1_555 1_555
C13 O10 1_555 1_555
C13 O20 1_555 1_555
C16 N2 1_555 1_555
C18 O21 1_555 1_555
C19 N2 1_555 1_555
C24 N3 1_555 1_555
C25 N3 1_555 1_555
C27 O9 1_555 1_555
C27 O17 1_555 1_555
O17 Pr1A 1_555 1_555
O22 Pr2A 1_555 1_555
O24 Pr2A 1_555 1_555
O33 Pr3_2 1_555 1_555
Pr1A O17A 1_555 1_555
Pr2A O19A 1_555 1_555
Pr3A_2 O33A 1_555 1_555
Pr3A_2 O33_2 1_555 1_555

#END
