
#######################################################################
#
#                 Cambridge Crystallographic Data Centre
#                                CCDC 
#
#######################################################################
#
# If this CIF has been generated from an entry in the Cambridge 
# Structural Database, then it will include bibliographic, chemical, 
# crystal, experimental, refinement or atomic coordinate data resulting 
# from the CCDC's data processing and validation procedures.
#
#######################################################################

data_PANYEK
_symmetry_cell_setting           orthorhombic
_symmetry_space_group_name_H-M   'C m c 21'
_symmetry_Int_Tables_number      36
_space_group_name_Hall           'C 2n -2'
loop_
_symmetry_equiv_pos_site_id
_symmetry_equiv_pos_as_xyz
1 x,y,z
2 -x,-y,1/2+z
3 -x,y,z
4 x,-y,1/2+z
5 1/2+x,1/2+y,z
6 1/2-x,1/2-y,1/2+z
7 1/2-x,1/2+y,z
8 1/2+x,1/2-y,1/2+z
_cell_length_a                   34.3111(10)
_cell_length_b                   40.5399(11)
_cell_length_c                   20.3265(7)
_cell_angle_alpha                90
_cell_angle_beta                 90
_cell_angle_gamma                90
_cell_volume                     28273.5
loop_
_atom_site_label
_atom_site_type_symbol
_atom_site_fract_x
_atom_site_fract_y
_atom_site_fract_z
C1 C 0.2523(3) -0.0007(2) 0.9662(6)
H1 H 0.2542 -0.0008 1.0119
C2 C 0.2534(3) 0.2484(3) 0.8187(7)
H2 H 0.2552 0.2484 0.7730
C3 C 0.2534(2) -0.0290(2) 0.8630(5)
H3 H 0.2554 -0.0483 0.8386
C4 C 0.0000 -0.2796(3) 0.8027(6)
H4 H 0.0000 -0.2929 0.7655
C5 C 0.0000 -0.0448(3) 0.8061(7)
C6 C 0.0000 0.0025(3) 0.8748(6)
H5 H 0.0000 0.0161 0.8378
C7 C -0.0943(2) -0.0849(2) 0.5169(5)
C8 C 0.0943(2) -0.1604(2) 0.7715(5)
C9 C 0.2520(2) -0.02949(18) 0.9336(4)
C10 C 0.0000 -0.0504(3) 0.9241(6)
H6 H 0.0000 -0.0733 0.9207
C11 C 0.1568(2) -0.1342(2) 0.8081(5)
H7 H 0.1533 -0.1167 0.7793
C12 C -0.1544(3) -0.1128(2) 0.4776(5)
H8 H -0.1497 -0.1306 0.5054
C13 C 0.2517(3) 0.2185(3) 0.8551(7)
C14 C -0.1283(2) -0.0867(2) 0.4750(4)
C15 C 0.2501(3) 0.0285(3) 0.9348(7)
H9 H 0.2478 0.0478 0.9592
C16 C 0.4066(3) 0.1692(2) 0.2706(5)
C17 C 0.1296(2) -0.1587(2) 0.8111(5)
C18 C 0.0000 -0.0305(2) 0.8710(5)
C19 C -0.1368(3) -0.0626(2) 0.4304(5)
H10 H -0.1201 -0.0446 0.4257
C20 C 0.1895(3) -0.1354(2) 0.8478(5)
H11 H 0.2073 -0.1182 0.8453
C21 C 0.1370(3) -0.1845(3) 0.8552(5)
H12 H 0.1195 -0.2019 0.8593
C22 C 0.1587(2) 0.05739(18) 0.6817(4)
C23 C -0.1872(2) -0.1122(2) 0.4387(4)
H13 H -0.2048 -0.1296 0.4430
C24 C 0.0914(3) 0.0388(2) 0.7057(5)
H14 H 0.0939 0.0466 0.7485
C25 C 0.3300(3) 0.1900(2) 0.3910(5)
H15 H 0.3242 0.2076 0.4186
C26 C 0.3719(3) 0.1664(2) 0.3102(5)
C27 C 0.3823(2) 0.2116(2) 0.6211(5)
C28 C 0.3721(2) 0.0928(2) 0.9752(4)
C29 C 0.0000 -0.2922(3) 0.9842(6)
C30 C 0.1225(2) 0.0421(2) 0.6602(4)
C31 C 0.2524(3) 0.2773(2) 0.8542(5)
H16 H 0.2523 0.2969 0.8303
C32 C 0.3470(3) 0.1936(2) 0.6014(5)
C33 C 0.3456(3) 0.1408(2) 0.3059(5)
H17 H 0.3497 0.1236 0.2764
C34 C 0.2508(3) 0.2522(3) 0.9509(6)
H18 H 0.2505 0.2528 0.9966
C35 C -0.1698(3) -0.0645(2) 0.3925(5)
H19 H -0.1746 -0.0477 0.3624
C36 C 0.4063(2) 0.0929(2) 1.0161(4)
C37 C 0.1153(3) 0.0317(2) 0.5988(4)
H20 H 0.1339 0.0352 0.5663
C38 C 0.3474(2) 0.0524(2) 0.6915(5)
C39 C 0.0000 -0.1968(2) 0.4865(5)
C40 C 0.1583(2) 0.1882(2) 0.6043(5)
C41 C 0.1213(3) 0.2044(3) 0.6231(5)
C42 C 0.3127(3) 0.1154(2) 0.9360(4)
H21 H 0.2942 0.1321 0.9387
C43 C 0.1702(3) -0.1838(2) 0.8920(5)
H22 H 0.1745 -0.2012 0.9208
C44 C 0.2522(2) 0.1874(2) 0.8192(6)
C45 C 0.3642(3) 0.0662(2) 0.9349(5)
H23 H 0.3815 0.0485 0.9334
C46 C 0.1181(3) 0.2164(3) 0.6899(6)
H24 H 0.1383 0.2150 0.7202
C47 C 0.25169(19) 0.0018(2) 0.8330(6)
H25 H 0.2509 0.0033 0.7873
C48 C 0.2538(2) -0.0617(2) 0.9637(6)
C49 C 0.3829(3) 0.0330(2) 0.6774(5)
C50 C 0.4457(3) 0.2321(3) 0.6012(6)
H26 H 0.4664 0.2341 0.5720
C51 C 0.3856(3) 0.2226(3) 0.6869(6)
H27 H 0.3660 0.2195 0.7179
C52 C 0.3994(3) 0.0351(3) 0.6160(7)
H28 H 0.3889 0.0486 0.5835
C53 C 0.0907(3) 0.2073(3) 0.5808(6)
H29 H 0.0931 0.1999 0.5376
C54 C 0.3134(3) 0.1409(2) 0.3457(6)
H30 H 0.2962 0.1232 0.3426
C55 C 0.4306(3) -0.0065(3) 0.7033(7)
H31 H 0.4382 -0.0228 0.7327
C56 C 0.4116(4) 0.2146(4) 0.5787(7)
H32 H 0.4102 0.2058 0.5365
C57 C 0.3310(3) 0.0656(2) 0.8971(5)
H33 H 0.3264 0.0474 0.8703
C58 C 0.0805(3) 0.2307(3) 0.7055(5)
H34 H 0.0762 0.2382 0.7481
C59 C 0.4210(3) 0.2388(2) 0.7015(6)
H35 H 0.4247 0.2455 0.7448
C60 C 0.0812(2) 0.0160(2) 0.5823(4)
H36 H 0.0780 0.0082 0.5396
C61 C 0.0582(3) 0.0240(2) 0.6856(5)
H37 H 0.0378 0.0223 0.7154
C62 C 0.0000 -0.2271(4) 0.8467(8)
H38 H 0.0000 -0.2042 0.8428
C63 C 0.0000 -0.2070(3) 0.3024(7)
H39 H 0.0000 -0.1938 0.2650
C64 C 0.0000 0.0150(3) 0.9391(6)
H40 H 0.0000 0.0379 0.9439
C65 C 0.0000 -0.2777(4) 0.9172(7)
C66 C 0.0000 -0.2093(3) 0.4204(7)
C67 C 0.0000 -0.2611(5) 0.3461(9)
H41 H 0.0000 -0.2840 0.3431
C68 C 0.0000 -0.2954(4) 0.8590(10)
H42 H 0.0000 -0.3183 0.8598
C69 C 0.0000 -0.1922(3) 0.3599(8)
H43 H 0.0000 -0.1692 0.3607
C70 C 0.2505(2) 0.2217(2) 0.9213(5)
H44 H 0.2495 0.2029 0.9475
C71 C 0.0000 -0.0336(3) 0.9863(7)
H45 H 0.0000 -0.0462 1.0246
C72 C 0.0565(3) 0.2211(3) 0.6017(6)
H46 H 0.0357 0.2216 0.5723
C73 C 0.3998(3) 0.0136(3) 0.7195(6)
H47 H 0.3907 0.0134 0.7626
C74 C 0.3459(3) 0.1188(2) 0.9728(5)
H48 H 0.3507 0.1382 0.9958
C75 C 0.3635(3) 0.1916(3) 0.3554(5)
H49 H 0.3806 0.2092 0.3609
C76 C 0.4329(4) 0.0160(3) 0.6045(7)
H50 H 0.4441 0.0171 0.5629
C77 C 0.0000 -0.2431(5) 0.4089(12)
H51 H 0.0000 -0.2563 0.4464
C78 C 0.0000 -0.2416(6) 0.9088(13)
H52 H 0.0000 -0.2281 0.9459
Cd1 Cd 0.0000 -0.023300(19) 0.59639(4)
Cd2 Cd 0.0000 -0.12166(2) 0.64474(5)
Cd3 Cd 0.0000 -0.220310(19) 0.69217(4)
Cd4 Cd 0.250921(14) 0.082232(14) 0.82448(3)
Cd5 Cd 0.251770(15) 0.167920(15) 0.46294(3)
Cd6 Cd 0.0000 -0.267980(19) 0.19231(4)
Cd7 Cd 0.256190(12) 0.123480(15) 0.64364(4)
Cd8 Cd 0.5000 0.132460(18) 1.14183(5)
Cd9 Cd 0.5000 0.03812(2) 1.11562(5)
N1 N 0.3050(2) 0.16484(17) 0.3890(4)
N2 N 0.4283(2) 0.19821(19) 0.2671(4)
N3 N 0.45580(19) 0.19135(17) 0.2247(4)
N4 N 0.45349(19) 0.16008(18) 0.2061(4)
N5 N 0.4222(2) 0.14584(17) 0.2325(4)
N6 N 0.1748(2) 0.19327(19) 0.5460(4)
N7 N 0.2067(2) 0.17487(17) 0.5496(4)
N8 N 0.2091(2) 0.15969(18) 0.6051(4)
N9 N 0.1784(2) 0.16878(16) 0.6430(4)
N10 N 0.2558(2) -0.11272(18) 0.9827(4)
N11 N 0.25651(19) -0.09624(18) 1.0397(4)
N12 N 0.2548(2) -0.06520(16) 1.0322(4)
N13 N 0.2548(2) -0.09144(19) 0.9347(4)
N14 N 0.25105(19) 0.03020(15) 0.8703(5)
N15 N 0.4541(2) 0.07457(17) 1.0710(4)
N16 N 0.45248(19) 0.10607(17) 1.0806(4)
N17 N 0.42150(19) 0.11841(17) 1.0463(4)
N18 N 0.4254(2) 0.06478(18) 1.0307(4)
N19 N 0.44952(18) -0.00331(16) 0.6479(4)
N20 N 0.3258(2) 0.04826(16) 0.7461(4)
N21 N 0.29824(19) 0.07075(16) 0.7413(3)
N22 N 0.30153(18) 0.08669(15) 0.6844(3)
N23 N 0.3321(2) 0.07526(16) 0.6532(4)
N24 N 0.3050(2) 0.09038(17) 0.8973(4)
N25 N 0.2060(2) 0.07307(16) 0.7384(3)
N26 N 0.1745(2) 0.05374(18) 0.7401(4)
N27 N 0.20906(19) 0.08632(14) 0.6785(3)
N28 N 0.17985(18) 0.07697(15) 0.6426(4)
N29 N 0.05317(18) 0.01158(16) 0.6248(4)
N30 N -0.1955(2) -0.08925(17) 0.3966(4)
N31 N -0.07429(19) -0.05703(15) 0.5224(4)
N32 N -0.04505(19) -0.06418(16) 0.5630(4)
N33 N -0.04802(19) -0.09451(17) 0.5825(4)
N34 N -0.0783(2) -0.10890(17) 0.5517(4)
N35 N 0.0000 -0.0264(2) 0.7484(5)
N36 N 0.0000 -0.0783(2) 0.7867(6)
N37 N 0.0000 -0.0466(2) 0.6986(5)
N38 N 0.0000 -0.0775(3) 0.7242(6)
N39 N 0.0000 -0.16834(17) 0.5679(4)
N40 N 0.0000 -0.1957(2) 0.5857(5)
N41 N 0.0000 -0.2154(2) 0.5361(5)
N42 N 0.0000 -0.1654(2) 0.4993(5)
N43 N 0.0000 -0.2410(2) 0.2935(5)
N44 N 0.25136(14) 0.13675(14) 0.8002(4)
N45 N 0.25350(17) 0.15210(16) 0.7447(4)
N46 N 0.2546(2) 0.18398(19) 0.7559(5)
N47 N 0.25028(15) 0.15937(17) 0.8494(4)
N48 N 0.2513(2) 0.2800(2) 0.9205(5)
N49 N 0.07912(19) -0.13519(16) 0.7352(4)
N50 N 0.04758(17) -0.14831(15) 0.7082(3)
N51 N 0.04511(18) -0.18041(16) 0.7246(3)
N52 N 0.07341(19) -0.18787(17) 0.7650(4)
N53 N 0.1967(2) -0.16013(19) 0.8897(3)
N54 N 0.3291(2) 0.19732(18) 0.5447(4)
N55 N 0.2987(2) 0.17688(16) 0.5476(4)
N56 N 0.3000(2) 0.16082(17) 0.6018(4)
N57 N 0.3300(2) 0.17118(16) 0.6391(4)
N58 N 0.0000 -0.24671(18) 0.7906(5)
N59 N 0.0000 -0.2708(3) 1.0364(5)
N60 N 0.0000 -0.3218(2) 1.0022(5)
N61 N 0.0000 -0.2930(2) 1.0878(6)
N62 N 0.0000 -0.32548(18) 1.0665(4)
N63 N 0.0509(2) 0.2335(2) 0.6605(4)
N64 N 0.0000 -0.0023(3) 0.9918(6)
N65 N 0.4497(2) 0.24536(18) 0.6591(4)
C22B C -0.1587(2) 0.05739(18) 0.6817(4)
C24B C -0.0914(3) 0.0388(2) 0.7057(5)
H14B H -0.0939 0.0466 0.7485
C30B C -0.1225(2) 0.0421(2) 0.6602(4)
C37B C -0.1153(3) 0.0317(2) 0.5988(4)
H20B H -0.1339 0.0352 0.5663
C60B C -0.0812(2) 0.0160(2) 0.5823(4)
H36B H -0.0780 0.0082 0.5396
C61B C -0.0582(3) 0.0240(2) 0.6856(5)
H37B H -0.0378 0.0223 0.7154
N25B N -0.2060(2) 0.07307(16) 0.7384(3)
N26B N -0.1745(2) 0.05374(18) 0.7401(4)
N27B N -0.20906(19) 0.08632(14) 0.6785(3)
N28B N -0.17985(18) 0.07697(15) 0.6426(4)
N29B N -0.05317(18) 0.01158(16) 0.6248(4)
C7B C 0.0943(2) -0.0849(2) 0.5169(5)
C12B C 0.1544(3) -0.1128(2) 0.4776(5)
H8B H 0.1497 -0.1306 0.5054
C14B C 0.1283(2) -0.0867(2) 0.4750(4)
C19B C 0.1368(3) -0.0626(2) 0.4304(5)
H10B H 0.1201 -0.0446 0.4257
C23B C 0.1872(2) -0.1122(2) 0.4387(4)
H13B H 0.2048 -0.1296 0.4430
C35B C 0.1698(3) -0.0645(2) 0.3925(5)
H19B H 0.1746 -0.0477 0.3624
N30B N 0.1955(2) -0.08925(17) 0.3966(4)
N31B N 0.07429(19) -0.05703(15) 0.5224(4)
N32B N 0.04505(19) -0.06418(16) 0.5630(4)
N33B N 0.04802(19) -0.09451(17) 0.5825(4)
N34B N 0.0783(2) -0.10890(17) 0.5517(4)
Cd4B Cd -0.250921(14) 0.082232(14) 0.82448(3)
Cd7B Cd -0.256190(12) 0.123480(15) 0.64364(4)
C8B C -0.0943(2) -0.1604(2) 0.7715(5)
C11B C -0.1568(2) -0.1342(2) 0.8081(5)
H7B H -0.1533 -0.1167 0.7793
C17B C -0.1296(2) -0.1587(2) 0.8111(5)
C20B C -0.1895(3) -0.1354(2) 0.8478(5)
H11B H -0.2073 -0.1182 0.8453
C21B C -0.1370(3) -0.1845(3) 0.8552(5)
H12B H -0.1195 -0.2019 0.8593
C43B C -0.1702(3) -0.1838(2) 0.8920(5)
H22B H -0.1745 -0.2012 0.9208
N49B N -0.07912(19) -0.13519(16) 0.7352(4)
N50B N -0.04758(17) -0.14831(15) 0.7082(3)
N51B N -0.04511(18) -0.18041(16) 0.7246(3)
N52B N -0.07341(19) -0.18787(17) 0.7650(4)
N53B N -0.1967(2) -0.16013(19) 0.8897(3)
C1C C 0.2523(3) 0.0007(2) 0.4662(6)
H1C H 0.2542 0.0008 0.5119
C3C C 0.2534(2) 0.0290(2) 0.3630(5)
H3C H 0.2554 0.0483 0.3386
C9C C 0.2520(2) 0.02949(18) 0.4336(4)
C15C C 0.2501(3) -0.0285(3) 0.4348(7)
H9C H 0.2478 -0.0478 0.4592
C47C C 0.25169(19) -0.0018(2) 0.3330(6)
H25C H 0.2509 -0.0033 0.2873
C48C C 0.2538(2) 0.0617(2) 0.4637(6)
N10C N 0.2558(2) 0.11272(18) 0.4827(4)
N11C N 0.25651(19) 0.09624(18) 0.5397(4)
N12C N 0.2548(2) 0.06520(16) 0.5322(4)
N13C N 0.2548(2) 0.09144(19) 0.4347(4)
N14C N 0.25105(19) -0.03020(15) 0.3703(5)
C38B C -0.3474(2) 0.0524(2) 0.6915(5)
C49B C -0.3829(3) 0.0330(2) 0.6774(5)
C52B C -0.3994(3) 0.0351(3) 0.6160(7)
H28B H -0.3889 0.0486 0.5835
C55B C -0.4306(3) -0.0065(3) 0.7033(7)
H31B H -0.4382 -0.0228 0.7327
C73B C -0.3998(3) 0.0136(3) 0.7195(6)
H47B H -0.3907 0.0134 0.7626
C76B C -0.4329(4) 0.0160(3) 0.6045(7)
H50B H -0.4441 0.0171 0.5629
N19B N -0.44952(18) -0.00331(16) 0.6479(4)
N20B N -0.3258(2) 0.04826(16) 0.7461(4)
N21B N -0.29824(19) 0.07075(16) 0.7413(3)
N22B N -0.30153(18) 0.08669(15) 0.6844(3)
N23B N -0.3321(2) 0.07526(16) 0.6532(4)
C28B C -0.3721(2) 0.0928(2) 0.9752(4)
C36B C -0.4063(2) 0.0929(2) 1.0161(4)
C42B C -0.3127(3) 0.1154(2) 0.9360(4)
H21B H -0.2942 0.1321 0.9387
C45B C -0.3642(3) 0.0662(2) 0.9349(5)
H23B H -0.3815 0.0485 0.9334
C57B C -0.3310(3) 0.0656(2) 0.8971(5)
H33B H -0.3264 0.0474 0.8703
C74B C -0.3459(3) 0.1188(2) 0.9728(5)
H48B H -0.3507 0.1382 0.9958
N15B N -0.4541(2) 0.07457(17) 1.0710(4)
N16B N -0.45248(19) 0.10607(17) 1.0806(4)
N17B N -0.42150(19) 0.11841(17) 1.0463(4)
N18B N -0.4254(2) 0.06478(18) 1.0307(4)
N24B N -0.3050(2) 0.09038(17) 0.8973(4)
C2B C -0.2534(3) 0.2484(3) 0.8187(7)
H2B H -0.2552 0.2484 0.7730
C13B C -0.2517(3) 0.2185(3) 0.8551(7)
C31B C -0.2524(3) 0.2773(2) 0.8542(5)
H16B H -0.2523 0.2969 0.8303
C34B C -0.2508(3) 0.2522(3) 0.9509(6)
H18B H -0.2505 0.2528 0.9966
C44B C -0.2522(2) 0.1874(2) 0.8192(6)
C70B C -0.2505(2) 0.2217(2) 0.9213(5)
H44B H -0.2495 0.2029 0.9475
N44B N -0.25136(14) 0.13675(14) 0.8002(4)
N45B N -0.25350(17) 0.15210(16) 0.7447(4)
N46B N -0.2546(2) 0.18398(19) 0.7559(5)
N47B N -0.25028(15) 0.15937(17) 0.8494(4)
N48B N -0.2513(2) 0.2800(2) 0.9205(5)
C40B C -0.1583(2) 0.1882(2) 0.6043(5)
C41B C -0.1213(3) 0.2044(3) 0.6231(5)
C46B C -0.1181(3) 0.2164(3) 0.6899(6)
H24B H -0.1383 0.2150 0.7202
C53B C -0.0907(3) 0.2073(3) 0.5808(6)
H29B H -0.0931 0.1999 0.5376
C58B C -0.0805(3) 0.2307(3) 0.7055(5)
H34B H -0.0762 0.2382 0.7481
C72B C -0.0565(3) 0.2211(3) 0.6017(6)
H46B H -0.0357 0.2216 0.5723
N6B N -0.1748(2) 0.19327(19) 0.5460(4)
N7B N -0.2067(2) 0.17487(17) 0.5496(4)
N8B N -0.2091(2) 0.15969(18) 0.6051(4)
N9B N -0.1784(2) 0.16878(16) 0.6430(4)
N63B N -0.0509(2) 0.2335(2) 0.6605(4)
C27B C -0.3823(2) 0.2116(2) 0.6211(5)
C32B C -0.3470(3) 0.1936(2) 0.6014(5)
C50B C -0.4457(3) 0.2321(3) 0.6012(6)
H26B H -0.4664 0.2341 0.5720
C51B C -0.3856(3) 0.2226(3) 0.6869(6)
H27B H -0.3660 0.2195 0.7179
C56B C -0.4116(4) 0.2146(4) 0.5787(7)
H32B H -0.4102 0.2058 0.5365
C59B C -0.4210(3) 0.2388(2) 0.7015(6)
H35B H -0.4247 0.2455 0.7448
N54B N -0.3291(2) 0.19732(18) 0.5447(4)
N55B N -0.2987(2) 0.17688(16) 0.5476(4)
N56B N -0.3000(2) 0.16082(17) 0.6018(4)
N57B N -0.3300(2) 0.17118(16) 0.6391(4)
N65B N -0.4497(2) 0.24536(18) 0.6591(4)
Cd5B Cd -0.251770(15) 0.167920(15) 0.46294(3)
C16F C 0.0934(3) -0.3308(2) 0.2706(5)
C25F C 0.1700(3) -0.3100(2) 0.3910(5)
H15F H 0.1758 -0.2924 0.4186
C26F C 0.1281(3) -0.3336(2) 0.3102(5)
C33F C 0.1544(3) -0.3592(2) 0.3059(5)
H17F H 0.1503 -0.3764 0.2764
C54F C 0.1866(3) -0.3591(2) 0.3457(6)
H30F H 0.2038 -0.3768 0.3426
C75F C 0.1365(3) -0.3084(3) 0.3554(5)
H49F H 0.1194 -0.2908 0.3609
N1F N 0.1950(2) -0.33516(17) 0.3890(4)
N2F N 0.0717(2) -0.30179(19) 0.2671(4)
N3F N 0.04420(19) -0.30865(17) 0.2247(4)
N4F N 0.04651(19) -0.33992(18) 0.2061(4)
N5F N 0.0778(2) -0.35416(17) 0.2325(4)
N64A N 0.0000 0.0023(3) 0.4918(6)
N65D N -0.0503(2) -0.25464(18) 0.6591(4)
N65F N 0.0503(2) -0.25464(18) 0.6591(4)
N30A N 0.1955(2) 0.08925(17) 0.8966(4)
N48E N 0.2487(2) 0.2200(2) 0.4205(5)
N53C N 0.1967(2) 0.16013(19) 0.3897(3)
N61_2 N 0.0000 -0.2930(2) 0.0878(6)
N63C N 0.0509(2) -0.2335(2) 0.1605(4)
N3D N -0.04420(19) -0.30865(17) 0.2247(4)
N63A N -0.0509(2) -0.2335(2) 0.1605(4)
N4B N 0.54651(19) 0.16008(18) 1.2061(4)
N62D N 0.5000 0.17452(18) 1.0665(4)
N4_2 N 0.45349(19) 0.16008(18) 1.2061(4)
N16B_2 N 0.54752(19) 0.10607(17) 1.0806(4)
N15B_2 N 0.5459(2) 0.07457(17) 1.0710(4)
N19C N 0.44952(18) 0.00331(16) 1.1479(4)
N19A N 0.55048(18) 0.00331(16) 1.1479(4)
Cd6F Cd 0.5000 0.232020(19) 0.19231(4)
Cd8B Cd 0.5000 0.132460(18) 0.14183(5)
Cd5C Cd 0.251770(15) -0.167920(15) 0.96294(3)
Cd7C Cd 0.256190(12) -0.123480(15) 1.14364(4)
Cd9C Cd 0.5000 -0.03812(2) 0.61562(5)
Cd4A Cd -0.250921(14) -0.082232(14) 0.32448(3)
Cd5E Cd 0.248230(15) 0.332080(15) 0.96294(3)
Cd6_2 Cd 0.0000 -0.267980(19) 1.19231(4)
Cd8D Cd 0.0000 -0.367540(18) 1.14183(5)
Cd6C Cd 0.0000 0.267980(19) 0.69231(4)
Cd1A Cd 0.0000 0.023300(19) 1.09639(4)
Cd3D Cd 0.5000 0.279690(19) 0.69217(4)
Cd4C Cd 0.250921(14) -0.082232(14) 0.32448(3)
N14B N -0.25105(19) 0.03020(15) 0.8703(5)
N30C N -0.1955(2) 0.08925(17) 0.8966(4)
N11A N -0.25651(19) 0.09624(18) 0.5397(4)
Cd5A Cd -0.251770(15) -0.167920(15) 0.96294(3)
Cd9A Cd -0.5000 -0.03812(2) 0.61562(5)
Cd9B Cd -0.5000 0.03812(2) 1.11562(5)
Cd8B_2 Cd -0.5000 0.132460(18) 1.14183(5)
Cd5G Cd -0.248230(15) 0.332080(15) 0.96294(3)
Cd3F Cd -0.5000 0.279690(19) 0.69217(4)
N1B N -0.3050(2) 0.16484(17) 0.3890(4)
N10A N -0.2558(2) 0.11272(18) 0.4827(4)
N48G N -0.2487(2) 0.2200(2) 0.4205(5)
N53A N -0.1967(2) 0.16013(19) 0.3897(3)
Cd5F Cd 0.248230(15) -0.332080(15) 0.46294(3)
Cd8D_2 Cd 0.0000 -0.367540(18) 0.14183(5)
loop_
_geom_bond_atom_site_label_1
_geom_bond_atom_site_label_2
_geom_bond_site_symmetry_1
_geom_bond_site_symmetry_2
C1 H1 1_555 1_555
C2 H2 1_555 1_555
C3 H3 1_555 1_555
C4 H4 1_555 1_555
C5 C18 1_555 1_555
C6 H5 1_555 1_555
C7 C14 1_555 1_555
C8 C17 1_555 1_555
C9 C1 1_555 1_555
C10 H6 1_555 1_555
C11 H7 1_555 1_555
C12 H8 1_555 1_555
C13 C2 1_555 1_555
C14 C12 1_555 1_555
C15 C1 1_555 1_555
H9 C15 1_555 1_555
C16 C26 1_555 1_555
C17 C11 1_555 1_555
C18 C6 1_555 1_555
C19 C14 1_555 1_555
H10 C19 1_555 1_555
C20 C11 1_555 1_555
H11 C20 1_555 1_555
C21 C17 1_555 1_555
H12 C21 1_555 1_555
C22 C30 1_555 1_555
C23 C12 1_555 1_555
H13 C23 1_555 1_555
C24 H14 1_555 1_555
C25 H15 1_555 1_555
C26 C33 1_555 1_555
C27 C32 1_555 1_555
C28 C36 1_555 1_555
C29 C65 1_555 1_555
C30 C24 1_555 1_555
C31 C2 1_555 1_555
H16 C31 1_555 1_555
C32 N54 1_555 1_555
C33 H17 1_555 1_555
C34 H18 1_555 1_555
C35 C19 1_555 1_555
H19 C35 1_555 1_555
C36 N17 1_555 1_555
C37 C30 1_555 1_555
H20 C37 1_555 1_555
C38 C49 1_555 1_555
C39 C66 1_555 1_555
C40 C41 1_555 1_555
C41 C46 1_555 1_555
C42 H21 1_555 1_555
C43 C21 1_555 1_555
H22 C43 1_555 1_555
C44 C13 1_555 1_555
C45 C28 1_555 1_555
H23 C45 1_555 1_555
C46 H24 1_555 1_555
C47 C3 1_555 1_555
H25 C47 1_555 1_555
C48 C9 1_555 1_555
C49 C52 1_555 1_555
C50 H26 1_555 1_555
C51 C27 1_555 1_555
H27 C51 1_555 1_555
C52 H28 1_555 1_555
C53 C41 1_555 1_555
H29 C53 1_555 1_555
C54 C33 1_555 1_555
H30 C54 1_555 1_555
C55 H31 1_555 1_555
C56 C27 1_555 1_555
H32 C56 1_555 1_555
C57 C45 1_555 1_555
H33 C57 1_555 1_555
C58 C46 1_555 1_555
H34 C58 1_555 1_555
C59 C51 1_555 1_555
H35 C59 1_555 1_555
C60 C37 1_555 1_555
H36 C60 1_555 1_555
C61 C24 1_555 1_555
H37 C61 1_555 1_555
C62 H38 1_555 1_555
C63 H39 1_555 1_555
C64 C6 1_555 1_555
H40 C64 1_555 1_555
C65 C68 1_555 1_555
C66 C69 1_555 1_555
C67 H41 1_555 1_555
C68 C4 1_555 1_555
H42 C68 1_555 1_555
C69 C63 1_555 1_555
H43 C69 1_555 1_555
C70 C13 1_555 1_555
H44 C70 1_555 1_555
C71 C10 1_555 1_555
H45 C71 1_555 1_555
C72 C53 1_555 1_555
H46 C72 1_555 1_555
C73 C49 1_555 1_555
H47 C73 1_555 1_555
C74 C28 1_555 1_555
H48 C74 1_555 1_555
C75 C25 1_555 1_555
H49 C75 1_555 1_555
C76 C52 1_555 1_555
H50 C76 1_555 1_555
C77 C66 1_555 1_555
H51 C77 1_555 1_555
C78 C62 1_555 1_555
H52 C78 1_555 1_555
Cd1 N29 1_555 1_555
Cd2 N33 1_555 1_555
Cd3 N40 1_555 1_555
Cd4 N14 1_555 1_555
Cd5 N1 1_555 1_555
Cd6 N43 1_555 1_555
Cd7 N8 1_555 1_555
Cd8 N16 1_555 1_555
Cd9 N15 1_555 1_555
N1 C25 1_555 1_555
N2 C16 1_555 1_555
N3 N2 1_555 1_555
N4 N3 1_555 1_555
N5 C16 1_555 1_555
N6 C40 1_555 1_555
N7 Cd5 1_555 1_555
N8 N7 1_555 1_555
N9 C40 1_555 1_555
N10 N11 1_555 1_555
N11 N12 1_555 1_555
N12 C48 1_555 1_555
N13 C48 1_555 1_555
N14 C15 1_555 1_555
N15 N16 1_555 1_555
N16 N17 1_555 1_555
N18 C36 1_555 1_555
N19 C55 1_555 1_555
N20 C38 1_555 1_555
N21 Cd4 1_555 1_555
N22 Cd7 1_555 1_555
N23 C38 1_555 1_555
N24 C42 1_555 1_555
N25 Cd4 1_555 1_555
N26 C22 1_555 1_555
N27 Cd7 1_555 1_555
N28 C22 1_555 1_555
N29 C60 1_555 1_555
N30 C23 1_555 1_555
N31 C7 1_555 1_555
N32 Cd1 1_555 1_555
N33 N32 1_555 1_555
N34 C7 1_555 1_555
N35 C5 1_555 1_555
N36 C5 1_555 1_555
N37 Cd1 1_555 1_555
N38 Cd2 1_555 1_555
N39 Cd2 1_555 1_555
N40 N39 1_555 1_555
N41 C39 1_555 1_555
N42 C39 1_555 1_555
N43 C63 1_555 1_555
N44 Cd4 1_555 1_555
N45 Cd7 1_555 1_555
N46 C44 1_555 1_555
N47 C44 1_555 1_555
N48 C31 1_555 1_555
N49 C8 1_555 1_555
N50 Cd2 1_555 1_555
N51 Cd3 1_555 1_555
N52 C8 1_555 1_555
N53 C20 1_555 1_555
N54 N55 1_555 1_555
N55 Cd5 1_555 1_555
N56 Cd7 1_555 1_555
N57 C32 1_555 1_555
N58 C4 1_555 1_555
N59 C29 1_555 1_555
N60 C29 1_555 1_555
N61 N59 1_555 1_555
N62 N60 1_555 1_555
N63 C58 1_555 1_555
N64 C64 1_555 1_555
N65 C50 1_555 1_555
C22B C30B 1_555 1_555
C24B H14B 1_555 1_555
C30B C24B 1_555 1_555
C37B C30B 1_555 1_555
H20B C37B 1_555 1_555
C60B C37B 1_555 1_555
H36B C60B 1_555 1_555
C61B C24B 1_555 1_555
H37B C61B 1_555 1_555
N25B N26B 1_555 1_555
N26B C22B 1_555 1_555
N27B N25B 1_555 1_555
N28B C22B 1_555 1_555
N29B Cd1 1_555 1_555
C7B C14B 1_555 1_555
C12B H8B 1_555 1_555
C14B C12B 1_555 1_555
C19B C14B 1_555 1_555
H10B C19B 1_555 1_555
C23B C12B 1_555 1_555
H13B C23B 1_555 1_555
C35B C19B 1_555 1_555
H19B C35B 1_555 1_555
N30B C23B 1_555 1_555
N31B C7B 1_555 1_555
N32B Cd1 1_555 1_555
N33B Cd2 1_555 1_555
N34B C7B 1_555 1_555
Cd4B N25B 1_555 1_555
Cd7B N27B 1_555 1_555
C8B C17B 1_555 1_555
C11B H7B 1_555 1_555
C17B C11B 1_555 1_555
C20B C11B 1_555 1_555
H11B C20B 1_555 1_555
C21B C17B 1_555 1_555
H12B C21B 1_555 1_555
C43B C21B 1_555 1_555
H22B C43B 1_555 1_555
N49B C8B 1_555 1_555
N50B Cd2 1_555 1_555
N51B Cd3 1_555 1_555
N52B C8B 1_555 1_555
N53B C20B 1_555 1_555
C1C H1C 1_555 1_555
C3C H3C 1_555 1_555
C9C C1C 1_555 1_555
C15C C1C 1_555 1_555
H9C C15C 1_555 1_555
C47C C3C 1_555 1_555
H25C C47C 1_555 1_555
C48C C9C 1_555 1_555
N10C Cd5 1_555 1_555
N11C Cd7 1_555 1_555
N12C C48C 1_555 1_555
N13C C48C 1_555 1_555
N14C C15C 1_555 1_555
C38B C49B 1_555 1_555
C49B C52B 1_555 1_555
C52B H28B 1_555 1_555
C55B H31B 1_555 1_555
C73B C49B 1_555 1_555
H47B C73B 1_555 1_555
C76B C52B 1_555 1_555
H50B C76B 1_555 1_555
N19B C55B 1_555 1_555
N20B C38B 1_555 1_555
N21B Cd4B 1_555 1_555
N22B Cd7B 1_555 1_555
N23B C38B 1_555 1_555
C28B C36B 1_555 1_555
C36B N17B 1_555 1_555
C42B H21B 1_555 1_555
C45B C28B 1_555 1_555
H23B C45B 1_555 1_555
C57B C45B 1_555 1_555
H33B C57B 1_555 1_555
C74B C28B 1_555 1_555
H48B C74B 1_555 1_555
N15B N16B 1_555 1_555
N16B N17B 1_555 1_555
N18B C36B 1_555 1_555
N24B Cd4B 1_555 1_555
C2B H2B 1_555 1_555
C13B C2B 1_555 1_555
C31B C2B 1_555 1_555
H16B C31B 1_555 1_555
C34B H18B 1_555 1_555
C44B C13B 1_555 1_555
C70B C13B 1_555 1_555
H44B C70B 1_555 1_555
N44B Cd4B 1_555 1_555
N45B Cd7B 1_555 1_555
N46B C44B 1_555 1_555
N47B C44B 1_555 1_555
N48B C31B 1_555 1_555
C40B C41B 1_555 1_555
C41B C46B 1_555 1_555
C46B H24B 1_555 1_555
C53B C41B 1_555 1_555
H29B C53B 1_555 1_555
C58B C46B 1_555 1_555
H34B C58B 1_555 1_555
C72B C53B 1_555 1_555
H46B C72B 1_555 1_555
N6B C40B 1_555 1_555
N7B N6B 1_555 1_555
N8B Cd7B 1_555 1_555
N9B C40B 1_555 1_555
N63B C58B 1_555 1_555
C27B C32B 1_555 1_555
C32B N54B 1_555 1_555
C50B H26B 1_555 1_555
C51B C27B 1_555 1_555
H27B C51B 1_555 1_555
C56B C27B 1_555 1_555
H32B C56B 1_555 1_555
C59B C51B 1_555 1_555
H35B C59B 1_555 1_555
N54B N55B 1_555 1_555
N55B N56B 1_555 1_555
N56B Cd7B 1_555 1_555
N57B C32B 1_555 1_555
N65B C50B 1_555 1_555
Cd5B N7B 1_555 1_555
C16F C26F 1_555 1_555
C25F H15F 1_555 1_555
C26F C33F 1_555 1_555
C33F H17F 1_555 1_555
C54F C33F 1_555 1_555
H30F C54F 1_555 1_555
C75F C25F 1_555 1_555
H49F C75F 1_555 1_555
N1F C25F 1_555 1_555
N2F C16F 1_555 1_555
N3F Cd6 1_555 1_555
N4F N3F 1_555 1_555
N5F C16F 1_555 1_555
N64A Cd1 1_555 1_555
N65D Cd3 1_555 1_555
N65F Cd3 1_555 1_555
N30A Cd4 1_555 1_555
N48E Cd5 1_555 1_555
N53C Cd5 1_555 1_555
N61_2 Cd6 1_555 1_555
N63C Cd6 1_555 1_555
N3D Cd6 1_555 1_555
N63A Cd6 1_555 1_555
N4B Cd8 1_555 1_555
N62D Cd8 1_555 1_555
N4_2 Cd8 1_555 1_555
N16B_2 Cd8 1_555 1_555
N15B_2 Cd9 1_555 1_555
N19C Cd9 1_555 1_555
N19A Cd9 1_555 1_555
Cd6F N3 1_555 1_555
Cd8B N4 1_555 1_555
Cd5C N10 1_555 1_555
Cd7C N11 1_555 1_555
Cd9C N19 1_555 1_555
Cd4A N30 1_555 1_555
Cd5E N48 1_555 1_555
Cd6_2 N61 1_555 1_555
Cd8D N62 1_555 1_555
Cd6C N63 1_555 1_555
Cd1A N64 1_555 1_555
Cd3D N65 1_555 1_555
Cd4C N30B 1_555 1_555
N14B Cd4B 1_555 1_555
N30C Cd4B 1_555 1_555
N11A Cd7B 1_555 1_555
Cd5A N53B 1_555 1_555
Cd9A N19B 1_555 1_555
Cd9B N15B 1_555 1_555
Cd8B_2 N16B 1_555 1_555
Cd5G N48B 1_555 1_555
Cd3F N65B 1_555 1_555
N1B Cd5B 1_555 1_555
N10A Cd5B 1_555 1_555
N48G Cd5B 1_555 1_555
N53A Cd5B 1_555 1_555
Cd5F N1F 1_555 1_555
Cd8D_2 N4F 1_555 1_555
C3 C9 1_555 1_555
C10 C18 1_555 1_555
C26 C75 1_555 1_555
C34 C70 1_555 1_555
C34 N48 1_555 1_555
C35 N30 1_555 1_555
C42 C74 1_555 1_555
C43 N53 1_555 1_555
C47 N14 1_555 1_555
C50 C56 1_555 1_555
C54 N1 1_555 1_555
C55 C73 1_555 1_555
C57 N24 1_555 1_555
C59 N65 1_555 1_555
C61 N29 1_555 1_555
C62 N58 1_555 1_555
C65 C78 1_555 1_555
C67 N43 1_555 1_555
C67 C77 1_555 1_555
C71 N64 1_555 1_555
C72 N63 1_555 1_555
C76 N19 1_555 1_555
Cd3 N58 1_555 1_555
Cd4 N24 1_555 1_555
N4 N5 1_555 1_555
N6 N7 1_555 1_555
N8 N9 1_555 1_555
N10 N13 1_555 1_555
N15 N18 1_555 1_555
N20 N21 1_555 1_555
N21 N22 1_555 1_555
N22 N23 1_555 1_555
N25 N26 1_555 1_555
N25 N27 1_555 1_555
N27 N28 1_555 1_555
N31 N32 1_555 1_555
N33 N34 1_555 1_555
N35 N37 1_555 1_555
N36 N38 1_555 1_555
N37 N38 1_555 1_555
N39 N42 1_555 1_555
N40 N41 1_555 1_555
N44 N45 1_555 1_555
N44 N47 1_555 1_555
N45 N46 1_555 1_555
N49 N50 1_555 1_555
N50 N51 1_555 1_555
N51 N52 1_555 1_555
N53 Cd5C 1_555 1_555
N55 N56 1_555 1_555
N56 N57 1_555 1_555
N61 N62 1_555 1_555
C60B N29B 1_555 1_555
C61B N29B 1_555 1_555
N27B N28B 1_555 1_555
C35B N30B 1_555 1_555
N31B N32B 1_555 1_555
N32B N33B 1_555 1_555
N33B N34B 1_555 1_555
C43B N53B 1_555 1_555
N49B N50B 1_555 1_555
N50B N51B 1_555 1_555
N51B N52B 1_555 1_555
C3C C9C 1_555 1_555
C47C N14C 1_555 1_555
N10C N13C 1_555 1_555
N10C N11C 1_555 1_555
N11C N12C 1_555 1_555
N14C Cd4C 1_555 1_555
C55B C73B 1_555 1_555
C76B N19B 1_555 1_555
N20B N21B 1_555 1_555
N21B N22B 1_555 1_555
N22B N23B 1_555 1_555
C42B N24B 1_555 1_555
C42B C74B 1_555 1_555
C57B N24B 1_555 1_555
N15B N18B 1_555 1_555
C34B C70B 1_555 1_555
C34B N48B 1_555 1_555
N44B N47B 1_555 1_555
N44B N45B 1_555 1_555
N45B N46B 1_555 1_555
C72B N63B 1_555 1_555
N7B N8B 1_555 1_555
N8B N9B 1_555 1_555
N63B Cd6C 1_555 1_555
C50B C56B 1_555 1_555
C59B N65B 1_555 1_555
N55B Cd5B 1_555 1_555
N56B N57B 1_555 1_555
C26F C75F 1_555 1_555
C54F N1F 1_555 1_555
N2F N3F 1_555 1_555
N4F N5F 1_555 1_555
N16B_2 N15B_2 1_555 1_555
N11A N10A 1_555 1_555

#END
