
#######################################################################
#
#                 Cambridge Crystallographic Data Centre
#                                CCDC 
#
#######################################################################
#
# If this CIF has been generated from an entry in the Cambridge 
# Structural Database, then it will include bibliographic, chemical, 
# crystal, experimental, refinement or atomic coordinate data resulting 
# from the CCDC's data processing and validation procedures.
#
#######################################################################

data_PARKUQ01
_symmetry_cell_setting           monoclinic
_symmetry_space_group_name_H-M   'P 21/n'
_symmetry_Int_Tables_number      14
_space_group_name_Hall           '-P 2yn'
loop_
_symmetry_equiv_pos_site_id
_symmetry_equiv_pos_as_xyz
1 x,y,z
2 1/2-x,1/2+y,1/2-z
3 -x,-y,-z
4 1/2+x,1/2-y,1/2+z
_cell_length_a                   10.099(2)
_cell_length_b                   14.363(3)
_cell_length_c                   12.975(3)
_cell_angle_alpha                90
_cell_angle_beta                 105.69(3)
_cell_angle_gamma                90
_cell_volume                     1811.92
loop_
_atom_site_label
_atom_site_type_symbol
_atom_site_fract_x
_atom_site_fract_y
_atom_site_fract_z
C1 C 0.5847(5) 0.0826(4) 0.6900(5)
H1 H 0.6272 0.0937 0.6333
H2 H 0.5851 0.0170 0.7044
H3 H 0.6348 0.1149 0.7533
N1 N 0.4411(4) 0.1168(3) 0.6574(3)
H4 H 0.3963 0.0890 0.5957
H5 H 0.3989 0.1004 0.7076
C2 C 0.4314(5) 0.2186(3) 0.6427(4)
H6 H 0.4691 0.2487 0.7103
H7 H 0.3366 0.2361 0.6150
H8 H 0.4820 0.2372 0.5933
O1 O 0.3037(3) 0.09868(19) 0.4316(2)
O2 O 0.4527(3) 0.44141(19) 0.1676(2)
O3 O 0.6004(3) 0.36318(19) 0.0969(2)
C3 C 0.5299(4) 0.3744(3) 0.1626(3)
O4 O 0.7812(3) 0.04277(19) 0.4428(2)
Cd1 Cd 1.09120(2) 0.066277(15) 0.439469(18)
O5 O 0.8952(2) 0.13801(18) 0.3620(2)
C4 C 0.6552(4) 0.2428(2) 0.2771(3)
C5 C 0.5444(4) 0.1480(2) 0.3802(3)
C6 C 0.6612(3) 0.1692(2) 0.3472(3)
C7 C 0.4226(4) 0.2751(3) 0.2778(3)
C8 C 0.5372(3) 0.2966(2) 0.2426(3)
C9 C 0.4252(3) 0.1993(3) 0.3449(3)
C10 C 0.7898(4) 0.1118(2) 0.3870(3)
C11 C 0.2962(4) 0.1697(3) 0.3741(3)
O6 O 0.1890(3) 0.2131(3) 0.3409(3)
H9 H 0.344(4) 0.310(2) 0.255(3)
H10 H 0.543(4) 0.093(3) 0.427(3)
H11 H 0.730(3) 0.254(2) 0.253(3)
O1_2 O 1.3037(3) 0.09868(19) 0.4316(2)
O2A O 1.0473(3) -0.05859(19) 0.3324(2)
O3C O 1.1004(3) 0.13682(19) 0.5969(2)
O4B O 1.2188(3) -0.04277(19) 0.5572(2)
Cd1_2 Cd 0.09120(2) 0.066277(15) 0.439469(18)
Cd1A Cd 0.40880(2) 0.566277(15) 0.060531(18)
Cd1B Cd 0.90880(2) -0.066277(15) 0.560531(18)
Cd1C Cd 0.59120(2) 0.433723(15) -0.060531(18)
O6_2 O 1.1890(3) 0.2131(3) 0.3409(3)
O7 O 0.8678(6) 0.4536(3) 0.3318(4)
N2 N 0.7702(8) 0.4491(5) 0.4640(5)
C12 C 0.8620(9) 0.4210(5) 0.4234(8)
C13 C 0.9670(8) 0.3502(5) 0.4823(6)
H12 H 1.0210 0.3768 0.5482
H13 H 1.0262 0.3333 0.4386
H14 H 0.9204 0.2958 0.4975
C14 C 0.6722(8) 0.5215(6) 0.4057(6)
H15 H 0.6978 0.5404 0.3428
H16 H 0.6748 0.5744 0.4514
H17 H 0.5808 0.4962 0.3853
C15 C 0.7510(12) 0.4100(8) 0.5639(7)
H18 H 0.8369 0.3855 0.6065
H19 H 0.6840 0.3610 0.5472
H20 H 0.7197 0.4580 0.6032
loop_
_geom_bond_atom_site_label_1
_geom_bond_atom_site_label_2
_geom_bond_site_symmetry_1
_geom_bond_site_symmetry_2
C1 H1 1_555 1_555
H2 C1 1_555 1_555
H3 C1 1_555 1_555
N1 C1 1_555 1_555
H4 N1 1_555 1_555
H5 N1 1_555 1_555
C2 N1 1_555 1_555
H6 C2 1_555 1_555
H7 C2 1_555 1_555
H8 C2 1_555 1_555
O1 C11 1_555 1_555
O2 C3 1_555 1_555
O3 C3 1_555 1_555
C3 C8 1_555 1_555
O4 C10 1_555 1_555
Cd1 O5 1_555 1_555
O5 C10 1_555 1_555
C4 C6 1_555 1_555
C5 C6 1_555 1_555
C6 C10 1_555 1_555
C7 C8 1_555 1_555
C8 C4 1_555 1_555
C9 C5 1_555 1_555
C11 C9 1_555 1_555
O6 C11 1_555 1_555
H9 C7 1_555 1_555
H10 C5 1_555 1_555
H11 C4 1_555 1_555
O7 C12 1_555 1_555
N2 C12 1_555 1_555
C12 C13 1_555 1_555
C13 H12 1_555 1_555
H13 C13 1_555 1_555
H14 C13 1_555 1_555
C14 N2 1_555 1_555
H15 C14 1_555 1_555
H16 C14 1_555 1_555
H17 C14 1_555 1_555
C15 N2 1_555 1_555
H18 C15 1_555 1_555
H19 C15 1_555 1_555
H20 C15 1_555 1_555
O1_2 Cd1 1_555 1_555
O2A Cd1 1_555 1_555
O3C Cd1 1_555 1_555
O4B Cd1 1_555 1_555
Cd1_2 O1 1_555 1_555
Cd1A O2 1_555 1_555
Cd1B O4 1_555 1_555
Cd1C O3 1_555 1_555
O6_2 Cd1 1_555 1_555
C7 C9 1_555 1_555
O6 Cd1_2 1_555 1_555

#END
