
#######################################################################
#
#                 Cambridge Crystallographic Data Centre
#                                CCDC 
#
#######################################################################
#
# If this CIF has been generated from an entry in the Cambridge 
# Structural Database, then it will include bibliographic, chemical, 
# crystal, experimental, refinement or atomic coordinate data resulting 
# from the CCDC's data processing and validation procedures.
#
#######################################################################

data_PASQAD
_symmetry_cell_setting           triclinic
_symmetry_space_group_name_H-M   'P -1'
_symmetry_Int_Tables_number      2
_space_group_name_Hall           '-P 1'
loop_
_symmetry_equiv_pos_site_id
_symmetry_equiv_pos_as_xyz
1 x,y,z
2 -x,-y,-z
_cell_length_a                   12.7609(6)
_cell_length_b                   12.7682(6)
_cell_length_c                   16.0315(7)
_cell_angle_alpha                87.646(4)
_cell_angle_beta                 72.508(4)
_cell_angle_gamma                60.477(5)
_cell_volume                     2149.71
loop_
_atom_site_label
_atom_site_type_symbol
_atom_site_fract_x
_atom_site_fract_y
_atom_site_fract_z
Mn1 Mn 0.5000 0.5000 0.5000
Mn2 Mn 0.54319(4) 0.25865(4) 0.41249(3)
Mn3 Mn -0.35282(4) 0.23515(4) 1.21056(3)
S1 S 0.07756(8) 1.01329(7) 0.29621(7)
S2 S 1.11891(7) 0.49597(7) 0.31185(5)
S3 S 0.28124(8) 0.20477(8) 0.97368(5)
O1 O 0.4551(2) 0.3979(2) 0.59213(15)
O2 O 0.66855(19) 0.33565(18) 0.41330(14)
O3 O 0.42344(19) 0.45647(17) 0.40585(14)
O4 O 0.7013(2) 1.0898(2) 0.36850(18)
O5 O 0.4459(2) 1.2185(2) 0.34992(16)
O6 O 0.4707(3) 0.2325(2) 0.53971(15)
O7 O -0.2945(2) 0.2545(2) 1.08018(14)
O8 O 0.7669(2) 1.0544(2) 0.22227(18)
O9 O 0.7446(2) 0.2915(2) 0.26709(14)
O10 O 0.5085(2) 1.1931(2) 0.20341(16)
O11 O 0.4892(2) 0.41874(19) 0.25953(15)
O12 O -0.3330(3) 0.4214(3) 1.0190(2)
O13 O 0.0561(2) 1.0189(2) 0.21300(18)
O14 O -0.0280(2) 1.0691(2) 0.37623(18)
O15 O 1.1503(2) 0.48014(19) 0.39187(15)
O16 O 1.2192(2) 0.44357(19) 0.22877(15)
O17 O 0.2735(2) 0.2941(2) 1.03058(14)
O18 O 0.3587(2) 0.0789(2) 0.98022(16)
C1 C 0.4404(3) 1.1910(3) 0.2778(2)
C2 C 0.3453(3) 1.1525(3) 0.2821(2)
C3 C 0.3451(3) 1.1061(3) 0.2058(2)
H1 H 0.4011 1.1023 0.1515
C4 C 0.2618(3) 1.0653(3) 0.2102(2)
H2 H 0.2619 1.0332 0.1592
C5 C 0.1791(3) 1.0725(3) 0.2902(2)
C6 C 0.1753(3) 1.1214(3) 0.3670(2)
H3 H 0.1170 1.1277 0.4209
C7 C 0.2599(3) 1.1604(3) 0.3620(2)
H4 H 0.2594 1.1927 0.4132
C8 C 0.1751(3) 0.8587(3) 0.3069(2)
C9 C 0.2525(3) 0.7762(3) 0.2321(2)
H5 H 0.2514 0.8004 0.1767
C10 C 0.3323(3) 0.6563(3) 0.2404(2)
H6 H 0.3852 0.6000 0.1901
C11 C 0.3339(3) 0.6198(3) 0.3227(2)
C12 C 0.2560(3) 0.7054(3) 0.3963(2)
H7 H 0.2574 0.6822 0.4518
C13 C 0.1756(3) 0.8251(3) 0.3890(2)
H8 H 0.1229 0.8818 0.4391
C14 C 0.4218(3) 0.4892(3) 0.3292(2)
C15 C 0.7443(3) 0.3289(3) 0.3373(2)
C16 C 0.8393(3) 0.3684(3) 0.3318(2)
C17 C 0.8354(3) 0.4257(3) 0.4053(2)
H9 H 0.7738 0.4395 0.4593
C18 C 0.9228(3) 0.4622(3) 0.3986(2)
H10 H 0.9204 0.5001 0.4480
C19 C 1.0131(3) 0.4424(3) 0.3187(2)
C20 C 1.0193(3) 0.3851(3) 0.2443(2)
H11 H 1.0811 0.3712 0.1904
C21 C 0.9308(3) 0.3488(3) 0.2523(2)
H12 H 0.9334 0.3105 0.2030
C22 C 1.0241(3) 0.6524(3) 0.3082(2)
C23 C 0.9462(4) 0.7302(3) 0.3849(2)
H13 H 0.9481 0.7022 0.4392
C24 C 0.8650(4) 0.8505(3) 0.3807(2)
H14 H 0.8110 0.9035 0.4325
C25 C 0.8633(3) 0.8926(3) 0.3003(2)
C26 C 0.9454(3) 0.8141(3) 0.2240(2)
H15 H 0.9464 0.8423 0.1695
C27 C 1.0261(3) 0.6938(3) 0.2282(2)
H16 H 1.0819 0.6409 0.1766
C28 C 0.7708(3) 1.0230(3) 0.2964(3)
C29 C -0.2602(3) 0.3270(3) 1.0418(2)
C30 C -0.1247(3) 0.2942(3) 1.0247(2)
C31 C -0.0372(3) 0.1835(3) 1.0412(2)
H17 H -0.0628 0.1287 1.0641
C32 C 0.0874(3) 0.1531(3) 1.0242(2)
H18 H 0.1460 0.0777 1.0346
C33 C 0.1245(3) 0.2357(3) 0.9916(2)
C34 C 0.0378(3) 0.3476(3) 0.9753(2)
H19 H 0.0635 0.4027 0.9533
C35 C -0.0866(3) 0.3772(3) 0.9917(2)
H20 H -0.1450 0.4522 0.9808
C36 C 0.3314(3) 0.2316(3) 0.8638(2)
C37 C 0.3416(3) 0.3337(3) 0.8494(2)
H21 H 0.3250 0.3858 0.8965
C38 C 0.3769(3) 0.3574(3) 0.7638(2)
H22 H 0.3818 0.4274 0.7534
C39 C 0.4050(3) 0.2787(3) 0.6937(2)
C40 C 0.3944(3) 0.1763(3) 0.7100(2)
H23 H 0.4124 0.1233 0.6630
C41 C 0.3579(3) 0.1521(3) 0.7946(2)
H24 H 0.3510 0.0833 0.8052
C42 C 0.4463(3) 0.3043(3) 0.6021(2)
Mn2A Mn 0.45681(4) 0.74135(4) 0.58751(3)
Mn2_2 Mn 0.54319(4) 1.25865(4) 0.41249(3)
Mn2A_2 Mn 0.45681(4) -0.25865(4) 0.58751(3)
Mn3A Mn 1.35282(4) 0.76485(4) -0.21056(3)
Mn3_2 Mn 0.64718(4) 1.23515(4) 0.21056(3)
Mn3_3 Mn 0.64718(4) 0.23515(4) 0.21056(3)
Mn3A_2 Mn 0.35282(4) -0.23515(4) 0.78944(3)
Mn3A_3 Mn 0.35282(4) 0.76485(4) 0.78944(3)
S1A S 0.92244(8) -0.01329(7) 0.70379(7)
S2A S -0.11891(7) 0.50403(7) 0.68815(5)
S3A S 0.71876(8) 0.79523(8) 0.02632(5)
O1A O 0.5449(2) 0.6021(2) 0.40787(15)
O2A O 0.33145(19) 0.66435(18) 0.58670(14)
O3A O 0.57656(19) 0.54353(17) 0.59415(14)
O4A O 0.2987(2) -0.0898(2) 0.63150(18)
O4_2 O 0.7013(2) 0.0898(2) 0.36850(18)
O4A_2 O 0.2987(2) 0.9102(2) 0.63150(18)
O5A O 0.5541(2) -0.2185(2) 0.65008(16)
O5_2 O 0.4459(2) 0.2185(2) 0.34992(16)
O5A_2 O 0.5541(2) 0.7815(2) 0.65008(16)
O6A O 0.5293(3) 0.7675(2) 0.46029(15)
O7A O 1.2945(2) 0.7455(2) -0.08018(14)
O8A O 0.2331(2) -0.0544(2) 0.77773(18)
O8_2 O -0.2331(2) 0.0544(2) 1.22227(18)
O8A_2 O 1.2331(2) 0.9456(2) -0.22227(18)
O9A O 0.2554(2) 0.7085(2) 0.73291(14)
O9_2 O -0.2554(2) 0.2915(2) 1.26709(14)
O9A_2 O 1.2554(2) 0.7085(2) -0.26709(14)
O10A O 0.4915(2) -0.1931(2) 0.79659(16)
O10_2 O -0.4915(2) 0.1931(2) 1.20341(16)
O10A_2 O 1.4915(2) 0.8069(2) -0.20341(16)
O11A O 0.5108(2) 0.58126(19) 0.74047(15)
O11_2 O -0.5108(2) 0.41874(19) 1.25953(15)
O11A_2 O 1.5108(2) 0.58126(19) -0.25953(15)
O12A O 1.3330(3) 0.5786(3) -0.0190(2)
O13A O 0.9439(2) -0.0189(2) 0.78700(18)
O14A O 1.0280(2) -0.0691(2) 0.62377(18)
O15A O -0.1503(2) 0.51986(19) 0.60813(15)
O16A O -0.2192(2) 0.55643(19) 0.77123(15)
O17A O 0.7265(2) 0.7059(2) -0.03058(14)
O18A O 0.6413(2) 0.9211(2) 0.01978(16)
C1A C 0.5596(3) -0.1910(3) 0.7222(2)
C2A C 0.6547(3) -0.1525(3) 0.7179(2)
C3A C 0.6549(3) -0.1061(3) 0.7942(2)
H1A H 0.5989 -0.1023 0.8485
C4A C 0.7382(3) -0.0653(3) 0.7898(2)
H2A H 0.7381 -0.0332 0.8408
C5A C 0.8209(3) -0.0725(3) 0.7098(2)
C6A C 0.8247(3) -0.1214(3) 0.6330(2)
H3A H 0.8830 -0.1277 0.5791
C7A C 0.7401(3) -0.1604(3) 0.6380(2)
H4A H 0.7406 -0.1927 0.5868
C8A C 0.8249(3) 0.1413(3) 0.6931(2)
C9A C 0.7475(3) 0.2238(3) 0.7679(2)
H5A H 0.7486 0.1996 0.8233
C10A C 0.6677(3) 0.3437(3) 0.7596(2)
H6A H 0.6148 0.4000 0.8099
C11A C 0.6661(3) 0.3802(3) 0.6773(2)
C12A C 0.7440(3) 0.2946(3) 0.6037(2)
H7A H 0.7426 0.3178 0.5482
C13A C 0.8244(3) 0.1749(3) 0.6110(2)
H8A H 0.8771 0.1182 0.5609
C14A C 0.5782(3) 0.5108(3) 0.6708(2)
C15A C 0.2557(3) 0.6711(3) 0.6627(2)
C16A C 0.1607(3) 0.6316(3) 0.6682(2)
C17A C 0.1646(3) 0.5743(3) 0.5947(2)
H9A H 0.2262 0.5605 0.5407
C18A C 0.0772(3) 0.5378(3) 0.6014(2)
H10A H 0.0796 0.4999 0.5520
C19A C -0.0131(3) 0.5576(3) 0.6813(2)
C20A C -0.0193(3) 0.6149(3) 0.7557(2)
H11A H -0.0811 0.6288 0.8096
C21A C 0.0692(3) 0.6512(3) 0.7477(2)
H12A H 0.0666 0.6895 0.7970
C22A C -0.0241(3) 0.3476(3) 0.6918(2)
C23A C 0.0538(4) 0.2698(3) 0.6151(2)
H13A H 0.0519 0.2978 0.5608
C24A C 0.1350(4) 0.1495(3) 0.6193(2)
H14A H 0.1890 0.0965 0.5675
C25A C 0.1367(3) 0.1074(3) 0.6997(2)
C26A C 0.0546(3) 0.1859(3) 0.7760(2)
H15A H 0.0536 0.1577 0.8305
C27A C -0.0261(3) 0.3062(3) 0.7718(2)
H16A H -0.0819 0.3591 0.8234
C28A C 0.2292(3) -0.0230(3) 0.7036(3)
C29A C 1.2602(3) 0.6730(3) -0.0418(2)
C30A C 1.1247(3) 0.7058(3) -0.0247(2)
C31A C 1.0372(3) 0.8165(3) -0.0412(2)
H17A H 1.0628 0.8713 -0.0641
C32A C 0.9126(3) 0.8469(3) -0.0242(2)
H18A H 0.8540 0.9223 -0.0346
C33A C 0.8755(3) 0.7643(3) 0.0084(2)
C34A C 0.9622(3) 0.6524(3) 0.0247(2)
H19A H 0.9365 0.5973 0.0467
C35A C 1.0866(3) 0.6228(3) 0.0083(2)
H20A H 1.1450 0.5478 0.0192
C36A C 0.6686(3) 0.7684(3) 0.1362(2)
C37A C 0.6584(3) 0.6663(3) 0.1506(2)
H21A H 0.6750 0.6142 0.1035
C38A C 0.6231(3) 0.6426(3) 0.2362(2)
H22A H 0.6182 0.5726 0.2466
C39A C 0.5950(3) 0.7213(3) 0.3063(2)
C40A C 0.6056(3) 0.8237(3) 0.2900(2)
H23A H 0.5876 0.8767 0.3370
C41A C 0.6421(3) 0.8479(3) 0.2054(2)
H24A H 0.6490 0.9167 0.1948
C42A C 0.5537(3) 0.6957(3) 0.3979(2)
O19 O 1.3922(4) -0.1522(3) 0.0208(2)
N1 N 0.4311(3) 0.3846(3) 0.0765(2)
H25 H 0.383(4) 0.456(3) 0.047(3)
H26 H 0.516(3) 0.374(5) 0.075(4)
H27 H 0.381(4) 0.390(4) 0.1398(15)
H28 H 0.461(3) 0.306(2) 0.044(2)
loop_
_geom_bond_atom_site_label_1
_geom_bond_atom_site_label_2
_geom_bond_site_symmetry_1
_geom_bond_site_symmetry_2
Mn1 O1 1_555 1_555
Mn2 O2 1_555 1_555
Mn3 O7 1_555 1_555
S1 O13 1_555 1_555
S2 O15 1_555 1_555
S3 O17 1_555 1_555
O1 C42 1_555 1_555
O2 Mn1 1_555 1_555
O3 Mn1 1_555 1_555
O4 C28 1_555 1_555
O5 C1 1_555 1_555
O6 Mn2 1_555 1_555
O7 C29 1_555 1_555
O8 C28 1_555 1_555
O9 C15 1_555 1_555
O10 C1 1_555 1_555
O11 C14 1_555 1_555
O12 C29 1_555 1_555
O14 S1 1_555 1_555
O16 S2 1_555 1_555
O18 S3 1_555 1_555
N1 H25 1_555 1_555
C1 C2 1_555 1_555
C2 C3 1_555 1_555
C3 H1 1_555 1_555
C4 C3 1_555 1_555
H2 C4 1_555 1_555
C5 S1 1_555 1_555
C6 C5 1_555 1_555
H3 C6 1_555 1_555
C7 C2 1_555 1_555
H4 C7 1_555 1_555
C8 S1 1_555 1_555
C9 C8 1_555 1_555
H5 C9 1_555 1_555
C10 C9 1_555 1_555
H6 C10 1_555 1_555
C11 C10 1_555 1_555
C12 C11 1_555 1_555
H7 C12 1_555 1_555
C13 C8 1_555 1_555
H8 C13 1_555 1_555
C14 O3 1_555 1_555
C15 O2 1_555 1_555
C16 C15 1_555 1_555
C17 C16 1_555 1_555
H9 C17 1_555 1_555
C18 C17 1_555 1_555
H10 C18 1_555 1_555
C19 S2 1_555 1_555
C20 C19 1_555 1_555
H11 C20 1_555 1_555
C21 C16 1_555 1_555
H12 C21 1_555 1_555
C22 S2 1_555 1_555
C23 C22 1_555 1_555
H13 C23 1_555 1_555
C24 C23 1_555 1_555
H14 C24 1_555 1_555
C25 C24 1_555 1_555
C26 C25 1_555 1_555
H15 C26 1_555 1_555
C27 C22 1_555 1_555
H16 C27 1_555 1_555
C28 C25 1_555 1_555
C29 C30 1_555 1_555
C30 C31 1_555 1_555
C31 H17 1_555 1_555
C32 C31 1_555 1_555
H18 C32 1_555 1_555
C33 S3 1_555 1_555
C34 C33 1_555 1_555
H19 C34 1_555 1_555
C35 C30 1_555 1_555
H20 C35 1_555 1_555
C36 S3 1_555 1_555
C37 C36 1_555 1_555
H21 C37 1_555 1_555
C38 C37 1_555 1_555
H22 C38 1_555 1_555
C39 C38 1_555 1_555
C40 C39 1_555 1_555
H23 C40 1_555 1_555
C41 C36 1_555 1_555
H24 C41 1_555 1_555
C42 O6 1_555 1_555
H26 N1 1_555 1_555
H27 N1 1_555 1_555
H28 N1 1_555 1_555
Mn2A O2A 1_555 1_555
Mn2_2 O4 1_555 1_555
Mn2A_2 O4A 1_555 1_555
Mn3A O7A 1_555 1_555
Mn3_2 O8 1_555 1_555
Mn3_3 O9 1_555 1_555
Mn3A_2 O8A 1_555 1_555
Mn3A_3 O9A 1_555 1_555
S1A O13A 1_555 1_555
S2A O15A 1_555 1_555
S3A O17A 1_555 1_555
O1A Mn1 1_555 1_555
O2A Mn1 1_555 1_555
O3A Mn1 1_555 1_555
O4A C28A 1_555 1_555
O4_2 Mn2 1_555 1_555
O4A_2 Mn2A 1_555 1_555
O5A Mn2A_2 1_555 1_555
O5_2 Mn2 1_555 1_555
O5A_2 Mn2A 1_555 1_555
O6A Mn2A 1_555 1_555
O7A C29A 1_555 1_555
O8A C28A 1_555 1_555
O8_2 Mn3 1_555 1_555
O8A_2 Mn3A 1_555 1_555
O9A C15A 1_555 1_555
O9_2 Mn3 1_555 1_555
O9A_2 Mn3A 1_555 1_555
O10A Mn3A_2 1_555 1_555
O10_2 Mn3 1_555 1_555
O10A_2 Mn3A 1_555 1_555
O11A Mn3A_3 1_555 1_555
O11_2 Mn3 1_555 1_555
O11A_2 Mn3A 1_555 1_555
O12A C29A 1_555 1_555
O14A S1A 1_555 1_555
O16A S2A 1_555 1_555
O18A S3A 1_555 1_555
C1A O5A 1_555 1_555
C2A C1A 1_555 1_555
C3A C2A 1_555 1_555
H1A C3A 1_555 1_555
C4A C3A 1_555 1_555
H2A C4A 1_555 1_555
C5A S1A 1_555 1_555
C6A C5A 1_555 1_555
H3A C6A 1_555 1_555
C7A C2A 1_555 1_555
H4A C7A 1_555 1_555
C8A S1A 1_555 1_555
C9A C8A 1_555 1_555
H5A C9A 1_555 1_555
C10A C9A 1_555 1_555
H6A C10A 1_555 1_555
C11A C10A 1_555 1_555
C12A C11A 1_555 1_555
H7A C12A 1_555 1_555
C13A C8A 1_555 1_555
H8A C13A 1_555 1_555
C14A O3A 1_555 1_555
C15A O2A 1_555 1_555
C16A C15A 1_555 1_555
C17A C16A 1_555 1_555
H9A C17A 1_555 1_555
C18A C17A 1_555 1_555
H10A C18A 1_555 1_555
C19A S2A 1_555 1_555
C20A C19A 1_555 1_555
H11A C20A 1_555 1_555
C21A C16A 1_555 1_555
H12A C21A 1_555 1_555
C22A S2A 1_555 1_555
C23A C22A 1_555 1_555
H13A C23A 1_555 1_555
C24A C23A 1_555 1_555
H14A C24A 1_555 1_555
C25A C24A 1_555 1_555
C26A C25A 1_555 1_555
H15A C26A 1_555 1_555
C27A C22A 1_555 1_555
H16A C27A 1_555 1_555
C28A C25A 1_555 1_555
C29A C30A 1_555 1_555
C30A C31A 1_555 1_555
C31A H17A 1_555 1_555
C32A C31A 1_555 1_555
H18A C32A 1_555 1_555
C33A S3A 1_555 1_555
C34A C33A 1_555 1_555
H19A C34A 1_555 1_555
C35A C30A 1_555 1_555
H20A C35A 1_555 1_555
C36A S3A 1_555 1_555
C37A C36A 1_555 1_555
H21A C37A 1_555 1_555
C38A C37A 1_555 1_555
H22A C38A 1_555 1_555
C39A C38A 1_555 1_555
C40A C39A 1_555 1_555
H23A C40A 1_555 1_555
C41A C36A 1_555 1_555
H24A C41A 1_555 1_555
C42A O1A 1_555 1_555
Mn2 O3 1_555 1_555
O5 Mn2_2 1_555 1_555
O10 Mn3_2 1_555 1_555
O11 Mn3_3 1_555 1_555
C4 C5 1_555 1_555
C6 C7 1_555 1_555
C11 C14 1_555 1_555
C12 C13 1_555 1_555
C18 C19 1_555 1_555
C20 C21 1_555 1_555
C26 C27 1_555 1_555
C32 C33 1_555 1_555
C34 C35 1_555 1_555
C39 C42 1_555 1_555
C40 C41 1_555 1_555
Mn2A O3A 1_555 1_555
O6A C42A 1_555 1_555
O10A C1A 1_555 1_555
O11A C14A 1_555 1_555
C4A C5A 1_555 1_555
C6A C7A 1_555 1_555
C11A C14A 1_555 1_555
C12A C13A 1_555 1_555
C18A C19A 1_555 1_555
C20A C21A 1_555 1_555
C26A C27A 1_555 1_555
C32A C33A 1_555 1_555
C34A C35A 1_555 1_555
C39A C42A 1_555 1_555
C40A C41A 1_555 1_555

#END
