
#######################################################################
#
#                 Cambridge Crystallographic Data Centre
#                                CCDC 
#
#######################################################################
#
# If this CIF has been generated from an entry in the Cambridge 
# Structural Database, then it will include bibliographic, chemical, 
# crystal, experimental, refinement or atomic coordinate data resulting 
# from the CCDC's data processing and validation procedures.
#
#######################################################################

data_PATWOY
_symmetry_cell_setting           triclinic
_symmetry_space_group_name_H-M   'P -1'
_symmetry_Int_Tables_number      2
_space_group_name_Hall           '-P 1'
loop_
_symmetry_equiv_pos_site_id
_symmetry_equiv_pos_as_xyz
1 x,y,z
2 -x,-y,-z
_cell_length_a                   9.4710(11)
_cell_length_b                   17.3579(17)
_cell_length_c                   19.6831(19)
_cell_angle_alpha                76.227(3)
_cell_angle_beta                 83.232(3)
_cell_angle_gamma                88.407(3)
_cell_volume                     3120.89
loop_
_atom_site_label
_atom_site_type_symbol
_atom_site_fract_x
_atom_site_fract_y
_atom_site_fract_z
Zn1 Zn 0.13134(4) 0.95381(2) 0.01047(2)
Zn2 Zn -1.0000 0.5000 1.0000
O1 O -1.1867(4) 0.4057(2) 0.91056(17)
O2 O -0.0258(3) 0.88535(16) 0.07429(17)
O3 O -1.0521(3) 0.07520(18) 0.07305(17)
O4 O -1.1497(3) 0.40678(16) 1.04037(15)
H1 H -1.2001 0.3880 1.0099
H2 H -1.1648 0.3848 1.0886
O5 O -0.8471(3) 0.01141(18) 0.08719(16)
C1 C -0.7951(5) 0.0885(3) 0.1909(3)
H3 H -0.7361 0.0460 0.1856
O6 O -0.2288(3) 0.95222(17) 0.06010(16)
O7 O -1.0392(3) 0.50764(16) 0.89818(14)
N1 N -0.6731(3) 0.41573(19) 0.39502(17)
N2 N -0.8422(3) 0.4089(2) 0.99084(18)
N3 N -0.2952(3) 0.12438(19) 0.98473(17)
C2 C -0.7527(5) 0.2268(3) 0.3494(2)
H4 H -0.7440 0.1726 0.3676
C3 C -0.7665(5) 0.1346(3) 0.2362(3)
H5 H -0.6899 0.1218 0.2624
C4 C -0.7077(5) 0.2796(2) 0.3849(2)
H6 H -0.6676 0.2606 0.4267
C5 C -1.0973(4) 0.4541(3) 0.8759(2)
C6 C -0.3822(4) 0.8312(2) 0.1593(2)
H7 H -0.4291 0.8792 0.1454
C7 C -0.9500(4) 0.4058(3) 0.5469(2)
H8 H -1.0463 0.3941 0.5586
C8 C -0.9708(4) 0.2145(2) 0.2079(2)
H9 H -1.0317 0.2559 0.2142
C9 C -0.9128(4) 0.1059(2) 0.1531(2)
C10 C -0.4549(4) 0.7677(2) 0.2029(2)
H10 H -0.5502 0.7736 0.2187
C11 C -0.1712(4) 0.7522(2) 0.1577(2)
H11 H -0.0750 0.7469 0.1434
C12 C -0.7822(4) 0.3893(2) 0.2973(2)
H12 H -0.7934 0.4436 0.2801
C13 C -1.1029(4) 0.3958(3) 0.7710(2)
H13 H -1.1758 0.3623 0.7963
C14 C -0.8113(4) 0.2550(2) 0.2859(2)
C15 C -0.2441(4) 0.6884(2) 0.2004(2)
H14 H -0.1969 0.6404 0.2139
C16 C -1.0012(4) 0.1680(2) 0.1631(2)
H15 H -1.0818 0.1787 0.1396
C17 C -0.8264(4) 0.3360(2) 0.2606(2)
H16 H -0.8662 0.3552 0.2188
C18 C -0.2377(4) 0.8247(2) 0.1354(2)
C19 C -0.5689(4) 0.6277(2) 0.3245(2)
H17 H -0.5922 0.6769 0.3338
C20 C -0.7418(4) 0.4159(2) 0.4630(2)
C21 C -0.6632(4) 0.4351(2) 0.5126(2)
H18 H -0.5655 0.4425 0.5019
C22 C -0.9398(4) 0.0593(2) 0.1007(2)
C23 C -1.0506(4) 0.3897(2) 0.7038(2)
H19 H -1.0886 0.3521 0.6844
C24 C -0.5405(4) 0.1541(2) 1.0132(2)
H20 H -0.6320 0.1360 1.0315
C25 C -0.7319(4) 0.4200(3) 0.9408(2)
H21 H -0.7279 0.4671 0.9062
C26 C -0.6250(4) 0.3667(2) 0.9371(2)
H22 H -0.5499 0.3780 0.9013
C27 C -0.5023(4) 0.4813(2) 0.2976(2)
H23 H -0.4800 0.4322 0.2879
C28 C -0.5137(4) 0.2352(2) 0.9869(2)
C29 C -0.7429(4) 0.2829(3) 1.0404(3)
H24 H -0.7496 0.2367 1.0761
C30 C -0.3763(4) 0.2584(2) 0.9592(2)
H25 H -0.3551 0.3118 0.9407
C31 C -0.8515(4) 0.2006(2) 0.2434(2)
C32 C -0.3888(4) 0.6938(2) 0.2241(2)
C33 C -0.6051(4) 0.4859(2) 0.3543(2)
C34 C -0.4661(4) 0.6227(2) 0.2689(2)
C35 C -0.8856(4) 0.3999(3) 0.4819(2)
H26 H -0.9390 0.3850 0.4504
C36 C -0.8923(4) 0.4979(2) 0.6944(2)
H27 H -0.8240 0.5339 0.6682
C37 C -0.8747(4) 0.4291(2) 0.5959(2)
C38 C -0.7279(4) 0.4431(2) 0.5767(2)
H28 H -0.6740 0.4581 0.6080
C39 C -0.9414(4) 0.4394(2) 0.6648(2)
C40 C -1.0476(4) 0.4511(2) 0.8011(2)
C41 C -0.4293(4) 0.1012(2) 1.0118(2)
H29 H -0.4474 0.0474 1.0301
C42 C -0.6290(4) 0.2954(2) 0.9872(2)
C43 C -0.7217(4) 0.3607(2) 0.3591(2)
C44 C -0.4355(4) 0.5471(2) 0.2573(2)
H30 H -0.3670 0.5421 0.2206
C45 C -0.1579(4) 0.8924(2) 0.0860(2)
C46 C -0.9428(4) 0.5032(2) 0.7617(2)
H31 H -0.9070 0.5417 0.7808
C47 C -0.6362(4) 0.5606(2) 0.3658(2)
H32 H -0.7046 0.5655 0.4026
C48 C -0.2709(4) 0.2022(2) 0.9591(2)
H33 H -0.1790 0.2189 0.9404
C49 C -0.8460(4) 0.3416(2) 1.0382(2)
H34 H -0.9233 0.3324 1.0728
Zn1A Zn -2.13134(4) 0.04619(2) 1.98953(2)
Zn1A_2 Zn -1.13134(4) 0.04619(2) -0.01047(2)
Zn1_2 Zn -0.86866(4) -0.04619(2) 0.01047(2)
Zn1A_3 Zn -0.13134(4) 1.04619(2) -0.01047(2)
Zn1A_4 Zn -0.13134(4) 0.04619(2) 0.98953(2)
Zn1_3 Zn -0.86866(4) 0.95381(2) 2.01047(2)
Zn1A_5 Zn -1.13134(4) 1.04619(2) 1.98953(2)
Zn1_4 Zn -1.86866(4) -0.04619(2) 2.01047(2)
Zn1_5 Zn -1.86866(4) 0.95381(2) 1.01047(2)
O1A O -0.8133(4) 0.5943(2) 1.08944(17)
O2A O -1.9742(3) 0.11465(16) 1.92571(17)
O3A O -0.9479(3) 0.92480(18) 1.92695(17)
O3A_2 O 0.0521(3) 0.92480(18) -0.07305(17)
O3_2 O -2.0521(3) 0.07520(18) 2.07305(17)
O4A O -0.8503(3) 0.59322(16) 0.95963(15)
H1A H -0.7999 0.6120 0.9901
H2A H -0.8352 0.6152 0.9114
O5A O -1.1529(3) 0.98859(18) 1.91281(16)
O5_2 O 0.1529(3) 1.01141(18) 0.08719(16)
O5A_2 O -2.1529(3) -0.01141(18) 1.91281(16)
C1A C -1.2049(5) 0.9115(3) 1.8091(3)
H3A H -1.2639 0.9540 1.8144
O6A O -1.7712(3) 0.04778(17) 1.93990(16)
O6A_2 O 0.2288(3) 1.04778(17) -0.06010(16)
O6_2 O -2.2288(3) -0.04778(17) 2.06010(16)
O7A O -0.9608(3) 0.49236(16) 1.10182(14)
N1A N -1.3269(3) 0.58427(19) 1.60498(17)
N2A N -1.1578(3) 0.5911(2) 1.00916(18)
N3A N -1.7048(3) 0.87562(19) 1.01527(17)
N3A_2 N 0.2952(3) 0.87562(19) 0.01527(17)
N3_2 N -2.2952(3) 0.12438(19) 1.98473(17)
C2A C -1.2473(5) 0.7732(3) 1.6506(2)
H4A H -1.2560 0.8274 1.6324
C3A C -1.2335(5) 0.8654(3) 1.7638(3)
H5A H -1.3101 0.8782 1.7376
C4A C -1.2923(5) 0.7204(2) 1.6151(2)
H6A H -1.3324 0.7394 1.5733
C5A C -0.9027(4) 0.5459(3) 1.1241(2)
C6A C -1.6178(4) 0.1688(2) 1.8407(2)
H7A H -1.5709 0.1208 1.8546
C7A C -1.0500(4) 0.5942(3) 1.4531(2)
H8A H -0.9537 0.6059 1.4414
C8A C -1.0292(4) 0.7855(2) 1.7921(2)
H9A H -0.9683 0.7441 1.7858
C9A C -1.0872(4) 0.8941(2) 1.8469(2)
C10A C -1.5451(4) 0.2323(2) 1.7971(2)
H10A H -1.4498 0.2264 1.7813
C11A C -1.8288(4) 0.2478(2) 1.8423(2)
H11A H -1.9250 0.2531 1.8566
C12A C -1.2178(4) 0.6107(2) 1.7027(2)
H12A H -1.2066 0.5564 1.7199
C13A C -0.8971(4) 0.6042(3) 1.2290(2)
H13A H -0.8242 0.6377 1.2037
C14A C -1.1887(4) 0.7450(2) 1.7141(2)
C15A C -1.7559(4) 0.3116(2) 1.7996(2)
H14A H -1.8031 0.3596 1.7861
C16A C -0.9988(4) 0.8320(2) 1.8369(2)
H15A H -0.9182 0.8213 1.8604
C17A C -1.1736(4) 0.6640(2) 1.7394(2)
H16A H -1.1338 0.6448 1.7812
C18A C -1.7623(4) 0.1753(2) 1.8646(2)
C19A C -1.4311(4) 0.3723(2) 1.6755(2)
H17A H -1.4078 0.3231 1.6662
C20A C -1.2582(4) 0.5841(2) 1.5370(2)
C21A C -1.3368(4) 0.5649(2) 1.4874(2)
H18A H -1.4345 0.5575 1.4981
C22A C -1.0602(4) 0.9407(2) 1.8993(2)
C23A C -0.9494(4) 0.6103(2) 1.2962(2)
H19A H -0.9114 0.6479 1.3156
C24A C -1.4595(4) 0.8459(2) 0.9868(2)
H20A H -1.3680 0.8640 0.9685
C25A C -1.2681(4) 0.5800(3) 1.0592(2)
H21A H -1.2721 0.5329 1.0938
C26A C -1.3750(4) 0.6333(2) 1.0629(2)
H22A H -1.4501 0.6220 1.0987
C27A C -1.4977(4) 0.5187(2) 1.7024(2)
H23A H -1.5200 0.5678 1.7121
C28A C -1.4863(4) 0.7648(2) 1.0131(2)
C29A C -1.2571(4) 0.7171(3) 0.9596(3)
H24A H -1.2504 0.7633 0.9239
C30A C -1.6237(4) 0.7416(2) 1.0408(2)
H25A H -1.6449 0.6882 1.0593
C31A C -1.1485(4) 0.7994(2) 1.7566(2)
C32A C -1.6112(4) 0.3062(2) 1.7759(2)
C33A C -1.3949(4) 0.5141(2) 1.6457(2)
C34A C -1.5339(4) 0.3773(2) 1.7311(2)
C35A C -1.1144(4) 0.6001(3) 1.5181(2)
H26A H -1.0610 0.6150 1.5496
C36A C -1.1077(4) 0.5021(2) 1.3056(2)
H27A H -1.1760 0.4661 1.3318
C37A C -1.1253(4) 0.5709(2) 1.4041(2)
C38A C -1.2721(4) 0.5569(2) 1.4233(2)
H28A H -1.3260 0.5419 1.3920
C39A C -1.0586(4) 0.5606(2) 1.3352(2)
C40A C -0.9524(4) 0.5489(2) 1.1989(2)
C41A C -1.5707(4) 0.8988(2) 0.9882(2)
H29A H -1.5526 0.9526 0.9699
C42A C -1.3710(4) 0.7046(2) 1.0128(2)
C43A C -1.2783(4) 0.6393(2) 1.6409(2)
C44A C -1.5645(4) 0.4529(2) 1.7427(2)
H30A H -1.6330 0.4579 1.7794
C45A C -1.8421(4) 0.1076(2) 1.9140(2)
C46A C -1.0572(4) 0.4968(2) 1.2383(2)
H31A H -1.0930 0.4583 1.2192
C47A C -1.3638(4) 0.4394(2) 1.6342(2)
H32A H -1.2954 0.4345 1.5974
C48A C -1.7291(4) 0.7978(2) 1.0409(2)
H33A H -1.8210 0.7811 1.0596
C49A C -1.1540(4) 0.6584(2) 0.9618(2)
H34A H -1.0767 0.6676 0.9272
loop_
_geom_bond_atom_site_label_1
_geom_bond_atom_site_label_2
_geom_bond_site_symmetry_1
_geom_bond_site_symmetry_2
Zn1 O2 1_555 1_555
Zn2 O4 1_555 1_555
O1 C5 1_555 1_555
O2 C45 1_555 1_555
O3 C22 1_555 1_555
O4 H1 1_555 1_555
H2 O4 1_555 1_555
O5 C22 1_555 1_555
C1 H3 1_555 1_555
O6 C45 1_555 1_555
O7 Zn2 1_555 1_555
N1 C20 1_555 1_555
N2 Zn2 1_555 1_555
N3 C41 1_555 1_555
C2 H4 1_555 1_555
C3 C1 1_555 1_555
H5 C3 1_555 1_555
C4 C2 1_555 1_555
H6 C4 1_555 1_555
C5 O7 1_555 1_555
C6 H7 1_555 1_555
C7 H8 1_555 1_555
C8 H9 1_555 1_555
C9 C1 1_555 1_555
C10 C6 1_555 1_555
H10 C10 1_555 1_555
C11 H11 1_555 1_555
C12 H12 1_555 1_555
C13 H13 1_555 1_555
C14 C2 1_555 1_555
C15 C11 1_555 1_555
H14 C15 1_555 1_555
C16 C8 1_555 1_555
H15 C16 1_555 1_555
C17 C12 1_555 1_555
H16 C17 1_555 1_555
C18 C6 1_555 1_555
C19 H17 1_555 1_555
C20 C21 1_555 1_555
C21 H18 1_555 1_555
C22 C9 1_555 1_555
C23 C13 1_555 1_555
H19 C23 1_555 1_555
C24 H20 1_555 1_555
C25 N2 1_555 1_555
H21 C25 1_555 1_555
C26 C25 1_555 1_555
H22 C26 1_555 1_555
C27 H23 1_555 1_555
C28 C24 1_555 1_555
C29 H24 1_555 1_555
C30 C28 1_555 1_555
H25 C30 1_555 1_555
C31 C3 1_555 1_555
C32 C10 1_555 1_555
C33 N1 1_555 1_555
C34 C19 1_555 1_555
C35 C7 1_555 1_555
H26 C35 1_555 1_555
C36 H27 1_555 1_555
C37 C7 1_555 1_555
C38 C21 1_555 1_555
H28 C38 1_555 1_555
C39 C23 1_555 1_555
C40 C5 1_555 1_555
C41 C24 1_555 1_555
H29 C41 1_555 1_555
C42 C26 1_555 1_555
C43 N1 1_555 1_555
C44 C27 1_555 1_555
H30 C44 1_555 1_555
C45 C18 1_555 1_555
C46 C36 1_555 1_555
H31 C46 1_555 1_555
C47 C19 1_555 1_555
H32 C47 1_555 1_555
C48 N3 1_555 1_555
H33 C48 1_555 1_555
C49 N2 1_555 1_555
H34 C49 1_555 1_555
Zn1A O2A 1_555 1_555
Zn1A_2 O3 1_555 1_555
Zn1_2 O5 1_555 1_555
Zn1A_3 O6 1_555 1_555
Zn1A_4 N3 1_555 1_555
Zn1_3 O3A 1_555 1_555
Zn1A_5 O5A 1_555 1_555
Zn1_4 O6A 1_555 1_555
Zn1_5 N3A 1_555 1_555
O1A C5A 1_555 1_555
O2A C45A 1_555 1_555
O3A C22A 1_555 1_555
O3A_2 Zn1 1_555 1_555
O3_2 Zn1A 1_555 1_555
O4A Zn2 1_555 1_555
H1A O4A 1_555 1_555
H2A O4A 1_555 1_555
O5A C22A 1_555 1_555
O5_2 Zn1 1_555 1_555
O5A_2 Zn1A 1_555 1_555
C1A H3A 1_555 1_555
O6A C45A 1_555 1_555
O6A_2 Zn1 1_555 1_555
O6_2 Zn1A 1_555 1_555
O7A Zn2 1_555 1_555
N1A C20A 1_555 1_555
N2A Zn2 1_555 1_555
N3A C41A 1_555 1_555
N3A_2 Zn1 1_555 1_555
N3_2 Zn1A 1_555 1_555
C2A H4A 1_555 1_555
C3A C1A 1_555 1_555
H5A C3A 1_555 1_555
C4A C2A 1_555 1_555
H6A C4A 1_555 1_555
C5A O7A 1_555 1_555
C6A H7A 1_555 1_555
C7A H8A 1_555 1_555
C8A H9A 1_555 1_555
C9A C1A 1_555 1_555
C10A C6A 1_555 1_555
H10A C10A 1_555 1_555
C11A H11A 1_555 1_555
C12A H12A 1_555 1_555
C13A H13A 1_555 1_555
C14A C2A 1_555 1_555
C15A C11A 1_555 1_555
H14A C15A 1_555 1_555
C16A C8A 1_555 1_555
H15A C16A 1_555 1_555
C17A C12A 1_555 1_555
H16A C17A 1_555 1_555
C18A C6A 1_555 1_555
C19A H17A 1_555 1_555
C20A C21A 1_555 1_555
C21A H18A 1_555 1_555
C22A C9A 1_555 1_555
C23A C13A 1_555 1_555
H19A C23A 1_555 1_555
C24A H20A 1_555 1_555
C25A N2A 1_555 1_555
H21A C25A 1_555 1_555
C26A C25A 1_555 1_555
H22A C26A 1_555 1_555
C27A H23A 1_555 1_555
C28A C24A 1_555 1_555
C29A H24A 1_555 1_555
C30A C28A 1_555 1_555
H25A C30A 1_555 1_555
C31A C3A 1_555 1_555
C32A C10A 1_555 1_555
C33A N1A 1_555 1_555
C34A C19A 1_555 1_555
C35A C7A 1_555 1_555
H26A C35A 1_555 1_555
C36A H27A 1_555 1_555
C37A C7A 1_555 1_555
C38A C21A 1_555 1_555
H28A C38A 1_555 1_555
C39A C23A 1_555 1_555
C40A C5A 1_555 1_555
C41A C24A 1_555 1_555
H29A C41A 1_555 1_555
C42A C26A 1_555 1_555
C43A N1A 1_555 1_555
C44A C27A 1_555 1_555
H30A C44A 1_555 1_555
C45A C18A 1_555 1_555
C46A C36A 1_555 1_555
H31A C46A 1_555 1_555
C47A C19A 1_555 1_555
H32A C47A 1_555 1_555
C48A N3A 1_555 1_555
H33A C48A 1_555 1_555
C49A N2A 1_555 1_555
H34A C49A 1_555 1_555
C4 C43 1_555 1_555
C8 C31 1_555 1_555
C9 C16 1_555 1_555
C11 C18 1_555 1_555
C12 C43 1_555 1_555
C13 C40 1_555 1_555
C14 C17 1_555 1_555
C14 C31 1_555 1_555
C15 C32 1_555 1_555
C20 C35 1_555 1_555
C27 C33 1_555 1_555
C28 C42 1_555 1_555
C29 C42 1_555 1_555
C29 C49 1_555 1_555
C30 C48 1_555 1_555
C32 C34 1_555 1_555
C33 C47 1_555 1_555
C34 C44 1_555 1_555
C36 C39 1_555 1_555
C37 C38 1_555 1_555
C37 C39 1_555 1_555
C40 C46 1_555 1_555
C4A C43A 1_555 1_555
C8A C31A 1_555 1_555
C9A C16A 1_555 1_555
C11A C18A 1_555 1_555
C12A C43A 1_555 1_555
C13A C40A 1_555 1_555
C14A C17A 1_555 1_555
C14A C31A 1_555 1_555
C15A C32A 1_555 1_555
C20A C35A 1_555 1_555
C27A C33A 1_555 1_555
C28A C42A 1_555 1_555
C29A C42A 1_555 1_555
C29A C49A 1_555 1_555
C30A C48A 1_555 1_555
C32A C34A 1_555 1_555
C33A C47A 1_555 1_555
C34A C44A 1_555 1_555
C36A C39A 1_555 1_555
C37A C38A 1_555 1_555
C37A C39A 1_555 1_555
C40A C46A 1_555 1_555

#END
