
#######################################################################
#
#                 Cambridge Crystallographic Data Centre
#                                CCDC 
#
#######################################################################
#
# If this CIF has been generated from an entry in the Cambridge 
# Structural Database, then it will include bibliographic, chemical, 
# crystal, experimental, refinement or atomic coordinate data resulting 
# from the CCDC's data processing and validation procedures.
#
#######################################################################

data_PAXMOQ
_symmetry_cell_setting           triclinic
_symmetry_space_group_name_H-M   'P -1'
_symmetry_Int_Tables_number      2
_space_group_name_Hall           '-P 1'
loop_
_symmetry_equiv_pos_site_id
_symmetry_equiv_pos_as_xyz
1 x,y,z
2 -x,-y,-z
_cell_length_a                   12.4273(5)
_cell_length_b                   13.4378(5)
_cell_length_c                   14.1035(5)
_cell_angle_alpha                110.423(1)
_cell_angle_beta                 96.468(1)
_cell_angle_gamma                90.752(1)
_cell_volume                     2189.65
loop_
_atom_site_label
_atom_site_type_symbol
_atom_site_fract_x
_atom_site_fract_y
_atom_site_fract_z
Cl1 Cl -0.40729(14) 0.86778(13) 0.36025(13)
Cl2 Cl -0.13487(12) 0.85363(12) 0.35134(11)
Cl3 Cl -0.26146(13) 0.72503(11) 0.47359(10)
Cl4 Cl -0.31128(13) 0.71264(12) 0.14793(10)
Cl5 Cl 0.25266(16) -0.38183(14) -0.64534(12)
Cl6 Cl 0.25352(15) -0.43327(13) -0.42740(13)
Cl7 Cl 0.42035(13) -0.23990(15) -0.43664(14)
Cl8 Cl 0.05743(13) -0.29328(12) -0.49844(12)
Si1 Si 0.18877(11) 0.18899(11) 0.18293(10)
N1 N -0.1871(4) 0.6064(4) 0.2770(3)
N2 N -0.4074(4) 0.6171(4) 0.2847(3)
N3 N 0.2235(4) -0.1869(4) -0.3257(3)
N4 N 0.2302(4) -0.1473(4) 0.4871(3)
C1 C 0.0723(4) 0.2779(4) 0.2062(3)
C2 C 0.0745(4) 0.3548(4) 0.3021(4)
C3 C 0.0042(4) 0.4369(4) 0.3232(4)
C4 C -0.0704(4) 0.4418(4) 0.2448(4)
C5 C -0.0796(5) 0.3634(5) 0.1494(4)
C6 C -0.0086(5) 0.2813(4) 0.1312(4)
C7 C -0.1372(5) 0.5325(5) 0.2624(4)
C8 C 0.3091(4) 0.2849(4) 0.2078(4)
C9 C 0.3638(5) 0.3350(4) 0.3048(4)
C10 C 0.4405(5) 0.4171(4) 0.3258(4)
C11 C 0.4614(4) 0.4531(4) 0.2481(4)
C12 C 0.4100(4) 0.4035(5) 0.1506(4)
C13 C 0.3347(5) 0.3210(4) 0.1307(4)
C14 C 0.5351(4) 0.5433(5) 0.2691(4)
C15 C 0.1794(4) 0.0898(4) 0.0473(3)
C16 C 0.1567(5) 0.1178(4) -0.0382(4)
C17 C 0.1633(5) 0.0461(5) -0.1360(4)
C18 C 0.1964(4) -0.05510(4) -0.1463(4)
C19 C 0.2193(5) -0.0857(4) -0.0623(4)
C20 C 0.2107(5) -0.0119(4) 0.0336(4)
C21 C 0.2101(5) -0.1289(5) -0.2474(5)
C22 C 0.2014(4) 0.1138(4) 0.2731(3)
C23 C 0.3016(4) 0.0771(4) 0.2984(4)
C24 C 0.3095(4) 0.0135(4) 0.3578(4)
C25 C 0.2179(4) -0.0127(4) 0.3938(4)
C26 C 0.1182(4) 0.0251(4) 0.3716(4)
C27 C 0.1107(4) 0.0884(4) 0.3121(4)
C28 C 0.2240(5) -0.0853(5) 0.4494(4)
Ti1 Ti -0.28435(8) 0.74679(7) 0.32139(7)
Ti2 Ti 0.24266(8) -0.29608(7) -0.48176(7)
H1 H 0.1263 0.3512 0.3557
H2 H 0.0072 0.4884 0.3899
H3 H -0.1337 0.3654 0.0969
H4 H -0.0157 0.2265 0.066
H5 H 0.3478 0.312 0.3584
H6 H 0.4785 0.4487 0.3924
H7 H 0.4266 0.4265 0.0971
H8 H 0.2991 0.2877 0.0633
H9 H 0.136 0.1879 -0.03
H10 H 0.1458 0.0658 -0.1941
H11 H 0.2404 -0.1556 -0.0703
H12 H 0.2269 -0.0321 0.0916
H13 H 0.3647 0.0959 0.2748
H14 H 0.3775 -0.0121 0.3737
H15 H 0.0557 0.0078 0.3971
H16 H 0.0427 0.1149 0.2975
N2_2 N 0.5926(4) 0.6171(4) 0.2847(3)
Ti1_2 Ti 0.71565(8) 0.74679(7) 0.32139(7)
Ti2_2 Ti 0.24266(8) -0.29608(7) 0.51824(7)
N4_2 N 0.2302(4) -0.1473(4) -0.5129(3)
C36 C 0.3105(14) 0.7574(12) 0.1113(16)
C37 C 0.2092(14) 0.7491(9) 0.1425(14)
C38 C 0.1538(11) 0.6500(10) 0.1130(11)
C39 C 0.1997(14) 0.5591(9) 0.0523(15)
C40 C 0.3010(15) 0.5674(12) 0.0211(18)
C41 C 0.3564(13) 0.6665(15) 0.0506(17)
C42 C 0.0451(12) 0.6411(17) 0.1465(17)
C29? C 0.4659(14) 0.0359(15) -0.1611(13)
C30? C 0.4875(12) 0.0185(15) -0.0671(12)
C31? C 0.4950(14) 0.1069(14) 0.0248(15)
C32? C 0.5189(12) 0.1050(12) 0.1240(12)
C33? C 0.5373(15) 0.0080(16) 0.1437(15)
C34? C 0.5301(15) -0.0864(17) 0.0422(16)
C35? C 0.5058(13) -0.0827(14) -0.0554(14)
C43? C 0.1331(11) 0.7588(9) 0.1580(13)
C44? C 0.2338(10) 0.7444(8) 0.1218(12)
C45? C 0.2666(8) 0.6420(9) 0.0738(8)
C46? C 0.1987(1) 0.5539(8) 0.0620(12)
C47? C 0.0980(11) 0.5683(10) 0.0983(14)
C48? C 0.0652(9) 0.6707(12) 0.1463(12)
C49? C 0.3747(10) 0.6265(14) 0.0349(14)
C50? C 0.2237(15) 0.5219(9) 0.0257(15)
C51? C 0.1391(12) 0.5691(9) 0.0795(13)
C52? C 0.1446(9) 0.6786(9) 0.1323(9)
C53? C 0.2348(12) 0.7409(8) 0.1312(14)
C54? C 0.3195(12) 0.6937(12) 0.0774(16)
C55? C 0.3139(13) 0.5842(12) 0.0247(14)
C56? C 0.0538(12) 0.7292(14) 0.1900(14)
loop_
_geom_bond_atom_site_label_1
_geom_bond_atom_site_label_2
_geom_bond_site_symmetry_1
_geom_bond_site_symmetry_2
Cl1 Ti1 1_555 1_555
Cl2 Ti1 1_555 1_555
Cl3 Ti1 1_555 1_555
Cl4 Ti1 1_555 1_555
Cl5 Ti2 1_555 1_555
Cl6 Ti2 1_555 1_555
Cl7 Ti2 1_555 1_555
Cl8 Ti2 1_555 1_555
Si1 C1 1_555 1_555
N1 C7 1_555 1_555
N2 Ti1 1_555 1_555
N3 C21 1_555 1_555
N4 C28 1_555 1_555
C1 C2 1_555 1_555
C2 C3 1_555 1_555
C3 C4 1_555 1_555
C4 C5 1_555 1_555
C5 C6 1_555 1_555
C6 C1 1_555 1_555
C7 C4 1_555 1_555
C8 Si1 1_555 1_555
C9 C8 1_555 1_555
C10 C9 1_555 1_555
C11 C10 1_555 1_555
C12 C11 1_555 1_555
C13 C8 1_555 1_555
C14 C11 1_555 1_555
C15 Si1 1_555 1_555
C16 C15 1_555 1_555
C17 C16 1_555 1_555
C18 C17 1_555 1_555
C19 C18 1_555 1_555
C20 C15 1_555 1_555
C21 C18 1_555 1_555
C22 Si1 1_555 1_555
C23 C22 1_555 1_555
C24 C23 1_555 1_555
C25 C24 1_555 1_555
C26 C25 1_555 1_555
C27 C22 1_555 1_555
C28 C25 1_555 1_555
Ti1 N1 1_555 1_555
Ti2 N3 1_555 1_555
H1 C2 1_555 1_555
H2 C3 1_555 1_555
H3 C5 1_555 1_555
H4 C6 1_555 1_555
H5 C9 1_555 1_555
H6 C10 1_555 1_555
H7 C12 1_555 1_555
H8 C13 1_555 1_555
H9 C16 1_555 1_555
H10 C17 1_555 1_555
H11 C19 1_555 1_555
H12 C20 1_555 1_555
H13 C23 1_555 1_555
H14 C24 1_555 1_555
H15 C26 1_555 1_555
H16 C27 1_555 1_555
C36 C37 1_555 1_555
C37 C38 1_555 1_555
C38 C39 1_555 1_555
C39 C40 1_555 1_555
C40 C41 1_555 1_555
C41 C36 1_555 1_555
C42 C38 1_555 1_555
N2_2 C14 1_555 1_555
Ti1_2 N2_2 1_555 1_555
Ti2_2 N4 1_555 1_555
N4_2 Ti2 1_555 1_555
C12 C13 1_555 1_555
C19 C20 1_555 1_555
C26 C27 1_555 1_555

#END
