
#######################################################################
#
#                 Cambridge Crystallographic Data Centre
#                                CCDC 
#
#######################################################################
#
# If this CIF has been generated from an entry in the Cambridge 
# Structural Database, then it will include bibliographic, chemical, 
# crystal, experimental, refinement or atomic coordinate data resulting 
# from the CCDC's data processing and validation procedures.
#
#######################################################################

data_PEFSEA
_symmetry_cell_setting           orthorhombic
_symmetry_space_group_name_H-M   'P 21 21 2'
_symmetry_Int_Tables_number      18
_space_group_name_Hall           'P 2 2ab'
loop_
_symmetry_equiv_pos_site_id
_symmetry_equiv_pos_as_xyz
1 x,y,z
2 -x,-y,z
3 1/2-x,1/2+y,-z
4 1/2+x,1/2-y,-z
_cell_length_a                   10.764(4)
_cell_length_b                   26.969(9)
_cell_length_c                   9.724(3)
_cell_angle_alpha                90
_cell_angle_beta                 90
_cell_angle_gamma                90
_cell_volume                     2822.82
loop_
_atom_site_label
_atom_site_type_symbol
_atom_site_fract_x
_atom_site_fract_y
_atom_site_fract_z
Cu1 Cu 0.89000(6) 0.166094(19) 0.18680(8)
Cu2 Cu 1.11481(6) 0.33226(2) 0.31354(8)
C1 C 0.9880(5) 0.26030(18) 0.1796(6)
C2 C 1.0265(5) 0.23766(18) 0.3145(7)
N1 N 1.1038(5) 0.40089(15) 0.2478(5)
N2 N 0.8928(5) 0.09869(17) 0.2530(6)
O1 O 1.0136(4) 0.30481(13) 0.1556(4)
O2 O 0.9982(4) 0.19220(13) 0.3412(4)
O3 O 0.8160(4) 0.15320(14) 0.0050(5)
O4 O 1.1799(4) 0.34607(14) 0.5025(4)
N3 N 1.0905(4) 0.26795(16) 0.3909(5)
N4 N 0.9301(4) 0.22797(17) 0.1034(5)
O5 O 1.2153(4) 0.31211(18) 0.7062(5)
O6 O 0.7966(4) 0.18591(18) -0.2063(5)
C3 C 1.0355(5) 0.47664(17) 0.1916(7)
C4 C 1.1195(6) 0.4607(2) 0.0941(8)
C5 C 1.1819(5) 0.3087(2) 0.5837(7)
C6 C 0.8831(6) 0.2372(2) -0.0365(6)
H1 H 0.8191 0.2631 -0.0344
C7 C 0.8268(6) 0.1883(2) -0.0839(7)
C8 C 1.0285(6) 0.4365(2) 0.2823(7)
C9 C 1.1408(5) 0.2581(2) 0.5231(6)
H2 H 1.0759 0.2438 0.5817
N5 N 1.1581(5) 0.41578(17) 0.1320(6)
H3 H 1.2117 0.3985 0.0871
C10 C 1.0584(8) 0.0679(3) 0.1019(9)
H4 H 1.0406 0.0987 0.0568
H5 H 1.0456 0.0410 0.0387
H6 H 1.1432 0.0678 0.1326
C11 C 0.9543(8) 0.4321(3) 0.4169(9)
H7 H 0.9686 0.4001 0.4571
H8 H 0.8673 0.4359 0.3978
H9 H 0.9805 0.4574 0.4798
C12 C 1.1640(8) 0.4848(3) -0.0330(9)
H10 H 1.2209 0.4631 -0.0796
H11 H 1.2056 0.5152 -0.0101
H12 H 1.0947 0.4918 -0.0920
N6 N 0.8343(5) 0.08301(17) 0.3716(6)
H13 H 0.7773 0.0994 0.4139
C13 C 0.9648(5) 0.02354(17) 0.3157(7)
C14 C 1.2515(6) 0.2226(2) 0.5183(8)
H14 H 1.2251 0.1912 0.4826
H15 H 1.2841 0.2183 0.6094
H16 H 1.3148 0.2362 0.4598
C15 C 0.9747(6) 0.0619(2) 0.2217(7)
C16 C 0.8784(6) 0.0385(2) 0.4122(8)
C17 C 0.8284(9) 0.0148(3) 0.5362(9)
H17 H 0.8673 -0.0169 0.5488
H18 H 0.7404 0.0104 0.5263
H19 H 0.8448 0.0354 0.6147
C18 C 0.9888(8) 0.2529(3) -0.1282(7)
H20 H 1.0221 0.2838 -0.0960
H21 H 0.9591 0.2569 -0.2206
H22 H 1.0526 0.2281 -0.1264
Cu1A Cu 1.11000(6) -0.166094(19) 0.18680(8)
Cu1C Cu 1.39000(6) 0.333906(19) 0.81320(8)
Cu1B Cu 0.61000(6) -0.333906(19) 0.81320(8)
Cu2C Cu 0.61481(6) 0.16774(2) -0.31354(8)
Cu2A Cu 0.88519(6) 0.66774(2) 0.31354(8)
Cu2A_2 Cu 0.88519(6) -0.33226(2) 0.31354(8)
Cu2B Cu 1.38519(6) -0.16774(2) -0.31354(8)
C1A C 1.0120(5) -0.26030(18) 0.1796(6)
C2A C 0.9735(5) -0.23766(18) 0.3145(7)
N1A N 0.8962(5) 0.59911(15) 0.2478(5)
N1A_2 N 0.8962(5) -0.40089(15) 0.2478(5)
N2A N 1.1072(5) -0.09869(17) 0.2530(6)
O1A O 0.9864(4) -0.30481(13) 0.1556(4)
O2A O 1.0018(4) -0.19220(13) 0.3412(4)
O3A O 1.1840(4) -0.15320(14) 0.0050(5)
O4A O 0.8201(4) -0.34607(14) 0.5025(4)
N3A N 0.9095(4) -0.26795(16) 0.3909(5)
N4A N 1.0699(4) -0.22797(17) 0.1034(5)
O5C O 0.7153(4) 0.18789(18) 0.2938(5)
O5B O 1.2847(4) -0.18789(18) 0.2938(5)
O5A O 0.7847(4) -0.31211(18) 0.7062(5)
O6C O 1.2966(4) 0.31409(18) 0.2063(5)
O6A O 1.2034(4) -0.18591(18) -0.2063(5)
O6B O 0.7034(4) -0.31409(18) 0.2063(5)
C3A C 0.9645(5) 0.52336(17) 0.1916(7)
C4A C 0.8805(6) 0.5393(2) 0.0941(8)
C5A C 0.8181(5) -0.3087(2) 0.5837(7)
C6A C 1.1169(6) -0.2372(2) -0.0365(6)
H1A H 1.1809 -0.2631 -0.0344
C7A C 1.1732(6) -0.1883(2) -0.0839(7)
C8A C 0.9715(6) 0.5635(2) 0.2823(7)
C9A C 0.8592(5) -0.2581(2) 0.5231(6)
H2A H 0.9241 -0.2438 0.5817
N5A N 0.8419(5) 0.58422(17) 0.1320(6)
H3A H 0.7883 0.6015 0.0871
C10A C 0.9416(8) -0.0679(3) 0.1019(9)
H4A H 0.9594 -0.0987 0.0568
H5A H 0.9544 -0.0410 0.0387
H6A H 0.8568 -0.0678 0.1326
C11A C 1.0457(8) 0.5679(3) 0.4169(9)
H7A H 1.0314 0.5999 0.4571
H8A H 1.1327 0.5641 0.3978
H9A H 1.0195 0.5426 0.4798
C12A C 0.8360(8) 0.5152(3) -0.0330(9)
H10A H 0.7791 0.5369 -0.0796
H11A H 0.7944 0.4848 -0.0101
H12A H 0.9053 0.5082 -0.0920
N6A N 1.1657(5) -0.08301(17) 0.3716(6)
H13A H 1.2227 -0.0994 0.4139
C13A C 1.0352(5) -0.02354(17) 0.3157(7)
C14A C 0.7485(6) -0.2226(2) 0.5183(8)
H14A H 0.7749 -0.1912 0.4826
H15A H 0.7159 -0.2183 0.6094
H16A H 0.6852 -0.2362 0.4598
C15A C 1.0253(6) -0.0619(2) 0.2217(7)
C16A C 1.1216(6) -0.0385(2) 0.4122(8)
C17A C 1.1716(9) -0.0148(3) 0.5362(9)
H17A H 1.1327 0.0169 0.5488
H18A H 1.2596 -0.0104 0.5263
H19A H 1.1552 -0.0354 0.6147
C18A C 1.0112(8) -0.2529(3) -0.1282(7)
H20A H 0.9779 -0.2838 -0.0960
H21A H 1.0409 -0.2569 -0.2206
H22A H 0.9474 -0.2281 -0.1264
O7 O 1.4928(7) 0.3578(3) 0.3877(8)
O8 O 0.8404(12) 0.3699(5) 0.0277(14)
loop_
_geom_bond_atom_site_label_1
_geom_bond_atom_site_label_2
_geom_bond_site_symmetry_1
_geom_bond_site_symmetry_2
Cu1 N2 1_555 1_555
Cu2 N1 1_555 1_555
C1 C2 1_555 1_555
C2 O2 1_555 1_555
N1 C8 1_555 1_555
N2 N6 1_555 1_555
O1 Cu2 1_555 1_555
O2 Cu1 1_555 1_555
O3 Cu1 1_555 1_555
O4 Cu2 1_555 1_555
N3 Cu2 1_555 1_555
N4 Cu1 1_555 1_555
O5 C5 1_555 1_555
O6 C7 1_555 1_555
C3 C4 1_555 1_555
C4 N5 1_555 1_555
C5 O4 1_555 1_555
C6 N4 1_555 1_555
H1 C6 1_555 1_555
C7 O3 1_555 1_555
C8 C3 1_555 1_555
C9 N3 1_555 1_555
H2 C9 1_555 1_555
N5 N1 1_555 1_555
H3 N5 1_555 1_555
C10 H4 1_555 1_555
H5 C10 1_555 1_555
H6 C10 1_555 1_555
C11 C8 1_555 1_555
H7 C11 1_555 1_555
H8 C11 1_555 1_555
H9 C11 1_555 1_555
C12 C4 1_555 1_555
H10 C12 1_555 1_555
H11 C12 1_555 1_555
H12 C12 1_555 1_555
N6 H13 1_555 1_555
C13 C15 1_555 1_555
C14 C9 1_555 1_555
H14 C14 1_555 1_555
H15 C14 1_555 1_555
H16 C14 1_555 1_555
C15 N2 1_555 1_555
C16 N6 1_555 1_555
C17 C16 1_555 1_555
H17 C17 1_555 1_555
H18 C17 1_555 1_555
H19 C17 1_555 1_555
C18 C6 1_555 1_555
H20 C18 1_555 1_555
H21 C18 1_555 1_555
H22 C18 1_555 1_555
Cu1A N2A 1_555 1_555
Cu1C O5 1_555 1_555
Cu1B O5A 1_555 1_555
Cu2C O6 1_555 1_555
Cu2A N1A 1_555 1_555
Cu2A_2 N1A_2 1_555 1_555
Cu2B O6A 1_555 1_555
C1A C2A 1_555 1_555
C2A O2A 1_555 1_555
N1A C8A 1_555 1_555
N2A N6A 1_555 1_555
O1A Cu2A_2 1_555 1_555
O2A Cu1A 1_555 1_555
O3A Cu1A 1_555 1_555
O4A Cu2A_2 1_555 1_555
N3A Cu2A_2 1_555 1_555
N4A Cu1A 1_555 1_555
O5C Cu1 1_555 1_555
O5B Cu1A 1_555 1_555
O5A C5A 1_555 1_555
O6C Cu2 1_555 1_555
O6A C7A 1_555 1_555
O6B Cu2A_2 1_555 1_555
C3A C3 1_555 1_555
C4A C3A 1_555 1_555
C5A O4A 1_555 1_555
C6A N4A 1_555 1_555
H1A C6A 1_555 1_555
C7A O3A 1_555 1_555
C8A C3A 1_555 1_555
C9A N3A 1_555 1_555
H2A C9A 1_555 1_555
N5A N1A 1_555 1_555
H3A N5A 1_555 1_555
C10A H4A 1_555 1_555
H5A C10A 1_555 1_555
H6A C10A 1_555 1_555
C11A C8A 1_555 1_555
H7A C11A 1_555 1_555
H8A C11A 1_555 1_555
H9A C11A 1_555 1_555
C12A C4A 1_555 1_555
H10A C12A 1_555 1_555
H11A C12A 1_555 1_555
H12A C12A 1_555 1_555
N6A H13A 1_555 1_555
C13A C13 1_555 1_555
C14A C9A 1_555 1_555
H14A C14A 1_555 1_555
H15A C14A 1_555 1_555
H16A C14A 1_555 1_555
C15A N2A 1_555 1_555
C16A N6A 1_555 1_555
C17A C16A 1_555 1_555
H17A C17A 1_555 1_555
H18A C17A 1_555 1_555
H19A C17A 1_555 1_555
C18A C6A 1_555 1_555
H20A C18A 1_555 1_555
H21A C18A 1_555 1_555
H22A C18A 1_555 1_555
C1 O1 1_555 1_555
C1 N4 1_555 1_555
C2 N3 1_555 1_555
C5 C9 1_555 1_555
C6 C7 1_555 1_555
C10 C15 1_555 1_555
C13 C16 1_555 1_555
C1A O1A 1_555 1_555
C1A N4A 1_555 1_555
C2A N3A 1_555 1_555
C4A N5A 1_555 1_555
C5A C9A 1_555 1_555
C6A C7A 1_555 1_555
C10A C15A 1_555 1_555
C13A C15A 1_555 1_555
C13A C16A 1_555 1_555

#END
