
#######################################################################
#
#                 Cambridge Crystallographic Data Centre
#                                CCDC 
#
#######################################################################
#
# If this CIF has been generated from an entry in the Cambridge 
# Structural Database, then it will include bibliographic, chemical, 
# crystal, experimental, refinement or atomic coordinate data resulting 
# from the CCDC's data processing and validation procedures.
#
#######################################################################

data_PEGBUA
_symmetry_cell_setting           monoclinic
_symmetry_space_group_name_H-M   'P 21/n'
_symmetry_Int_Tables_number      14
_space_group_name_Hall           '-P 2yn'
loop_
_symmetry_equiv_pos_site_id
_symmetry_equiv_pos_as_xyz
1 x,y,z
2 1/2-x,1/2+y,1/2-z
3 -x,-y,-z
4 1/2+x,1/2-y,1/2+z
_cell_length_a                   10.6825(13)
_cell_length_b                   12.3388(15)
_cell_length_c                   17.126(2)
_cell_angle_alpha                90
_cell_angle_beta                 95.447(2)
_cell_angle_gamma                90
_cell_volume                     2247.17
loop_
_atom_site_label
_atom_site_type_symbol
_atom_site_fract_x
_atom_site_fract_y
_atom_site_fract_z
Zn1 Zn 0.72690(2) 0.73659(2) 0.600912(15)
Zn2 Zn 0.20692(2) 0.74499(2) 0.456589(15)
N1 N 0.88321(18) 0.79953(17) 0.56428(12)
N2 N 1.0745(2) 0.87308(18) 0.56223(13)
N3 N 1.05801(18) 0.79223(17) 0.50553(12)
N4 N 0.74475(17) 0.59022(16) 0.55065(11)
N5 N 0.85109(17) 0.47008(16) 0.48414(11)
N6 N 0.77567(18) 0.41577(16) 0.53336(11)
N7 N 0.56541(17) 0.79903(16) 0.55525(11)
N8 N 0.56849(18) 0.85881(16) 0.48654(11)
N9 N 0.37077(17) 0.80692(16) 0.49965(11)
N10 N 0.23115(18) 0.78417(16) 0.34494(11)
N11 N 0.33123(18) 0.85559(17) 0.24826(11)
N12 N 0.24036(19) 0.78242(17) 0.21716(11)
C1 C 0.0856(2) 0.6553(2) 0.26822(14)
H1 H 0.0669 0.6368 0.2127
H2 H 0.0090 0.6818 0.2892
H3 H 0.1162 0.5908 0.2975
C2 C 0.1838(2) 0.74134(18) 0.27631(14)
C3 C 0.3232(2) 0.85260(19) 0.32413(13)
C4 C 0.4056(2) 0.9196(2) 0.38161(14)
H4 H 0.4796 0.9445 0.3558
H5 H 0.3582 0.9848 0.3953
C5 C 0.4508(2) 0.86096(18) 0.45584(13)
C6 C 0.4466(2) 0.76944(19) 0.56086(13)
C7 C 0.4003(2) 0.7036(2) 0.62493(15)
H6 H 0.4716 0.6816 0.6618
H7 H 0.3573 0.6389 0.6026
H8 H 0.3415 0.7468 0.6526
C8 C 0.9451(3) 0.9486(3) 0.6608(2)
H9 H 1.0196 0.9937 0.6738
H10 H 0.9275 0.9061 0.7068
H11 H 0.8728 0.9951 0.6447
C9 C 0.9682(2) 0.8741(2) 0.59555(15)
C10 C 0.9445(2) 0.75051(18) 0.50855(14)
C11 C 0.8895(2) 0.66334(19) 0.45526(13)
H12 H 0.9568 0.6326 0.4260
H13 H 0.8257 0.6960 0.4165
C12 C 0.8292(2) 0.57316(19) 0.49696(12)
C13 C 0.7139(2) 0.48942(19) 0.57077(13)
C14 C 0.6190(3) 0.4635(2) 0.62755(17)
H14 H 0.6173 0.3851 0.6363
H15 H 0.5357 0.4880 0.6059
H16 H 0.6424 0.5005 0.6774
Zn1C Zn 0.22690(2) 0.76341(2) 0.100912(15)
Zn2_2 Zn 1.20692(2) 0.74499(2) 0.456589(15)
Zn2B Zn 0.79308(2) 0.25501(2) 0.543411(15)
N3_2 N 0.05801(18) 0.79223(17) 0.50553(12)
N6B N 0.22433(18) 0.58423(16) 0.46664(11)
N12C N 0.74036(19) 0.71758(17) 0.71716(11)
C15 C 0.744(4) 0.963(4) 0.383(2)
O1 O 0.815(5) 0.894(4) 0.398(3)
O2 O 0.669(5) 1.021(5) 0.354(3)
loop_
_geom_bond_atom_site_label_1
_geom_bond_atom_site_label_2
_geom_bond_site_symmetry_1
_geom_bond_site_symmetry_2
Zn1 N1 1_555 1_555
Zn2 N9 1_555 1_555
N1 C9 1_555 1_555
N2 N3 1_555 1_555
N3 C10 1_555 1_555
N4 Zn1 1_555 1_555
N5 N6 1_555 1_555
N6 C13 1_555 1_555
N7 Zn1 1_555 1_555
N8 N7 1_555 1_555
N9 C5 1_555 1_555
N10 Zn2 1_555 1_555
N11 N12 1_555 1_555
N12 C2 1_555 1_555
C1 H1 1_555 1_555
H2 C1 1_555 1_555
H3 C1 1_555 1_555
C2 N10 1_555 1_555
C3 N10 1_555 1_555
C4 C3 1_555 1_555
H4 C4 1_555 1_555
H5 C4 1_555 1_555
C5 N8 1_555 1_555
C6 N7 1_555 1_555
C7 C6 1_555 1_555
H6 C7 1_555 1_555
H7 C7 1_555 1_555
H8 C7 1_555 1_555
C8 H9 1_555 1_555
H10 C8 1_555 1_555
H11 C8 1_555 1_555
C9 N2 1_555 1_555
C10 N1 1_555 1_555
C11 C10 1_555 1_555
H12 C11 1_555 1_555
H13 C11 1_555 1_555
C12 N4 1_555 1_555
C13 N4 1_555 1_555
C14 C13 1_555 1_555
H14 C14 1_555 1_555
H15 C14 1_555 1_555
H16 C14 1_555 1_555
C15 O1 1_555 1_555
O2 C15 1_555 1_555
Zn1C N12 1_555 1_555
Zn2_2 N3 1_555 1_555
Zn2B N6 1_555 1_555
N3_2 Zn2 1_555 1_555
N6B Zn2 1_555 1_555
N12C Zn1 1_555 1_555
N5 C12 1_555 1_555
N9 C6 1_555 1_555
N11 C3 1_555 1_555
C1 C2 1_555 1_555
C4 C5 1_555 1_555
C8 C9 1_555 1_555
C11 C12 1_555 1_555

#END
