
#######################################################################
#
#                 Cambridge Crystallographic Data Centre
#                                CCDC 
#
#######################################################################
#
# If this CIF has been generated from an entry in the Cambridge 
# Structural Database, then it will include bibliographic, chemical, 
# crystal, experimental, refinement or atomic coordinate data resulting 
# from the CCDC's data processing and validation procedures.
#
#######################################################################

data_PEGBEK
_symmetry_cell_setting           monoclinic
_symmetry_space_group_name_H-M   'P 21/n'
_symmetry_Int_Tables_number      14
_space_group_name_Hall           '-P 2yn'
loop_
_symmetry_equiv_pos_site_id
_symmetry_equiv_pos_as_xyz
1 x,y,z
2 1/2-x,1/2+y,1/2-z
3 -x,-y,-z
4 1/2+x,1/2-y,1/2+z
_cell_length_a                   10.7032(11)
_cell_length_b                   12.3190(12)
_cell_length_c                   17.0785(17)
_cell_angle_alpha                90
_cell_angle_beta                 95.532(2)
_cell_angle_gamma                90
_cell_volume                     2241.36
loop_
_atom_site_label
_atom_site_type_symbol
_atom_site_fract_x
_atom_site_fract_y
_atom_site_fract_z
Zn1 Zn 0.72783(2) 0.73667(2) 0.600870(15)
Zn2 Zn 0.70751(2) 0.754380(19) 0.957560(15)
N1 N 0.88390(17) 0.79970(15) 0.56458(11)
N2 N 1.07414(18) 0.87376(16) 0.56317(12)
N3 N 1.05855(17) 0.79322(15) 0.50642(11)
N4 N 0.74593(16) 0.59035(14) 0.55006(10)
N5 N 0.85137(16) 0.46996(15) 0.48337(10)
N6 N 0.77579(17) 0.41566(15) 0.53224(11)
N7 N 1.06594(16) 0.70061(15) 1.05568(10)
N8 N 1.06826(17) 0.64013(15) 0.98675(10)
N9 N 0.87148(16) 0.69268(15) 1.00070(11)
N10 N 0.73167(17) 0.71525(15) 0.84556(11)
N11 N 0.83139(17) 0.64328(15) 0.74863(11)
N12 N 0.74108(18) 0.71721(16) 0.71727(11)
C1 C 0.5867(2) 0.84501(19) 0.76825(13)
H1 H 0.5688 0.8640 0.7126
H2 H 0.5099 0.8185 0.7887
H3 H 0.6171 0.9094 0.7980
C2 C 0.6848(2) 0.75834(16) 0.77660(13)
C3 C 0.8229(2) 0.64592(17) 0.82471(13)
C4 C 0.9046(2) 0.57872(18) 0.88273(13)
H4 H 0.9780 0.5527 0.8570
H5 H 0.8566 0.5142 0.8971
C5 C 0.9507(2) 0.63823(17) 0.95648(13)
C6 C 0.9482(2) 0.73066(17) 1.06148(13)
C7 C 0.9027(2) 0.7970(2) 1.12611(14)
H6 H 0.9744 0.8204 1.1621
H7 H 0.8578 0.8608 1.1037
H8 H 0.8459 0.7532 1.1550
C8 C 0.9444(3) 0.9488(3) 0.66159(18)
H9 H 1.0200 0.9915 0.6771
H10 H 0.9221 0.9060 0.7066
H11 H 0.8750 0.9977 0.6443
C9 C 0.9687(2) 0.87472(19) 0.59615(14)
C10 C 0.9455(2) 0.75133(16) 0.50887(14)
C11 C 0.8910(2) 0.66376(17) 0.45510(12)
H12 H 0.9586 0.6331 0.4261
H13 H 0.8278 0.6965 0.4160
C12 C 0.83046(19) 0.57325(17) 0.49622(12)
C13 C 0.7144(2) 0.48927(18) 0.57023(13)
C14 C 0.6193(2) 0.46358(19) 0.62615(15)
H14 H 0.6169 0.3850 0.6347
H15 H 0.5364 0.4887 0.6040
H16 H 0.6421 0.5003 0.6764
Zn1C Zn 1.22783(2) 0.76333(2) 1.100870(15)
Zn2C Zn 1.20751(2) 0.745620(19) 0.457560(15)
Zn2A Zn 0.79249(2) 0.254380(19) 0.542440(15)
N3C N 0.55855(17) 0.70678(15) 1.00642(11)
N6A N 0.72421(17) 0.91566(15) 0.96776(11)
N7C N 0.56594(16) 0.79939(15) 0.55568(10)
loop_
_geom_bond_atom_site_label_1
_geom_bond_atom_site_label_2
_geom_bond_site_symmetry_1
_geom_bond_site_symmetry_2
Zn1 N1 1_555 1_555
Zn2 N9 1_555 1_555
N1 C9 1_555 1_555
N2 N3 1_555 1_555
N3 C10 1_555 1_555
N4 Zn1 1_555 1_555
N5 N6 1_555 1_555
N6 C13 1_555 1_555
N7 N8 1_555 1_555
N8 C5 1_555 1_555
N9 C5 1_555 1_555
N10 Zn2 1_555 1_555
N11 N12 1_555 1_555
N12 Zn1 1_555 1_555
C1 H1 1_555 1_555
H2 C1 1_555 1_555
H3 C1 1_555 1_555
C2 N10 1_555 1_555
C3 N10 1_555 1_555
C4 C3 1_555 1_555
H4 C4 1_555 1_555
H5 C4 1_555 1_555
C5 C4 1_555 1_555
C6 N7 1_555 1_555
C7 C6 1_555 1_555
H6 C7 1_555 1_555
H7 C7 1_555 1_555
H8 C7 1_555 1_555
C8 H9 1_555 1_555
H10 C8 1_555 1_555
H11 C8 1_555 1_555
C9 N2 1_555 1_555
C10 N1 1_555 1_555
C11 C10 1_555 1_555
H12 C11 1_555 1_555
H13 C11 1_555 1_555
C12 N4 1_555 1_555
C13 N4 1_555 1_555
C14 C13 1_555 1_555
H14 C14 1_555 1_555
H15 C14 1_555 1_555
H16 C14 1_555 1_555
Zn1C N7 1_555 1_555
Zn2C N3 1_555 1_555
Zn2A N6 1_555 1_555
N3C Zn2 1_555 1_555
N6A Zn2 1_555 1_555
N7C Zn1 1_555 1_555
N5 C12 1_555 1_555
N9 C6 1_555 1_555
N11 C3 1_555 1_555
N12 C2 1_555 1_555
C1 C2 1_555 1_555
C8 C9 1_555 1_555
C11 C12 1_555 1_555

#END
