
#######################################################################
#
#                 Cambridge Crystallographic Data Centre
#                                CCDC 
#
#######################################################################
#
# If this CIF has been generated from an entry in the Cambridge 
# Structural Database, then it will include bibliographic, chemical, 
# crystal, experimental, refinement or atomic coordinate data resulting 
# from the CCDC's data processing and validation procedures.
#
#######################################################################

data_PEGCAH
_symmetry_cell_setting           monoclinic
_symmetry_space_group_name_H-M   'P 21/n'
_symmetry_Int_Tables_number      14
_space_group_name_Hall           '-P 2yn'
loop_
_symmetry_equiv_pos_site_id
_symmetry_equiv_pos_as_xyz
1 x,y,z
2 1/2-x,1/2+y,1/2-z
3 -x,-y,-z
4 1/2+x,1/2-y,1/2+z
_cell_length_a                   10.8291(17)
_cell_length_b                   12.529(2)
_cell_length_c                   16.848(3)
_cell_angle_alpha                90
_cell_angle_beta                 94.993(3)
_cell_angle_gamma                90
_cell_volume                     2277.23
loop_
_atom_site_label
_atom_site_type_symbol
_atom_site_fract_x
_atom_site_fract_y
_atom_site_fract_z
Zn1 Zn 0.72460(4) 0.73215(4) 0.59558(3)
Zn2 Zn 0.20579(4) 0.74327(3) 0.45673(3)
N1 N 0.8783(3) 0.7954(3) 0.5584(2)
N2 N 1.0632(3) 0.8739(3) 0.5573(3)
N3 N 1.0549(3) 0.7904(3) 0.5029(2)
N4 N 0.7484(3) 0.5872(3) 0.54786(19)
N5 N 0.8563(3) 0.4678(3) 0.4827(2)
N6 N 0.7809(3) 0.4150(3) 0.5328(2)
N7 N 0.5645(3) 0.7922(3) 0.5506(2)
N8 N 0.5634(3) 0.8553(3) 0.4825(2)
N9 N 0.3711(3) 0.7999(3) 0.4984(2)
N10 N 0.2288(3) 0.7843(3) 0.3435(2)
N11 N 0.3266(3) 0.8575(3) 0.2456(2)
N12 N 0.2383(3) 0.7852(3) 0.2141(2)
C1 C 0.0858(4) 0.6588(3) 0.2645(3)
H1 H 0.0649 0.6440 0.2078
H2 H 0.0116 0.6833 0.2885
H3 H 0.1171 0.5936 0.2914
C2 C 0.1833(4) 0.7435(3) 0.2735(3)
C3 C 0.3185(4) 0.8535(3) 0.3225(2)
C4 C 0.3981(4) 0.9191(3) 0.3818(3)
H4 H 0.4688 0.9483 0.3552
H5 H 0.3488 0.9802 0.3989
C5 C 0.4470(4) 0.8575(3) 0.4539(2)
C6 C 0.4483(4) 0.7609(3) 0.5578(3)
C7 C 0.4073(4) 0.6926(4) 0.6228(3)
H6 H 0.4798 0.6700 0.6576
H7 H 0.3643 0.6295 0.5997
H8 H 0.3510 0.7332 0.6538
C8 C 0.9249(6) 0.9509(5) 0.6504(5)
H9 H 1.0005 0.9718 0.6830
H10 H 0.8669 0.9175 0.6845
H11 H 0.8863 1.0143 0.6248
C9 C 0.9566(4) 0.8740(4) 0.5885(3)
C10 C 0.9441(4) 0.7461(3) 0.5054(3)
C11 C 0.8945(4) 0.6574(3) 0.4520(2)
H12 H 0.8333 0.6873 0.4108
H13 H 0.9635 0.6269 0.4244
C12 C 0.8341(3) 0.5695(3) 0.4949(2)
C13 C 0.7180(4) 0.4875(3) 0.5697(2)
C14 C 0.6243(4) 0.4624(4) 0.6266(3)
H14 H 0.6307 0.3869 0.6416
H15 H 0.5410 0.4769 0.6013
H16 H 0.6394 0.5069 0.6743
Zn1C Zn 0.22460(4) 0.76785(4) 0.09558(3)
Zn2_2 Zn 1.20579(4) 0.74327(3) 0.45673(3)
Zn2B Zn 0.79421(4) 0.25673(3) 0.54327(3)
N3_2 N 0.0549(3) 0.7904(3) 0.5029(2)
N6B N 0.2191(3) 0.5850(3) 0.4672(2)
N12C N 0.7383(3) 0.7148(3) 0.7141(2)
C15 C 0.7450(6) 0.9714(6) 0.3718(5)
O1 O 0.8121(5) 0.9062(4) 0.3732(4)
O2 O 0.6758(5) 1.0406(5) 0.3636(5)
C16 C 0.5989(11) 0.8822(10) 0.1952(8)
O3 O 0.5952(9) 0.9695(9) 0.2030(6)
O4 O 0.6053(9) 0.7989(10) 0.1942(11)
loop_
_geom_bond_atom_site_label_1
_geom_bond_atom_site_label_2
_geom_bond_site_symmetry_1
_geom_bond_site_symmetry_2
Zn1 N1 1_555 1_555
Zn2 N9 1_555 1_555
N1 C9 1_555 1_555
N2 N3 1_555 1_555
N3 C10 1_555 1_555
N4 Zn1 1_555 1_555
N5 N6 1_555 1_555
N6 C13 1_555 1_555
N7 Zn1 1_555 1_555
N8 N7 1_555 1_555
N9 C5 1_555 1_555
N10 Zn2 1_555 1_555
N11 N12 1_555 1_555
N12 C2 1_555 1_555
C1 H1 1_555 1_555
H2 C1 1_555 1_555
H3 C1 1_555 1_555
C2 N10 1_555 1_555
C3 N10 1_555 1_555
C4 C3 1_555 1_555
H4 C4 1_555 1_555
H5 C4 1_555 1_555
C5 N8 1_555 1_555
C6 N7 1_555 1_555
C7 C6 1_555 1_555
H6 C7 1_555 1_555
H7 C7 1_555 1_555
H8 C7 1_555 1_555
C8 H9 1_555 1_555
H10 C8 1_555 1_555
H11 C8 1_555 1_555
C9 N2 1_555 1_555
C10 N1 1_555 1_555
C11 C10 1_555 1_555
H12 C11 1_555 1_555
H13 C11 1_555 1_555
C12 N4 1_555 1_555
C13 N4 1_555 1_555
C14 C13 1_555 1_555
H14 C14 1_555 1_555
H15 C14 1_555 1_555
H16 C14 1_555 1_555
C15 O1 1_555 1_555
O2 C15 1_555 1_555
C16 O3 1_555 1_555
O4 C16 1_555 1_555
Zn1C N12 1_555 1_555
Zn2_2 N3 1_555 1_555
Zn2B N6 1_555 1_555
N3_2 Zn2 1_555 1_555
N6B Zn2 1_555 1_555
N12C Zn1 1_555 1_555
N5 C12 1_555 1_555
N9 C6 1_555 1_555
N11 C3 1_555 1_555
C1 C2 1_555 1_555
C4 C5 1_555 1_555
C8 C9 1_555 1_555
C11 C12 1_555 1_555

#END
