
#######################################################################
#
#                 Cambridge Crystallographic Data Centre
#                                CCDC 
#
#######################################################################
#
# If this CIF has been generated from an entry in the Cambridge 
# Structural Database, then it will include bibliographic, chemical, 
# crystal, experimental, refinement or atomic coordinate data resulting 
# from the CCDC's data processing and validation procedures.
#
#######################################################################

data_PEKKAS
_symmetry_cell_setting           hexagonal
_symmetry_space_group_name_H-M   'P 62 2 2'
_symmetry_Int_Tables_number      180
_space_group_name_Hall           "P 62 2' (0,0,4)"
loop_
_symmetry_equiv_pos_site_id
_symmetry_equiv_pos_as_xyz
1 x,y,z
2 -x,-y,z
3 -y,-x,2/3-z
4 y,x,2/3-z
5 x-y,-y,-z
6 -x+y,y,-z
7 x,x-y,1/3-z
8 -x,-x+y,1/3-z
9 -y,x-y,2/3+z
10 y,-x+y,2/3+z
11 x-y,x,1/3+z
12 -x+y,-x,1/3+z
_cell_length_a                   9.0148(3)
_cell_length_b                   9.0148(3)
_cell_length_c                   11.4645(3)
_cell_angle_alpha                90
_cell_angle_beta                 90
_cell_angle_gamma                120
_cell_volume                     806.86
loop_
_atom_site_label
_atom_site_type_symbol
_atom_site_fract_x
_atom_site_fract_y
_atom_site_fract_z
In1 In 0.5000 0.5000 0.3333
O2 O 0.2655(11) 0.3407(10) 0.4371(6)
O3 O 0.4433(13) 0.6868(13) 0.4431(8)
C1 C 0.2090(9) 0.4180(17) 0.5000
C2 C 0.3084(9) 0.6169(17) 0.5000
In1D In 0.0000 0.5000 0.6667
In1D_2 In 1.0000 0.5000 0.6667
O2E O 0.0752(15) 0.3407(10) 0.5629(6)
O2A O 0.7345(11) 0.6593(10) 0.4371(6)
O2D O 0.9248(15) 0.6593(10) 0.5629(6)
O2B O 0.6593(10) 0.7345(11) 0.2296(6)
O2C O 0.3407(10) 0.2655(11) 0.2296(6)
O3E O 0.2435(18) 0.6868(13) 0.5569(8)
O3A O 0.5567(13) 0.3132(13) 0.4431(8)
O3D O 0.7565(18) 0.3132(13) 0.5569(8)
O3B O 0.3132(13) 0.5567(13) 0.2236(8)
O3C O 0.6868(13) 0.4433(13) 0.2236(8)
C1A C 0.7910(9) 0.5820(17) 0.5000
C2A C 0.6916(9) 0.3831(17) 0.5000
O1 O 0.0000 0.0000 0.0000
O4 O 0.224(2) 0.0000 0.5000
O5 O 0.5000 0.5000 0.633(4)
Rb1? Rb 0.0000 0.0000 0.0000
Rb2? Rb 0.224(2) 0.0000 0.5000
loop_
_geom_bond_atom_site_label_1
_geom_bond_atom_site_label_2
_geom_bond_site_symmetry_1
_geom_bond_site_symmetry_2
In1 O2 1_555 1_555
O2 C1 1_555 1_555
O3 In1 1_555 1_555
C1 C2 1_555 1_555
C2 O3 1_555 1_555
In1D O2E 1_555 1_555
In1D_2 O2D 1_555 1_555
O2E C1 1_555 1_555
O2A In1 1_555 1_555
O2D C1A 1_555 1_555
O2B In1 1_555 1_555
O2C In1 1_555 1_555
O3E C2 1_555 1_555
O3A In1 1_555 1_555
O3D In1D_2 1_555 1_555
O3B In1 1_555 1_555
O3C In1 1_555 1_555
C1A O2A 1_555 1_555
C2A O3A 1_555 1_555
In1D O3E 1_555 1_555
O3D C2A 1_555 1_555
C1A C2A 1_555 1_555

#END
