
#######################################################################
#
#                 Cambridge Crystallographic Data Centre
#                                CCDC 
#
#######################################################################
#
# If this CIF has been generated from an entry in the Cambridge 
# Structural Database, then it will include bibliographic, chemical, 
# crystal, experimental, refinement or atomic coordinate data resulting 
# from the CCDC's data processing and validation procedures.
#
#######################################################################

data_PELGOE
_symmetry_cell_setting           trigonal
_symmetry_space_group_name_H-M   'P 32 2 1'
_symmetry_Int_Tables_number      154
_space_group_name_Hall           'P 32 2"'
loop_
_symmetry_equiv_pos_site_id
_symmetry_equiv_pos_as_xyz
1 x,y,z
2 -y,x-y,2/3+z
3 -x+y,-x,1/3+z
4 x-y,-y,1/3-z
5 -x,-x+y,2/3-z
6 y,x,-z
_cell_length_a                   11.4284(7)
_cell_length_b                   11.4284(7)
_cell_length_c                   30.743(4)
_cell_angle_alpha                90
_cell_angle_beta                 90
_cell_angle_gamma                120
_cell_volume                     3477.34
loop_
_atom_site_label
_atom_site_type_symbol
_atom_site_fract_x
_atom_site_fract_y
_atom_site_fract_z
Co1 Co 0.0000 0.93788(4) 0.8333
Co2 Co 0.08570(4) 1.08570(4) 1.0000
N1 N -0.1056(3) 0.8944(3) 1.0000
N2 N 0.0000 0.1262(3) 0.8333
N3 N -0.7259(3) 0.2741(3) 1.0000
S1 S 0.27906(10) 0.94652(9) 0.99704(3)
C1 C 0.0000 0.5026(4) 0.8333
C2 C -0.4813(5) 0.5187(5) 1.0000
C3 C 0.5269(4) 1.1556(4) 0.97264(14)
H1 H 0.5585 1.1307 0.9976
O1 O 0.1044(2) 1.0364(2) 0.93672(7)
O2 O 0.1942(3) 0.9894(2) 1.02097(8)
O3 O 0.3677(3) 0.9290(3) 1.02686(10)
C4 C 0.1957(3) 1.0506(3) 0.91034(10)
C5 C 0.3428(3) 1.1179(3) 0.92503(11)
C6 C -0.3476(4) 0.7726(4) 1.00069(18)
H2 H -0.4293 0.7753 1.0007
C7 C -0.2226(4) 0.8930(4) 1.00138(16)
H3 H -0.2216 0.9766 1.0029
O4 O 0.1744(2) 1.0182(2) 0.87134(7)
O5 O 0.1998(3) 0.8328(3) 0.96852(10)
C8 C 0.3887(3) 1.0846(3) 0.96240(11)
C9 C 0.4363(4) 1.2218(4) 0.89825(13)
H4 H 0.4065 1.2426 0.8720
C10 C 0.5711(4) 1.2943(4) 0.90943(16)
H5 H 0.6326 1.3670 0.8915
C11 C 0.0000 0.3719(4) 0.8333
O6 O 0.1341(3) 1.0059(3) 0.77910(9)
H6 H 0.2069 1.0073 0.7858
H7 H 0.0968 0.9523 0.7579
C12 C -0.0139(5) 0.3029(4) 0.87157(11)
H8 H -0.0237 0.3379 0.8985
C13 C -0.0135(4) 0.1809(4) 0.87033(11)
H9 H -0.0233 0.1345 0.8969
C14 C 0.0194(5) 0.5762(4) 0.87122(12)
H10 H 0.0313 0.5429 0.8982
N4 N 0.0000 0.7478(3) 0.8333
C15 C -0.5083(4) 0.4210(4) 1.03112(14)
H11 H -0.4434 0.4351 1.0528
C16 C -0.6317(4) 0.3024(4) 1.03005(13)
H12 H -0.6502 0.2372 1.0521
C17 C 0.0215(5) 0.6988(4) 0.86958(12)
H13 H 0.0390 0.7496 0.8956
C18 C 0.6178(4) 1.2618(5) 0.94675(16)
H14 H 0.7107 1.3117 0.9544
C19 C -0.3508(4) 0.6492(4) 1.0000
Co1_2 Co 0.0000 -0.06212(4) 0.8333
Co2_2 Co -0.91430(4) 0.08570(4) 1.0000
Co2A Co -0.08570(4) 1.00000(6) 0.6667
N2_2 N 0.0000 1.1262(3) 0.8333
N3_2 N 0.2741(3) 1.2741(3) 1.0000
S1D S -0.27906(10) 0.66746(13) 0.66963(3)
C3D C -0.5269(4) 0.6287(6) 0.69403(14)
H1D H -0.5585 0.5722 0.6691
O1D O -0.1044(2) 0.9320(3) 0.72995(7)
O1E O 0.0364(2) 1.1044(2) 1.06328(7)
O2D O -0.1942(3) 0.7952(4) 0.64570(8)
O2E O -0.0106(2) 1.1942(3) 0.97903(8)
O3D O -0.3677(3) 0.5613(4) 0.63981(10)
C4D C -0.1957(3) 0.8549(4) 0.75633(10)
C5D C -0.3428(3) 0.7751(4) 0.74164(11)
C6E C -0.2274(4) 0.6524(4) 0.99931(18)
H2E H -0.2247 0.5707 0.9993
C7E C -0.1070(4) 0.7774(4) 0.99862(16)
H3E H -0.0234 0.7784 0.9971
O4D O -0.1744(2) 0.8438(3) 0.79533(7)
O5D O -0.1998(3) 0.6330(4) 0.69815(10)
C8D C -0.3887(3) 0.6959(4) 0.70427(11)
C9D C -0.4363(4) 0.7855(6) 0.76842(13)
H4D H -0.4065 0.8361 0.7947
C10D C -0.5711(4) 0.7232(6) 0.75724(16)
H5D H -0.6326 0.7344 0.7752
O6D O -0.1341(3) 0.8718(4) 0.88757(9)
H6D H -0.2069 0.8004 0.8809
H7D H -0.0968 0.8555 0.9088
C12D C 0.0139(5) 0.3168(6) 0.79510(11)
H8D H 0.0237 0.3616 0.7682
C13D C 0.0135(4) 0.1944(6) 0.79634(11)
H9D H 0.0233 0.1578 0.7698
C14D C -0.0194(5) 0.5568(6) 0.79545(12)
H10D H -0.0313 0.5116 0.7685
C15E C -0.5790(4) 0.4917(4) 0.96888(14)
H11E H -0.5649 0.5566 0.9472
C16E C -0.6976(4) 0.3683(4) 0.96995(13)
H12E H -0.7628 0.3498 0.9479
C17D C -0.0215(5) 0.6773(6) 0.79709(12)
H13D H -0.0390 0.7106 0.7711
C18D C -0.6178(4) 0.6440(6) 0.71992(16)
H14D H -0.7107 0.6010 0.7123
O7 O 0.3911(5) 1.0455(7) 0.78905(18)
C20 C 0.3908(8) 0.9784(9) 0.8203(3)
H15 H 0.3051 0.9102 0.8305
N5 N 0.5007(7) 0.9919(7) 0.8417(2)
C21 C 0.4842(15) 0.9062(14) 0.8798(3)
H16 H 0.3878 0.8450 0.8852
H17 H 0.5253 0.9635 0.9053
H18 H 0.5285 0.8533 0.8740
C22 C 0.6348(8) 1.0975(9) 0.8280(3)
H19 H 0.6861 1.0560 0.8170
H20 H 0.6825 1.1558 0.8528
H21 H 0.6259 1.1517 0.8049
loop_
_geom_bond_atom_site_label_1
_geom_bond_atom_site_label_2
_geom_bond_site_symmetry_1
_geom_bond_site_symmetry_2
Co1 O4 1_555 1_555
Co2 N1 1_555 1_555
N1 C7 1_555 1_555
N2 C13 1_555 1_555
N3 C16 1_555 1_555
S1 O2 1_555 1_555
C1 C11 1_555 1_555
C2 C15 1_555 1_555
C3 H1 1_555 1_555
O1 Co2 1_555 1_555
O2 Co2 1_555 1_555
O3 S1 1_555 1_555
C4 O1 1_555 1_555
C5 C4 1_555 1_555
C6 H2 1_555 1_555
C7 C6 1_555 1_555
H3 C7 1_555 1_555
O4 C4 1_555 1_555
O5 S1 1_555 1_555
C8 S1 1_555 1_555
C9 C5 1_555 1_555
H4 C9 1_555 1_555
C10 C9 1_555 1_555
H5 C10 1_555 1_555
C11 C12 1_555 1_555
O6 Co1 1_555 1_555
H6 O6 1_555 1_555
H7 O6 1_555 1_555
C12 H8 1_555 1_555
C13 C12 1_555 1_555
H9 C13 1_555 1_555
C14 C1 1_555 1_555
H10 C14 1_555 1_555
N4 Co1 1_555 1_555
C15 H11 1_555 1_555
C16 C15 1_555 1_555
H12 C16 1_555 1_555
C17 C14 1_555 1_555
H13 C17 1_555 1_555
C18 C3 1_555 1_555
H14 C18 1_555 1_555
C19 C2 1_555 1_555
O7 C20 1_555 1_555
C20 H15 1_555 1_555
N5 C20 1_555 1_555
C21 N5 1_555 1_555
H16 C21 1_555 1_555
H17 C21 1_555 1_555
H18 C21 1_555 1_555
C22 N5 1_555 1_555
H19 C22 1_555 1_555
H20 C22 1_555 1_555
H21 C22 1_555 1_555
Co1_2 N2 1_555 1_555
Co2_2 N3 1_555 1_555
Co2A O1D 1_555 1_555
N2_2 Co1 1_555 1_555
N3_2 Co2 1_555 1_555
S1D O2D 1_555 1_555
C3D H1D 1_555 1_555
O1D C4D 1_555 1_555
O1E Co2 1_555 1_555
O2D Co2A 1_555 1_555
O2E Co2 1_555 1_555
O3D S1D 1_555 1_555
C4D C5D 1_555 1_555
C5D C8D 1_555 1_555
C6E C19 1_555 1_555
H2E C6E 1_555 1_555
C7E N1 1_555 1_555
H3E C7E 1_555 1_555
O4D Co1 1_555 1_555
O5D S1D 1_555 1_555
C8D S1D 1_555 1_555
C9D C5D 1_555 1_555
H4D C9D 1_555 1_555
C10D C9D 1_555 1_555
H5D C10D 1_555 1_555
O6D Co1 1_555 1_555
H6D O6D 1_555 1_555
H7D O6D 1_555 1_555
C12D C11 1_555 1_555
H8D C12D 1_555 1_555
C13D N2 1_555 1_555
H9D C13D 1_555 1_555
C14D C1 1_555 1_555
H10D C14D 1_555 1_555
C15E C2 1_555 1_555
H11E C15E 1_555 1_555
C16E N3 1_555 1_555
H12E C16E 1_555 1_555
C17D N4 1_555 1_555
H13D C17D 1_555 1_555
C18D C3D 1_555 1_555
H14D C18D 1_555 1_555
C3 C8 1_555 1_555
C5 C8 1_555 1_555
C6 C19 1_555 1_555
C10 C18 1_555 1_555
N4 C17 1_555 1_555
C3D C8D 1_555 1_555
C4D O4D 1_555 1_555
C6E C7E 1_555 1_555
C10D C18D 1_555 1_555
C12D C13D 1_555 1_555
C14D C17D 1_555 1_555
C15E C16E 1_555 1_555

#END
