
#######################################################################
#
#                 Cambridge Crystallographic Data Centre
#                                CCDC 
#
#######################################################################
#
# If this CIF has been generated from an entry in the Cambridge 
# Structural Database, then it will include bibliographic, chemical, 
# crystal, experimental, refinement or atomic coordinate data resulting 
# from the CCDC's data processing and validation procedures.
#
#######################################################################

data_PENNUT
_symmetry_cell_setting           triclinic
_symmetry_space_group_name_H-M   'P -1'
_symmetry_Int_Tables_number      2
_space_group_name_Hall           '-P 1'
loop_
_symmetry_equiv_pos_site_id
_symmetry_equiv_pos_as_xyz
1 x,y,z
2 -x,-y,-z
_cell_length_a                   11.727(2)
_cell_length_b                   13.451(3)
_cell_length_c                   15.565(3)
_cell_angle_alpha                113.39(3)
_cell_angle_beta                 98.71(3)
_cell_angle_gamma                102.97(3)
_cell_volume                     2115.07
loop_
_atom_site_label
_atom_site_type_symbol
_atom_site_fract_x
_atom_site_fract_y
_atom_site_fract_z
Zn1 Zn -0.34864(6) 0.65428(6) 0.34709(5)
Zn2 Zn 0.51958(7) 1.19165(6) 0.69060(6)
Zn3 Zn -0.07657(7) 0.57970(6) 0.31193(6)
O1 O -0.2069(4) 0.7661(4) 0.4646(3)
O2 O 0.0635(6) 0.7241(5) 0.3038(5)
O3 O -0.0457(4) 0.7041(4) 0.4466(4)
O4 O 0.1066(4) 0.9181(4) 0.5476(3)
O5 O 0.3467(4) 1.1817(4) 0.6821(4)
O6 O 0.3422(4) 1.0180(4) 0.5649(4)
O7 O -0.5930(4) 0.6676(4) 0.1834(4)
O8 O -0.4866(4) 0.5632(4) 0.2210(3)
O9 O -0.6828(4) 0.5100(4) 0.0000(3)
O10 O -0.7798(4) 0.3582(4) -0.2561(3)
O11 O -0.8505(5) 0.4826(5) -0.1583(4)
O12 O -0.1984(4) 0.4527(4) 0.3194(4)
O13 O -0.3510(4) 0.5159(4) 0.3698(4)
O14 O -0.3858(4) 0.3693(3) 0.4534(3)
O15 O -0.5308(4) 0.3177(4) 0.5665(3)
O16 O -0.4096(5) 0.2197(4) 0.5956(4)
N1 N 0.9460(5) 0.4963(5) 0.6836(4)
N2 N 0.5893(5) 1.0801(5) 0.7156(4)
C1 C -0.0937(6) 0.7792(5) 0.4816(5)
C2 C -0.0135(5) 0.8962(5) 0.5501(5)
C3 C -0.0304(7) 0.9882(6) 0.6131(6)
H1 H -0.1032 0.9943 0.6279
C4 C 0.0837(6) 1.0767(6) 0.6543(6)
H2 H 0.0998 1.1511 0.7013
C5 C 0.1625(6) 1.0311(5) 0.6119(5)
C6 C 0.2918(6) 1.0780(5) 0.6172(5)
C7 C -0.5596(6) 0.5801(6) 0.1645(5)
C8 C -0.6111(6) 0.4873(5) 0.0644(5)
C9 C -0.5948(6) 0.3850(6) 0.0185(5)
H3 H -0.5512 0.3507 0.0467
C10 C -0.6570(6) 0.3399(6) -0.0812(5)
H4 H -0.6626 0.2701 -0.1310
C11 C -0.7068(6) 0.4188(6) -0.0897(5)
C12 C -0.7822(6) 0.4214(6) -0.1718(5)
C13 C -0.2842(6) 0.4530(5) 0.3601(5)
C14 C -0.3044(5) 0.3680(5) 0.3978(5)
C15 C -0.2467(6) 0.2910(6) 0.3960(6)
H5 H -0.1891 0.2734 0.3625
C16 C -0.2907(6) 0.2423(6) 0.4546(6)
H6 H -0.2674 0.1868 0.4673
C17 C -0.3741(5) 0.2925(5) 0.4889(5)
C18 C -0.4460(6) 0.2771(5) 0.5548(5)
C19 C 0.9330(6) 0.5464(6) 0.6236(5)
H7 H 0.9894 0.5498 0.5880
C20 C 0.8415(7) 0.5921(6) 0.6127(6)
H8 H 0.8377 0.6255 0.5708
C21 C 0.7542(6) 0.5888(6) 0.6640(6)
C22 C 0.8648(7) 0.4976(8) 0.7362(7)
H9 H 0.8729 0.4678 0.7806
C23 C 0.7694(7) 0.5414(8) 0.7275(7)
H10 H 0.7150 0.5388 0.7649
C24 C 0.6483(7) 0.6308(8) 0.6471(8)
H11 H 0.6534 0.6557 0.5969
H12 H 0.5735 0.5680 0.6237
C25 C 0.6433(8) 0.7261(8) 0.7354(8)
H13 H 0.6504 0.7047 0.7881
H14 H 0.5643 0.7365 0.7234
C26 C 0.7395(9) 0.8381(8) 0.7677(10)
H15 H 0.8013 0.8251 0.7335
H16 H 0.7778 0.8691 0.8366
C27 C 0.6901(8) 0.9239(7) 0.7496(7)
C28 C 0.6614(11) 1.0033(9) 0.8201(8)
H17 H 0.6741 1.0062 0.8816
C29 C 0.6640(7) 0.9221(7) 0.6593(7)
H18 H 0.6797 0.8673 0.6074
C30 C 0.6146(7) 1.0011(6) 0.6446(6)
H19 H 0.5990 0.9981 0.5831
C31 C 0.6134(10) 1.0807(8) 0.8031(6)
H20 H 0.5969 1.1357 0.8545
Zn1A Zn 0.34864(6) 1.34572(6) 0.65291(5)
Zn1A_2 Zn -0.65136(6) 0.34572(6) -0.34709(5)
Zn1A_3 Zn -0.65136(6) 0.34572(6) 0.65291(5)
Zn2A Zn -0.51958(7) 0.80835(6) 0.30940(6)
Zn2_2 Zn -0.48042(7) 0.19165(6) 0.69060(6)
Zn3A Zn -0.92343(7) 0.42030(6) -0.31193(6)
Zn3A_2 Zn 1.07657(7) 0.42030(6) 0.68807(6)
O5A O -0.3467(4) 0.8183(4) 0.3179(4)
O7A O 0.5930(4) 1.3324(4) 0.8166(4)
O10A O -0.2202(4) 0.6418(4) 0.2561(3)
O11A O -0.1495(5) 0.5174(5) 0.1583(4)
O15A O -0.4692(4) 0.6823(4) 0.4335(3)
O16_2 O 0.5904(5) 1.2197(4) 0.5956(4)
N1A N 0.0540(5) 0.5037(5) 0.3164(4)
O17 O 0.1527(12) 0.6760(11) 0.1386(13)
O18 O 0.594(3) 0.212(3) 0.0823(18)
loop_
_geom_bond_atom_site_label_1
_geom_bond_atom_site_label_2
_geom_bond_site_symmetry_1
_geom_bond_site_symmetry_2
Zn1 O1 1_555 1_555
Zn2 O5 1_555 1_555
Zn3 O2 1_555 1_555
O1 C1 1_555 1_555
O3 Zn3 1_555 1_555
O4 C2 1_555 1_555
O5 C6 1_555 1_555
O6 Zn2 1_555 1_555
O7 C7 1_555 1_555
O8 Zn1 1_555 1_555
O9 C8 1_555 1_555
O10 C12 1_555 1_555
O11 C12 1_555 1_555
O12 Zn3 1_555 1_555
O13 Zn1 1_555 1_555
O14 C14 1_555 1_555
O15 C18 1_555 1_555
O16 C18 1_555 1_555
N1 C19 1_555 1_555
N2 Zn2 1_555 1_555
C1 O3 1_555 1_555
C2 C1 1_555 1_555
C3 C2 1_555 1_555
H1 C3 1_555 1_555
C4 C3 1_555 1_555
H2 C4 1_555 1_555
C5 O4 1_555 1_555
C6 O6 1_555 1_555
C7 O8 1_555 1_555
C8 C7 1_555 1_555
C9 C8 1_555 1_555
H3 C9 1_555 1_555
C10 C9 1_555 1_555
H4 C10 1_555 1_555
C11 O9 1_555 1_555
C12 C11 1_555 1_555
C13 O12 1_555 1_555
C14 C13 1_555 1_555
C15 C14 1_555 1_555
H5 C15 1_555 1_555
C16 C15 1_555 1_555
H6 C16 1_555 1_555
C17 O14 1_555 1_555
C18 C17 1_555 1_555
C19 H7 1_555 1_555
C20 C19 1_555 1_555
H8 C20 1_555 1_555
C21 C20 1_555 1_555
C22 N1 1_555 1_555
H9 C22 1_555 1_555
C23 C21 1_555 1_555
H10 C23 1_555 1_555
C24 C21 1_555 1_555
H11 C24 1_555 1_555
H12 C24 1_555 1_555
C25 C24 1_555 1_555
H13 C25 1_555 1_555
H14 C25 1_555 1_555
C26 C25 1_555 1_555
H15 C26 1_555 1_555
H16 C26 1_555 1_555
C27 C26 1_555 1_555
C28 C27 1_555 1_555
H17 C28 1_555 1_555
C29 C27 1_555 1_555
H18 C29 1_555 1_555
C30 N2 1_555 1_555
H19 C30 1_555 1_555
C31 N2 1_555 1_555
H20 C31 1_555 1_555
Zn1A O5 1_555 1_555
Zn1A_2 O10 1_555 1_555
Zn1A_3 O15 1_555 1_555
Zn2A O7 1_555 1_555
Zn2_2 O16 1_555 1_555
Zn3A O10 1_555 1_555
Zn3A_2 N1 1_555 1_555
O5A Zn1 1_555 1_555
O7A Zn2 1_555 1_555
O10A Zn1 1_555 1_555
O11A Zn3 1_555 1_555
O15A Zn1 1_555 1_555
O16_2 Zn2 1_555 1_555
N1A Zn3 1_555 1_555
Zn3 O10A 1_555 1_555
O11 Zn3A 1_555 1_555
O13 C13 1_555 1_555
C4 C5 1_555 1_555
C5 C6 1_555 1_555
C10 C11 1_555 1_555
C16 C17 1_555 1_555
C22 C23 1_555 1_555
C28 C31 1_555 1_555
C29 C30 1_555 1_555
Zn2A O5A 1_555 1_555

#END
