
#######################################################################
#
#                 Cambridge Crystallographic Data Centre
#                                CCDC 
#
#######################################################################
#
# If this CIF has been generated from an entry in the Cambridge 
# Structural Database, then it will include bibliographic, chemical, 
# crystal, experimental, refinement or atomic coordinate data resulting 
# from the CCDC's data processing and validation procedures.
#
#######################################################################

data_PEPHOJ
_symmetry_cell_setting           triclinic
_symmetry_space_group_name_H-M   'P -1'
_symmetry_Int_Tables_number      2
_space_group_name_Hall           '-P 1'
loop_
_symmetry_equiv_pos_site_id
_symmetry_equiv_pos_as_xyz
1 x,y,z
2 -x,-y,-z
_cell_length_a                   11.888(2)
_cell_length_b                   12.916(3)
_cell_length_c                   13.009(3)
_cell_angle_alpha                93.94(3)
_cell_angle_beta                 112.07(3)
_cell_angle_gamma                110.34(3)
_cell_volume                     1689.41
loop_
_atom_site_label
_atom_site_type_symbol
_atom_site_fract_x
_atom_site_fract_y
_atom_site_fract_z
H1 H 0.739(4) 0.694(4) -0.073(4)
O1 O 0.58402(18) -0.12762(15) 0.74776(16)
C1 C 0.5641(2) -0.0488(2) 0.7097(2)
Cd1 Cd 0.525433(14) 0.322108(13) 0.324435(12)
Cd2 Cd 0.853357(14) 0.545971(13) 0.528479(12)
O2 O 0.81569(16) 0.64381(16) 0.38054(13)
O3 O 0.64432(15) 0.51206(14) 0.38664(12)
O4 O 0.71866(19) 0.6923(2) -0.01721(15)
O5 O 0.51455(17) 0.66961(17) -0.13583(13)
O6 O 0.81871(19) 0.38921(15) 0.58936(14)
O7 O 0.60080(19) 0.28121(19) 0.49692(15)
N1 N 1.27509(19) -0.21811(17) 0.70642(17)
N2 N 1.27786(18) -0.31794(17) 0.67434(16)
N3 N 1.15769(17) -0.39540(16) 0.61983(15)
N4 N 1.07266(17) -0.34742(16) 0.61564(15)
C2 C 1.1474(2) -0.2386(2) 0.67054(19)
N5 N -0.19415(18) 0.62354(18) -0.33714(15)
N6 N -0.3054(2) 0.64057(19) -0.38214(16)
N7 N -0.32864(18) 0.67467(18) -0.29883(15)
N8 N -0.23414(19) 0.68168(19) -0.19790(15)
C3 C 0.6033(2) 0.6105(2) 0.23758(17)
C4 C 0.4789(2) 0.5995(2) 0.22500(18)
H2 H 0.4510 0.5788 0.2812
C5 C 0.6452(2) 0.6408(2) 0.15360(18)
H3 H 0.7306 0.6519 0.1638
C6 C 0.6944(2) 0.58828(19) 0.34095(17)
C7 C 0.5955(2) 0.6736(2) -0.04240(18)
C8 C 0.5578(2) 0.6545(2) 0.05403(17)
C9 C 0.4332(2) 0.6452(2) 0.04070(18)
H4 H 0.3759 0.6559 -0.0254
C10 C 0.7162(2) 0.3002(2) 0.56437(18)
C11 C 0.8665(2) 0.2070(2) 0.6611(2)
H5 H 0.9348 0.2641 0.6536
C12 C 0.8904(2) 0.1214(2) 0.7119(2)
C13 C 0.7912(2) 0.0377(2) 0.7260(2)
H6 H 0.8075 -0.0197 0.7603
C14 C 0.6666(2) 0.0402(2) 0.68839(19)
C15 C 0.6403(2) 0.1241(2) 0.63468(19)
H7 H 0.5559 0.1242 0.6081
C16 C 0.7414(2) 0.2077(2) 0.62143(18)
C17 C -0.1504(2) 0.6501(2) -0.22287(17)
C18 C 0.3957(2) 0.6198(2) 0.12782(18)
O8 O 0.27791(18) 0.6133(2) 0.12804(15)
C19 C 1.1782(3) -0.0681(3) 0.7934(3)
H8 H 1.2498 -0.0756 0.8493
C20 C 1.1463(3) 0.0224(3) 0.8135(3)
H9 H 1.1971 0.0764 0.8821
C21 C 0.9632(3) -0.0477(2) 0.6283(2)
H10 H 0.8909 -0.0404 0.5730
C22 C 0.9961(3) -0.1379(2) 0.6086(2)
H11 H 0.9450 -0.1919 0.5400
C23 C 1.1036(2) -0.1480(2) 0.6897(2)
C24 C -0.0323(2) 0.6432(2) -0.13667(18)
O9 O 1.01864(18) 0.12798(16) 0.7555(2)
C25 C 0.1801(2) 0.6250(3) 0.03397(19)
C26 C 0.0079(2) 0.5574(2) -0.15486(19)
H12 H -0.0367 0.5059 -0.2250
C27 C 1.0395(2) 0.0315(2) 0.7315(2)
O10 O 0.45576(19) -0.03336(18) 0.6875(2)
H13 H 0.4038 -0.0853 0.7011
C28 C 0.0370(3) 0.7207(3) -0.0317(2)
H14 H 0.0114 0.7789 -0.0189
C29 C 0.1144(3) 0.5482(3) -0.0689(2)
H15 H 0.1408 0.4904 -0.0809
C30 C 0.1436(3) 0.7121(3) 0.0536(2)
H16 H 0.1902 0.7644 0.1234
O1A O 0.41598(18) 0.12762(15) 0.25224(16)
Cd1A Cd -0.525433(14) 0.677892(13) -0.324435(12)
Cd1A_2 Cd 0.474567(14) -0.322108(13) 0.675565(12)
Cd1A_3 Cd 0.474567(14) 0.677892(13) -0.324435(12)
Cd1A_4 Cd 1.474567(14) -0.322108(13) 0.675565(12)
Cd2_2 Cd -0.146643(14) 0.545971(13) -0.471521(12)
Cd2_3 Cd 0.853357(14) -0.454029(13) 0.528479(12)
Cd2A Cd 1.146643(14) -0.545971(13) 0.471521(12)
O5A O 0.48545(17) 0.33039(17) 0.13583(13)
N2A N 0.72214(18) 0.31794(17) 0.32566(16)
N3A N 0.84231(17) 0.39540(16) 0.38017(15)
N4_2 N 1.07266(17) 0.65258(16) 0.61564(15)
N5_2 N 0.80585(18) 0.62354(18) 0.66286(15)
N7A N 0.32864(18) 0.32533(18) 0.29883(15)
loop_
_geom_bond_atom_site_label_1
_geom_bond_atom_site_label_2
_geom_bond_site_symmetry_1
_geom_bond_site_symmetry_2
H1 O4 1_555 1_555
O1 C1 1_555 1_555
C1 C14 1_555 1_555
Cd1 O3 1_555 1_555
Cd2 O2 1_555 1_555
O2 C6 1_555 1_555
O3 Cd2 1_555 1_555
O4 C7 1_555 1_555
O5 C7 1_555 1_555
O6 Cd2 1_555 1_555
O7 Cd1 1_555 1_555
N1 N2 1_555 1_555
N2 N3 1_555 1_555
N3 N4 1_555 1_555
N4 C2 1_555 1_555
C2 N1 1_555 1_555
N5 N6 1_555 1_555
N6 N7 1_555 1_555
N7 N8 1_555 1_555
N8 C17 1_555 1_555
C3 C4 1_555 1_555
C4 H2 1_555 1_555
C5 C3 1_555 1_555
H3 C5 1_555 1_555
C6 O3 1_555 1_555
C7 C8 1_555 1_555
C8 C5 1_555 1_555
C9 C8 1_555 1_555
H4 C9 1_555 1_555
C10 O6 1_555 1_555
C11 H5 1_555 1_555
C12 C11 1_555 1_555
C13 C12 1_555 1_555
H6 C13 1_555 1_555
C14 C13 1_555 1_555
C15 C14 1_555 1_555
H7 C15 1_555 1_555
C16 C10 1_555 1_555
C17 N5 1_555 1_555
C18 C4 1_555 1_555
O8 C18 1_555 1_555
C19 H8 1_555 1_555
C20 C19 1_555 1_555
H9 C20 1_555 1_555
C21 H10 1_555 1_555
C22 C21 1_555 1_555
H11 C22 1_555 1_555
C23 C2 1_555 1_555
C24 C17 1_555 1_555
O9 C12 1_555 1_555
C25 O8 1_555 1_555
C26 C24 1_555 1_555
H12 C26 1_555 1_555
C27 C20 1_555 1_555
O10 C1 1_555 1_555
H13 O10 1_555 1_555
C28 C24 1_555 1_555
H14 C28 1_555 1_555
C29 C25 1_555 1_555
H15 C29 1_555 1_555
C30 C25 1_555 1_555
H16 C30 1_555 1_555
O1A Cd1 1_555 1_555
Cd1A N7 1_555 1_555
Cd1A_2 O1 1_555 1_555
Cd1A_3 O5 1_555 1_555
Cd1A_4 N2 1_555 1_555
Cd2_2 N5 1_555 1_555
Cd2_3 N4 1_555 1_555
Cd2A N3 1_555 1_555
O5A Cd1 1_555 1_555
N2A Cd1 1_555 1_555
N3A Cd2 1_555 1_555
N4_2 Cd2 1_555 1_555
N5_2 Cd2 1_555 1_555
N7A Cd1 1_555 1_555
O7 C10 1_555 1_555
C3 C6 1_555 1_555
C9 C18 1_555 1_555
C11 C16 1_555 1_555
C15 C16 1_555 1_555
C19 C23 1_555 1_555
C21 C27 1_555 1_555
C22 C23 1_555 1_555
O9 C27 1_555 1_555
C26 C29 1_555 1_555
C28 C30 1_555 1_555
N2A N3A 1_555 1_555

#END
