
#######################################################################
#
#                 Cambridge Crystallographic Data Centre
#                                CCDC 
#
#######################################################################
#
# If this CIF has been generated from an entry in the Cambridge 
# Structural Database, then it will include bibliographic, chemical, 
# crystal, experimental, refinement or atomic coordinate data resulting 
# from the CCDC's data processing and validation procedures.
#
#######################################################################

data_PEVQIS
_symmetry_cell_setting           cubic
_symmetry_space_group_name_H-M   'F m -3 m'
_symmetry_Int_Tables_number      225
_space_group_name_Hall           '-F 4 2 3'
loop_
_symmetry_equiv_pos_site_id
_symmetry_equiv_pos_as_xyz
1 x,y,z
2 -x,-y,z
3 -x,y,-z
4 x,-y,-z
5 z,x,y
6 z,-x,-y
7 -z,-x,y
8 -z,x,-y
9 y,z,x
10 -y,z,-x
11 y,-z,-x
12 -y,-z,x
13 y,x,-z
14 -y,-x,-z
15 y,-x,z
16 -y,x,z
17 x,z,-y
18 -x,z,y
19 -x,-z,-y
20 x,-z,y
21 z,y,-x
22 z,-y,x
23 -z,y,x
24 -z,-y,-x
25 x,1/2+y,1/2+z
26 -x,1/2-y,1/2+z
27 -x,1/2+y,1/2-z
28 x,1/2-y,1/2-z
29 z,1/2+x,1/2+y
30 z,1/2-x,1/2-y
31 -z,1/2-x,1/2+y
32 -z,1/2+x,1/2-y
33 y,1/2+z,1/2+x
34 -y,1/2+z,1/2-x
35 y,1/2-z,1/2-x
36 -y,1/2-z,1/2+x
37 y,1/2+x,1/2-z
38 -y,1/2-x,1/2-z
39 y,1/2-x,1/2+z
40 -y,1/2+x,1/2+z
41 x,1/2+z,1/2-y
42 -x,1/2+z,1/2+y
43 -x,1/2-z,1/2-y
44 x,1/2-z,1/2+y
45 z,1/2+y,1/2-x
46 z,1/2-y,1/2+x
47 -z,1/2+y,1/2+x
48 -z,1/2-y,1/2-x
49 1/2+x,y,1/2+z
50 1/2-x,-y,1/2+z
51 1/2-x,y,1/2-z
52 1/2+x,-y,1/2-z
53 1/2+z,x,1/2+y
54 1/2+z,-x,1/2-y
55 1/2-z,-x,1/2+y
56 1/2-z,x,1/2-y
57 1/2+y,z,1/2+x
58 1/2-y,z,1/2-x
59 1/2+y,-z,1/2-x
60 1/2-y,-z,1/2+x
61 1/2+y,x,1/2-z
62 1/2-y,-x,1/2-z
63 1/2+y,-x,1/2+z
64 1/2-y,x,1/2+z
65 1/2+x,z,1/2-y
66 1/2-x,z,1/2+y
67 1/2-x,-z,1/2-y
68 1/2+x,-z,1/2+y
69 1/2+z,y,1/2-x
70 1/2+z,-y,1/2+x
71 1/2-z,y,1/2+x
72 1/2-z,-y,1/2-x
73 1/2+x,1/2+y,z
74 1/2-x,1/2-y,z
75 1/2-x,1/2+y,-z
76 1/2+x,1/2-y,-z
77 1/2+z,1/2+x,y
78 1/2+z,1/2-x,-y
79 1/2-z,1/2-x,y
80 1/2-z,1/2+x,-y
81 1/2+y,1/2+z,x
82 1/2-y,1/2+z,-x
83 1/2+y,1/2-z,-x
84 1/2-y,1/2-z,x
85 1/2+y,1/2+x,-z
86 1/2-y,1/2-x,-z
87 1/2+y,1/2-x,z
88 1/2-y,1/2+x,z
89 1/2+x,1/2+z,-y
90 1/2-x,1/2+z,y
91 1/2-x,1/2-z,-y
92 1/2+x,1/2-z,y
93 1/2+z,1/2+y,-x
94 1/2+z,1/2-y,x
95 1/2-z,1/2+y,x
96 1/2-z,1/2-y,-x
97 -x,-y,-z
98 x,y,-z
99 x,-y,z
100 -x,y,z
101 -z,-x,-y
102 -z,x,y
103 z,x,-y
104 z,-x,y
105 -y,-z,-x
106 y,-z,x
107 -y,z,x
108 y,z,-x
109 -y,-x,z
110 y,x,z
111 -y,x,-z
112 y,-x,-z
113 -x,-z,y
114 x,-z,-y
115 x,z,y
116 -x,z,-y
117 -z,-y,x
118 -z,y,-x
119 z,-y,-x
120 z,y,x
121 -x,1/2-y,1/2-z
122 x,1/2+y,1/2-z
123 x,1/2-y,1/2+z
124 -x,1/2+y,1/2+z
125 -z,1/2-x,1/2-y
126 -z,1/2+x,1/2+y
127 z,1/2+x,1/2-y
128 z,1/2-x,1/2+y
129 -y,1/2-z,1/2-x
130 y,1/2-z,1/2+x
131 -y,1/2+z,1/2+x
132 y,1/2+z,1/2-x
133 -y,1/2-x,1/2+z
134 y,1/2+x,1/2+z
135 -y,1/2+x,1/2-z
136 y,1/2-x,1/2-z
137 -x,1/2-z,1/2+y
138 x,1/2-z,1/2-y
139 x,1/2+z,1/2+y
140 -x,1/2+z,1/2-y
141 -z,1/2-y,1/2+x
142 -z,1/2+y,1/2-x
143 z,1/2-y,1/2-x
144 z,1/2+y,1/2+x
145 1/2-x,-y,1/2-z
146 1/2+x,y,1/2-z
147 1/2+x,-y,1/2+z
148 1/2-x,y,1/2+z
149 1/2-z,-x,1/2-y
150 1/2-z,x,1/2+y
151 1/2+z,x,1/2-y
152 1/2+z,-x,1/2+y
153 1/2-y,-z,1/2-x
154 1/2+y,-z,1/2+x
155 1/2-y,z,1/2+x
156 1/2+y,z,1/2-x
157 1/2-y,-x,1/2+z
158 1/2+y,x,1/2+z
159 1/2-y,x,1/2-z
160 1/2+y,-x,1/2-z
161 1/2-x,-z,1/2+y
162 1/2+x,-z,1/2-y
163 1/2+x,z,1/2+y
164 1/2-x,z,1/2-y
165 1/2-z,-y,1/2+x
166 1/2-z,y,1/2-x
167 1/2+z,-y,1/2-x
168 1/2+z,y,1/2+x
169 1/2-x,1/2-y,-z
170 1/2+x,1/2+y,-z
171 1/2+x,1/2-y,z
172 1/2-x,1/2+y,z
173 1/2-z,1/2-x,-y
174 1/2-z,1/2+x,y
175 1/2+z,1/2+x,-y
176 1/2+z,1/2-x,y
177 1/2-y,1/2-z,-x
178 1/2+y,1/2-z,x
179 1/2-y,1/2+z,x
180 1/2+y,1/2+z,-x
181 1/2-y,1/2-x,z
182 1/2+y,1/2+x,z
183 1/2-y,1/2+x,-z
184 1/2+y,1/2-x,-z
185 1/2-x,1/2-z,y
186 1/2+x,1/2-z,-y
187 1/2+x,1/2+z,y
188 1/2-x,1/2+z,-y
189 1/2-z,1/2-y,x
190 1/2-z,1/2+y,-x
191 1/2+z,1/2-y,-x
192 1/2+z,1/2+y,x
_cell_length_a                   25.654(19)
_cell_length_b                   25.654(19)
_cell_length_c                   25.654(19)
_cell_angle_alpha                90
_cell_angle_beta                 90
_cell_angle_gamma                90
_cell_volume                     16883.6
loop_
_atom_site_label
_atom_site_type_symbol
_atom_site_fract_x
_atom_site_fract_y
_atom_site_fract_z
O1 O 0.2146(4) 0.1334(5) 0.2146(4)
O2 O 0.2500 0.2500 0.2500
C1 C 0.2189(8) 0.0230(7) 0.2189(8)
C2 C 0.2500 0.1152(18) 0.2500
C3 C 0.2500 0.0562(19) 0.2500
Zn1 Zn 0.20639(7) 0.20639(7) 0.20639(7)
O1U O 0.2146(4) -0.1334(5) 0.2146(4)
C1U C 0.2189(8) -0.0230(7) 0.2189(8)
C2U C 0.2500 -0.1152(18) 0.2500
C3U C 0.2500 -0.0562(19) 0.2500
O1XA O 0.2854(4) 0.1334(5) 0.2854(4)
C1XA C 0.2811(8) 0.0230(7) 0.2811(8)
O1SB O 0.2854(4) -0.1334(5) 0.2854(4)
C1SB C 0.2811(8) -0.0230(7) 0.2811(8)
O1D O 0.2146(4) 0.2146(4) 0.1334(5)
C1D C 0.2189(8) 0.2189(8) 0.0230(7)
C2D C 0.2500 0.2500 0.1152(18)
C3D C 0.2500 0.2500 0.0562(19)
O1P O 0.2146(4) 0.2146(4) -0.1334(5)
C1P C 0.2189(8) 0.2189(8) -0.0230(7)
C2P C 0.2500 0.2500 -0.1152(18)
C3P C 0.2500 0.2500 -0.0562(19)
O1ZB O 0.2854(4) 0.2854(4) 0.1334(5)
C1ZB C 0.2811(8) 0.2811(8) 0.0230(7)
O1LC O 0.2854(4) 0.2854(4) -0.1334(5)
C1LC C 0.2811(8) 0.2811(8) -0.0230(7)
O1H O 0.1334(5) 0.2146(4) 0.2146(4)
C1H C 0.0230(7) 0.2189(8) 0.2189(8)
C2H C 0.1152(18) 0.2500 0.2500
C3H C 0.0562(19) 0.2500 0.2500
O1O O -0.1334(5) 0.2146(4) 0.2146(4)
C1O C -0.0230(7) 0.2189(8) 0.2189(8)
C2O C -0.1152(18) 0.2500 0.2500
C3O C -0.0562(19) 0.2500 0.2500
O1HA O 0.1334(5) 0.2854(4) 0.2854(4)
C1HA C 0.0230(7) 0.2811(8) 0.2811(8)
O1KA O -0.1334(5) 0.2854(4) 0.2854(4)
C1KA C -0.0230(7) 0.2811(8) 0.2811(8)
Zn1N Zn 0.20639(7) -0.20639(7) 0.20639(7)
Zn1O Zn -0.20639(7) 0.20639(7) 0.20639(7)
Zn1L Zn 0.20639(7) 0.20639(7) -0.20639(7)
O1L O 0.1334(5) 0.2146(4) -0.2146(4)
O1N O 0.1334(5) -0.2146(4) 0.2146(4)
O1Q O -0.2146(4) 0.2146(4) 0.1334(5)
O1S O 0.2146(4) -0.2146(4) 0.1334(5)
O1T O 0.2146(4) 0.1334(5) -0.2146(4)
O1V O -0.2146(4) 0.1334(5) 0.2146(4)
O2L O 0.2500 0.2500 -0.2500
O2N O 0.2500 -0.2500 0.2500
O2O O -0.2500 0.2500 0.2500
Zn1AA Zn 0.20639(7) 0.29361(7) 0.29361(7)
Zn1KA Zn -0.20639(7) 0.29361(7) 0.29361(7)
Zn1XA Zn 0.29361(7) 0.20639(7) 0.29361(7)
Zn1IB Zn 0.29361(7) -0.20639(7) 0.29361(7)
Zn1UB Zn 0.29361(7) 0.29361(7) 0.20639(7)
Zn1GC Zn 0.29361(7) 0.29361(7) -0.20639(7)
loop_
_geom_bond_atom_site_label_1
_geom_bond_atom_site_label_2
_geom_bond_site_symmetry_1
_geom_bond_site_symmetry_2
O1 C2 1_555 1_555
O2 Zn1 1_555 1_555
C1 C3 1_555 1_555
C2 C3 1_555 1_555
C3 C1XA 1_555 1_555
Zn1 O1 1_555 1_555
O1U C2U 1_555 1_555
C1U C1 1_555 1_555
C2U C3U 1_555 1_555
C3U C1U 1_555 1_555
O1XA C2 1_555 1_555
C1XA C1SB 1_555 1_555
O1SB C2U 1_555 1_555
C1SB C3U 1_555 1_555
O1D Zn1 1_555 1_555
C1D C3D 1_555 1_555
C2D O1D 1_555 1_555
C3D C2D 1_555 1_555
O1P C2P 1_555 1_555
C1P C1D 1_555 1_555
C2P C3P 1_555 1_555
C3P C1P 1_555 1_555
O1ZB C2D 1_555 1_555
C1ZB C3D 1_555 1_555
O1LC C2P 1_555 1_555
C1LC C3P 1_555 1_555
O1H Zn1 1_555 1_555
C1H C3H 1_555 1_555
C2H O1H 1_555 1_555
C3H C2H 1_555 1_555
O1O C2O 1_555 1_555
C1O C1H 1_555 1_555
C2O C3O 1_555 1_555
C3O C1O 1_555 1_555
O1HA C2H 1_555 1_555
C1HA C3H 1_555 1_555
O1KA C2O 1_555 1_555
C1KA C3O 1_555 1_555
Zn1N O1U 1_555 1_555
Zn1O O1O 1_555 1_555
Zn1L O1P 1_555 1_555
O1L Zn1L 1_555 1_555
O1N Zn1N 1_555 1_555
O1Q Zn1O 1_555 1_555
O1S Zn1N 1_555 1_555
O1T Zn1L 1_555 1_555
O1V Zn1O 1_555 1_555
O2L Zn1L 1_555 1_555
O2N Zn1N 1_555 1_555
O2O Zn1O 1_555 1_555
Zn1AA O2 1_555 1_555
Zn1KA O1KA 1_555 1_555
Zn1XA O2 1_555 1_555
Zn1IB O1SB 1_555 1_555
Zn1UB O2 1_555 1_555
Zn1GC O1LC 1_555 1_555
O1XA Zn1XA 1_555 1_555
O1ZB Zn1UB 1_555 1_555
C1ZB C1LC 1_555 1_555
O1HA Zn1AA 1_555 1_555
C1HA C1KA 1_555 1_555
O2L Zn1GC 1_555 1_555
O2N Zn1IB 1_555 1_555
O2O Zn1KA 1_555 1_555

#END
