
#######################################################################
#
#                 Cambridge Crystallographic Data Centre
#                                CCDC 
#
#######################################################################
#
# If this CIF has been generated from an entry in the Cambridge 
# Structural Database, then it will include bibliographic, chemical, 
# crystal, experimental, refinement or atomic coordinate data resulting 
# from the CCDC's data processing and validation procedures.
#
#######################################################################

data_PEVVAO
_symmetry_cell_setting           monoclinic
_symmetry_space_group_name_H-M   'P 2/c'
_symmetry_Int_Tables_number      13
_space_group_name_Hall           '-P 2yc'
loop_
_symmetry_equiv_pos_site_id
_symmetry_equiv_pos_as_xyz
1 x,y,z
2 -x,y,1/2-z
3 -x,-y,-z
4 x,-y,1/2+z
_cell_length_a                   11.2924(5)
_cell_length_b                   9.1456(2)
_cell_length_c                   22.5267(8)
_cell_angle_alpha                90
_cell_angle_beta                 103.6912(8)
_cell_angle_gamma                90
_cell_volume                     2260.36
loop_
_atom_site_label
_atom_site_type_symbol
_atom_site_fract_x
_atom_site_fract_y
_atom_site_fract_z
Cu1 Cu 1.0000 0.47684(6) 0.2500
O1 O 0.8653(3) 0.4759(3) 0.3166(1)
N1 N 0.8942(3) 0.3197(3) 0.1981(1)
N2 N 0.8991(3) -0.3671(3) 0.1962(2)
C1 C 0.8679(4) 0.3250(4) 0.1367(2)
C2 C 0.7827(4) 0.2361(4) 0.1006(2)
C3 C 0.7175(4) 0.1353(3) 0.1280(2)
C4 C 0.7470(4) 0.1298(4) 0.1910(2)
C5 C 0.8341(4) 0.2197(4) 0.2245(2)
C6 C 0.9544(4) -0.2640(4) 0.1689(2)
C7 C 0.8892(4) -0.1707(4) 0.1246(2)
C8 C 0.7633(4) -0.1815(4) 0.1069(2)
C9 C 0.7074(4) -0.2838(4) 0.1367(2)
C10 C 0.7774(4) -0.3732(4) 0.1805(2)
C11 C 0.6244(4) 0.0395(4) 0.0878(2)
C12 C 0.6871(4) -0.0847(4) 0.0585(2)
H1 H 0.9103 0.3945 0.1175
H2 H 0.7688 0.2414 0.0571
H3 H 0.7064 0.0615 0.2113
H4 H 0.8533 0.2134 0.2682
H5 H 1.0417 -0.2555 0.1808
H6 H 0.9305 -0.0990 0.1062
H7 H 0.6198 -0.2924 0.1273
H8 H 0.7379 -0.4429 0.2005
H9 H 0.5732 -0.0025 0.1113
H10 H 0.5745 0.0982 0.0560
H11 H 0.7370 -0.0428 0.0341
H12 H 0.6256 -0.1436 0.0320
Cu1_2 Cu 1.0000 -0.52316(6) 0.2500
O1A O 1.1347(3) 0.4759(3) 0.1834(1)
N1A N 1.1058(3) 0.3197(3) 0.3019(1)
N2A N 1.1009(3) -0.3671(3) 0.3038(2)
N2_2 N 0.8991(3) 0.6329(3) 0.1962(2)
N2A_2 N 1.1009(3) 0.6329(3) 0.3038(2)
C1A C 1.1321(4) 0.3250(4) 0.3633(2)
C2A C 1.2173(4) 0.2361(4) 0.3994(2)
C3A C 1.2825(4) 0.1353(3) 0.3720(2)
C4A C 1.2530(4) 0.1298(4) 0.3090(2)
C5A C 1.1659(4) 0.2197(4) 0.2755(2)
C6A C 1.0456(4) -0.2640(4) 0.3311(2)
C7A C 1.1108(4) -0.1707(4) 0.3754(2)
C8A C 1.2367(4) -0.1815(4) 0.3931(2)
C9A C 1.2926(4) -0.2838(4) 0.3633(2)
C10A C 1.2226(4) -0.3732(4) 0.3195(2)
C11A C 1.3756(4) 0.0395(4) 0.4122(2)
C12A C 1.3129(4) -0.0847(4) 0.4415(2)
H1A H 1.0897 0.3945 0.3825
H2A H 1.2312 0.2414 0.4429
H3A H 1.2936 0.0615 0.2887
H4A H 1.1467 0.2134 0.2318
H5A H 0.9583 -0.2555 0.3192
H6A H 1.0695 -0.0990 0.3938
H7A H 1.3802 -0.2924 0.3727
H8A H 1.2621 -0.4429 0.2995
H9A H 1.4268 -0.0025 0.3887
H10A H 1.4255 0.0982 0.4440
H11A H 1.2630 -0.0428 0.4659
H12A H 1.3744 -0.1436 0.4680
P1 P 0.7336(1) 0.9670(1) 0.38205(5)
F1 F 0.8492(3) 0.9702(3) 0.4389(2)
F2 F 0.6839(3) 1.1144(3) 0.4059(1)
F3 F 0.6623(4) 0.8754(3) 0.4215(2)
F4 F 0.6186(4) 0.9657(4) 0.3252(2)
F5 F 0.7816(3) 0.8173(3) 0.3590(1)
F6 F 0.8068(5) 1.0581(4) 0.3432(2)
O2 O 0.6194(3) 0.4583(4) 0.2848(2)
C13 C 0.5464(5) 0.5869(5) 0.2796(3)
C14 C 0.5458(5) 0.3287(5) 0.2795(2)
H13 H 0.5048 0.5886 0.3121
H14 H 0.5959 0.6716 0.2825
H15 H 0.5954 0.2444 0.2825
H16 H 0.5035 0.3269 0.3118
O2A O 0.3806(3) 0.4583(4) 0.2152(2)
C13A C 0.4536(5) 0.5869(5) 0.2204(3)
C14A C 0.4542(5) 0.3287(5) 0.2205(2)
H13A H 0.4952 0.5886 0.1879
H14A H 0.4041 0.6716 0.2175
H15A H 0.4046 0.2444 0.2175
H16A H 0.4965 0.3269 0.1882
O3 O 0.9305(4) 0.4993(4) 0.4400(1)
C15 C 0.9456(5) 0.6293(5) 0.4752(2)
C16 C 0.9356(5) 0.3750(5) 0.4775(2)
H17 H 0.9443 0.7125 0.4494
H18 H 0.8808 0.6395 0.4958
H19 H 0.8708 0.3791 0.4986
H20 H 0.9267 0.2885 0.4537
O3B O 1.0695(4) 0.5007(4) 0.5600(1)
C15B C 1.0544(5) 0.3707(5) 0.5248(2)
C16B C 1.0644(5) 0.6250(5) 0.5225(2)
H17B H 1.0557 0.2875 0.5506
H18B H 1.1192 0.3605 0.5042
H19B H 1.1292 0.6209 0.5014
H20B H 1.0733 0.7115 0.5463
O4 O 0.5250(3) 0.6502(2) 0.4991(1)
C17 C 0.5976(4) 0.5469(4) 0.4767(2)
C18 C 0.4769(4) 0.5882(4) 0.5464(2)
H21 H 0.6282 0.5899 0.4446
H22 H 0.6661 0.5193 0.5089
H23 H 0.5426 0.5607 0.5801
H24 H 0.4275 0.6582 0.5607
O4B O 0.4750(3) 0.3498(2) 0.5009(1)
C17B C 0.4024(4) 0.4531(4) 0.5233(2)
C18B C 0.5231(4) 0.4118(4) 0.4536(2)
H21B H 0.3718 0.4101 0.5554
H22B H 0.3339 0.4807 0.4911
H23B H 0.4574 0.4393 0.4199
H24B H 0.5725 0.3418 0.4393
loop_
_geom_bond_atom_site_label_1
_geom_bond_atom_site_label_2
_geom_bond_site_symmetry_1
_geom_bond_site_symmetry_2
Cu1 O1 1_555 1_555
P1 F1 1_555 1_555
F2 P1 1_555 1_555
F3 P1 1_555 1_555
F4 P1 1_555 1_555
F5 P1 1_555 1_555
F6 P1 1_555 1_555
O2 C13 1_555 1_555
O3 C15 1_555 1_555
O4 C17 1_555 1_555
N1 Cu1 1_555 1_555
N2 C6 1_555 1_555
C1 N1 1_555 1_555
C2 C1 1_555 1_555
C3 C2 1_555 1_555
C4 C3 1_555 1_555
C5 N1 1_555 1_555
C6 C7 1_555 1_555
C7 C8 1_555 1_555
C8 C9 1_555 1_555
C9 C10 1_555 1_555
C10 N2 1_555 1_555
C11 C3 1_555 1_555
C12 C8 1_555 1_555
C13 H13 1_555 1_555
C14 O2 1_555 1_555
C15 H17 1_555 1_555
C16 O3 1_555 1_555
C17 H21 1_555 1_555
C18 O4 1_555 1_555
H1 C1 1_555 1_555
H2 C2 1_555 1_555
H3 C4 1_555 1_555
H4 C5 1_555 1_555
H5 C6 1_555 1_555
H6 C7 1_555 1_555
H7 C9 1_555 1_555
H8 C10 1_555 1_555
H9 C11 1_555 1_555
H10 C11 1_555 1_555
H11 C12 1_555 1_555
H12 C12 1_555 1_555
H14 C13 1_555 1_555
H15 C14 1_555 1_555
H16 C14 1_555 1_555
H18 C15 1_555 1_555
H19 C16 1_555 1_555
H20 C16 1_555 1_555
H22 C17 1_555 1_555
H23 C18 1_555 1_555
H24 C18 1_555 1_555
Cu1_2 N2 1_555 1_555
O1A Cu1 1_555 1_555
O2A C13A 1_555 1_555
O3B C15B 1_555 1_555
O4B C17B 1_555 1_555
N1A Cu1 1_555 1_555
N2A Cu1_2 1_555 1_555
N2_2 Cu1 1_555 1_555
N2A_2 Cu1 1_555 1_555
C1A N1A 1_555 1_555
C2A C1A 1_555 1_555
C3A C2A 1_555 1_555
C4A C3A 1_555 1_555
C5A N1A 1_555 1_555
C6A N2A 1_555 1_555
C7A C6A 1_555 1_555
C8A C7A 1_555 1_555
C9A C8A 1_555 1_555
C10A N2A 1_555 1_555
C11A C3A 1_555 1_555
C12A C8A 1_555 1_555
C13A C13 1_555 1_555
C14A C14 1_555 1_555
C15B C16 1_555 1_555
C16B C15 1_555 1_555
C17B C18 1_555 1_555
C18B C17 1_555 1_555
H1A C1A 1_555 1_555
H2A C2A 1_555 1_555
H3A C4A 1_555 1_555
H4A C5A 1_555 1_555
H5A C6A 1_555 1_555
H6A C7A 1_555 1_555
H7A C9A 1_555 1_555
H8A C10A 1_555 1_555
H9A C11A 1_555 1_555
H10A C11A 1_555 1_555
H11A C12A 1_555 1_555
H12A C12A 1_555 1_555
H13A C13A 1_555 1_555
H14A C13A 1_555 1_555
H15A C14A 1_555 1_555
H16A C14A 1_555 1_555
H17B C15B 1_555 1_555
H18B C15B 1_555 1_555
H19B C16B 1_555 1_555
H20B C16B 1_555 1_555
H21B C17B 1_555 1_555
H22B C17B 1_555 1_555
H23B C18B 1_555 1_555
H24B C18B 1_555 1_555
C4 C5 1_555 1_555
C11 C12 1_555 1_555
O2A C14A 1_555 1_555
O3B C16B 1_555 1_555
O4B C18B 1_555 1_555
C4A C5A 1_555 1_555
C9A C10A 1_555 1_555
C11A C12A 1_555 1_555

#END
