
#######################################################################
#
#                 Cambridge Crystallographic Data Centre
#                                CCDC 
#
#######################################################################
#
# If this CIF has been generated from an entry in the Cambridge 
# Structural Database, then it will include bibliographic, chemical, 
# crystal, experimental, refinement or atomic coordinate data resulting 
# from the CCDC's data processing and validation procedures.
#
#######################################################################

data_PEWFII
_symmetry_cell_setting           triclinic
_symmetry_space_group_name_H-M   'P -1'
_symmetry_Int_Tables_number      2
_space_group_name_Hall           '-P 1'
loop_
_symmetry_equiv_pos_site_id
_symmetry_equiv_pos_as_xyz
1 x,y,z
2 -x,-y,-z
_cell_length_a                   7.1070(2)
_cell_length_b                   7.2234(2)
_cell_length_c                   9.2050(2)
_cell_angle_alpha                95.3770(10)
_cell_angle_beta                 91.2560(10)
_cell_angle_gamma                114.8930(10)
_cell_volume                     425.779
loop_
_atom_site_label
_atom_site_type_symbol
_atom_site_fract_x
_atom_site_fract_y
_atom_site_fract_z
Cu1 Cu 0.0000 0.0000 0.5000
U1 U 0.5000 0.5000 0.5000
O1 O -0.22210(19) -0.48518(19) 0.35368(13)
O2 O 0.2397(2) -0.4007(2) 0.37788(13)
O3 O -0.0102(2) -0.16313(19) 0.31375(14)
O4 O 0.4157(2) -0.5173(2) 0.23425(14)
O5 O 0.3586(2) 0.22940(19) 0.46335(15)
C1 C -0.0414(2) -0.4328(2) 0.13761(15)
C2 C -0.0938(2) -0.3551(2) 0.28184(15)
C3 C 0.1322(2) -0.4753(2) 0.12236(15)
C4 C -0.1725(2) -0.4585(2) 0.01603(17)
H1 H -0.2886 -0.4314 0.0268
C5 C 0.2701(2) -0.4609(2) 0.25138(16)
O6 O -0.0965(3) 0.1638(2) 0.39101(17)
O1A O 0.22210(19) -0.51482(19) -0.35368(13)
O2A O -0.2397(2) -0.5993(2) -0.37788(13)
O3A O 0.0102(2) -0.83687(19) -0.31375(14)
O4A O -0.4157(2) -0.4827(2) -0.23425(14)
C1A C 0.0414(2) -0.5672(2) -0.13761(15)
C2A C 0.0938(2) -0.6449(2) -0.28184(15)
C3A C -0.1322(2) -0.5247(2) -0.12236(15)
C4A C 0.1725(2) -0.5415(2) -0.01603(17)
H1A H 0.2886 -0.5686 -0.0268
C5A C -0.2701(2) -0.5391(2) -0.25138(16)
O5A O -0.3586(2) -0.22940(19) 0.53665(15)
O6A O 0.0965(3) -0.1638(2) 0.60899(17)
Cu1_2 Cu 0.0000 -1.0000 -0.5000
U1_2 U -0.5000 -0.5000 -0.5000
U1_3 U -0.5000 -0.5000 0.5000
U1_4 U 0.5000 -0.5000 -0.5000
U1_5 U 0.5000 -0.5000 0.5000
O1_2 O 0.77790(19) 0.51482(19) 0.35368(13)
O1A_2 O 0.22210(19) 0.48518(19) 0.64632(13)
O2_2 O 0.2397(2) 0.5993(2) 0.37788(13)
O2A_2 O 0.7603(2) 0.4007(2) 0.62212(13)
O3A_2 O 0.0102(2) 0.16313(19) 0.68625(14)
O4_2 O 0.4157(2) 0.4827(2) 0.23425(14)
O4A_2 O 0.5843(2) 0.5173(2) 0.76575(14)
O5A_2 O 0.6414(2) 0.77060(19) 0.53665(15)
O7 O -0.7072(3) 0.0685(3) 0.1228(2)
O8 O -0.3664(4) -0.0247(4) 0.1723(2)
loop_
_geom_bond_atom_site_label_1
_geom_bond_atom_site_label_2
_geom_bond_site_symmetry_1
_geom_bond_site_symmetry_2
Cu1 O3 1_555 1_555
U1 O5 1_555 1_555
O1 C2 1_555 1_555
O2 C5 1_555 1_555
O3 C2 1_555 1_555
O4 C5 1_555 1_555
O5 Cu1 1_555 1_555
C1 C2 1_555 1_555
C3 C1 1_555 1_555
C4 C1 1_555 1_555
H1 C4 1_555 1_555
C5 C3 1_555 1_555
O6 Cu1 1_555 1_555
O1A C2A 1_555 1_555
O2A C5A 1_555 1_555
O3A C2A 1_555 1_555
O4A C5A 1_555 1_555
C1A C2A 1_555 1_555
C3A C4 1_555 1_555
C4A C3 1_555 1_555
H1A C4A 1_555 1_555
C5A C3A 1_555 1_555
O5A Cu1 1_555 1_555
O6A Cu1 1_555 1_555
Cu1_2 O3A 1_555 1_555
U1_2 O2A 1_555 1_555
U1_3 O1 1_555 1_555
U1_4 O1A 1_555 1_555
U1_5 O2 1_555 1_555
O1_2 U1 1_555 1_555
O1A_2 U1 1_555 1_555
O2_2 U1 1_555 1_555
O2A_2 U1 1_555 1_555
O3A_2 Cu1 1_555 1_555
O4_2 U1 1_555 1_555
O4A_2 U1 1_555 1_555
O5A_2 U1 1_555 1_555
O4 U1_5 1_555 1_555
O4A U1_2 1_555 1_555
C1A C3A 1_555 1_555
C1A C4A 1_555 1_555
O5A U1_3 1_555 1_555

#END
