
#######################################################################
#
#                 Cambridge Crystallographic Data Centre
#                                CCDC 
#
#######################################################################
#
# If this CIF has been generated from an entry in the Cambridge 
# Structural Database, then it will include bibliographic, chemical, 
# crystal, experimental, refinement or atomic coordinate data resulting 
# from the CCDC's data processing and validation procedures.
#
#######################################################################

data_PIBNUK
_symmetry_cell_setting           cubic
_symmetry_space_group_name_H-M   'P 41 3 2'
_symmetry_Int_Tables_number      213
_space_group_name_Hall           'P 4bd 2ab 3'
loop_
_symmetry_equiv_pos_site_id
_symmetry_equiv_pos_as_xyz
1 x,y,z
2 1/2-x,-y,1/2+z
3 -x,1/2+y,1/2-z
4 1/2+x,1/2-y,-z
5 z,x,y
6 1/2+z,1/2-x,-y
7 1/2-z,-x,1/2+y
8 -z,1/2+x,1/2-y
9 y,z,x
10 -y,1/2+z,1/2-x
11 1/2+y,1/2-z,-x
12 1/2-y,-z,1/2+x
13 3/4+y,1/4+x,1/4-z
14 3/4-y,3/4-x,3/4-z
15 1/4+y,1/4-x,3/4+z
16 1/4-y,3/4+x,1/4+z
17 3/4+x,1/4+z,1/4-y
18 1/4-x,3/4+z,1/4+y
19 3/4-x,3/4-z,3/4-y
20 1/4+x,1/4-z,3/4+y
21 3/4+z,1/4+y,1/4-x
22 1/4+z,1/4-y,3/4+x
23 1/4-z,3/4+y,1/4+x
24 3/4-z,3/4-y,3/4-x
_cell_length_a                   25.6415(6)
_cell_length_b                   25.6415(6)
_cell_length_c                   25.6415(6)
_cell_angle_alpha                90
_cell_angle_beta                 90
_cell_angle_gamma                90
_cell_volume                     16858.9
loop_
_atom_site_label
_atom_site_type_symbol
_atom_site_fract_x
_atom_site_fract_y
_atom_site_fract_z
N1 N 0.17475(11) 0.69468(9) -0.12166(7)
Zn1 Zn 0.3750 0.6250 0.1250
Zn2 Zn 0.455024(9) 0.544976(9) 0.044976(9)
O1 O 0.37743(5) 0.62920(5) 0.04396(6)
O2 O 0.39850(6) 0.56113(6) -0.00328(5)
O3 O 0.49987(6) 0.50013(6) 0.00013(6)
C1 C 0.24704(10) 0.63995(11) -0.09903(10)
C2 C 0.27484(12) 0.59447(11) -0.10601(9)
H1 H 0.2665 0.5723 -0.1340
C3 C 0.31504(10) 0.58100(10) -0.07222(11)
H2 H 0.3330 0.5493 -0.0764
C4 C 0.32813(10) 0.61471(12) -0.03242(10)
C5 C 0.30244(11) 0.66032(11) -0.02720(9)
H3 H 0.3123 0.6835 -0.0005
C6 C 0.26201(10) 0.67379(10) -0.06017(11)
H4 H 0.2448 0.7059 -0.0561
C7 C 0.20377(10) 0.65246(14) -0.13387(13)
C8 C 0.37094(11) 0.60021(11) 0.00542(10)
N1J N 0.19468(9) 0.62166(7) -0.17475(11)
N1G N 0.12166(7) 0.67475(11) -0.19468(9)
N1F N 0.62166(7) 0.82525(11) 0.19468(9)
N1C N 0.67475(11) 0.80532(9) 0.12166(7)
N1H N 0.69468(9) 0.87834(7) 0.17475(11)
Zn1C Zn -0.1250 0.8750 -0.1250
Zn1A Zn 0.1250 0.3750 -0.3750
Zn1B Zn 0.6250 1.1250 0.3750
Zn1C_2 Zn 0.8750 0.8750 -0.1250
Zn2C Zn -0.044976(9) 0.955024(9) -0.044976(9)
Zn2A Zn 0.044976(9) 0.455024(9) -0.455024(9)
Zn2B Zn 0.544976(9) 1.044976(9) 0.455024(9)
Zn2C_2 Zn 0.955024(9) 0.955024(9) -0.044976(9)
O1G O -0.04396(6) 0.87743(5) -0.12920(5)
O1J O 0.12920(5) 0.45604(6) -0.37743(5)
O1F O 0.45604(6) 0.62257(5) 0.12920(5)
O1H O 0.62920(5) 1.04396(6) 0.37743(5)
O1C O 0.87743(5) 0.87080(5) -0.04396(6)
O1I O 0.37080(5) 0.54396(6) 0.12257(5)
O1L O 0.37920(5) 0.62743(5) 0.20604(6)
O1R O 0.37257(5) 0.70604(6) 0.12080(5)
O1U O 0.29396(6) 0.62080(5) 0.12743(5)
O2G O 0.00328(5) 0.89850(6) -0.06113(6)
O2J O 0.06113(6) 0.50328(5) -0.39850(6)
O2F O 0.50328(5) 0.60150(6) 0.06113(6)
O2H O 0.56113(6) 0.99672(5) 0.39850(6)
O2C O 0.89850(6) 0.93887(6) 0.00328(5)
O2I O 0.43887(6) 0.49672(5) 0.10150(6)
O2C_2 O -0.10150(6) 0.93887(6) 0.00328(5)
O2K O -0.06113(6) 1.00328(5) -0.10150(6)
O3C O -0.00013(6) 0.99987(6) -0.00013(6)
C1G C 0.09903(10) 0.74704(10) -0.13995(11)
C1J C 0.13995(11) 0.59903(10) -0.24704(10)
C1F C 0.59903(10) 0.75296(10) 0.13995(11)
C1H C 0.63995(11) 0.90097(10) 0.24704(10)
C1C C 0.74704(10) 0.86005(11) 0.09903(10)
C2G C 0.10601(9) 0.77484(12) -0.09447(11)
C2J C 0.09447(11) 0.60601(9) -0.27484(12)
C2F C 0.60601(9) 0.72516(12) 0.09447(11)
C2H C 0.59447(11) 0.89399(9) 0.27484(12)
C2C C 0.77484(12) 0.90553(11) 0.10601(9)
H1G H 0.1340 0.7665 -0.0723
H1J H 0.0723 0.6340 -0.2665
H1F H 0.6340 0.7335 0.0723
H1H H 0.5723 0.8660 0.2665
H1C H 0.7665 0.9277 0.1340
C3G C 0.07222(11) 0.81504(10) -0.08100(10)
C3J C 0.08100(10) 0.57222(11) -0.31504(10)
C3F C 0.57222(11) 0.68496(10) 0.08100(10)
C3H C 0.58100(10) 0.92778(11) 0.31504(10)
C3C C 0.81504(10) 0.91900(10) 0.07222(11)
H2G H 0.0764 0.8330 -0.0493
H2J H 0.0493 0.5764 -0.3330
H2F H 0.5764 0.6670 0.0493
H2H H 0.5493 0.9236 0.3330
H2C H 0.8330 0.9507 0.0764
C4G C 0.03242(10) 0.82813(10) -0.11471(12)
C4J C 0.11471(12) 0.53242(10) -0.32813(10)
C4F C 0.53242(10) 0.67187(10) 0.11471(12)
C4H C 0.61471(12) 0.96758(10) 0.32813(10)
C4C C 0.82813(10) 0.88529(12) 0.03242(10)
C5G C 0.02720(9) 0.80244(11) -0.16032(11)
C5J C 0.16032(11) 0.52720(9) -0.30244(11)
C5F C 0.52720(9) 0.69756(11) 0.16032(11)
C5H C 0.66032(11) 0.97280(9) 0.30244(11)
C5C C 0.80244(11) 0.83968(11) 0.02720(9)
H3G H 0.0005 0.8123 -0.1835
H3J H 0.1835 0.5005 -0.3123
H3F H 0.5005 0.6877 0.1835
H3H H 0.6835 0.9995 0.3123
H3C H 0.8123 0.8165 0.0005
C6G C 0.06017(11) 0.76201(10) -0.17379(10)
C6J C 0.17379(10) 0.56017(11) -0.26201(10)
C6F C 0.56017(11) 0.73799(10) 0.17379(10)
C6H C 0.67379(10) 0.93983(11) 0.26201(10)
C6C C 0.76201(10) 0.82621(10) 0.06017(11)
H4G H 0.0561 0.7448 -0.2059
H4J H 0.2059 0.5561 -0.2448
H4F H 0.5561 0.7552 0.2059
H4H H 0.7059 0.9439 0.2448
H4C H 0.7448 0.7941 0.0561
C7J C 0.15246(14) 0.63387(13) -0.20377(10)
C7G C 0.13387(13) 0.70377(10) -0.15246(14)
C7F C 0.63387(13) 0.79623(10) 0.15246(14)
C7C C 0.70377(10) 0.84754(14) 0.13387(13)
C7H C 0.65246(14) 0.86613(13) 0.20377(10)
C8G C -0.00542(10) 0.87094(11) -0.10021(11)
C8J C 0.10021(11) 0.49458(10) -0.37094(11)
C8F C 0.49458(10) 0.62906(11) 0.10021(11)
C8H C 0.60021(11) 1.00542(10) 0.37094(11)
C8C C 0.87094(11) 0.89979(11) -0.00542(10)
loop_
_geom_bond_atom_site_label_1
_geom_bond_atom_site_label_2
_geom_bond_site_symmetry_1
_geom_bond_site_symmetry_2
N1 C7 1_555 1_555
Zn1 O1 1_555 1_555
Zn2 O2 1_555 1_555
O1 C8 1_555 1_555
O2 C8 1_555 1_555
O3 Zn2 1_555 1_555
C1 C2 1_555 1_555
C2 H1 1_555 1_555
C3 C2 1_555 1_555
H2 C3 1_555 1_555
C4 C3 1_555 1_555
C5 C4 1_555 1_555
H3 C5 1_555 1_555
C6 C1 1_555 1_555
H4 C6 1_555 1_555
C7 C1 1_555 1_555
C8 C4 1_555 1_555
N1J C7 1_555 1_555
N1G C7J 1_555 1_555
N1F C7F 1_555 1_555
N1C C7F 1_555 1_555
N1H C7C 1_555 1_555
Zn1C O1G 1_555 1_555
Zn1A O1J 1_555 1_555
Zn1B O1H 1_555 1_555
Zn1C_2 O1C 1_555 1_555
Zn2C O2G 1_555 1_555
Zn2A O2J 1_555 1_555
Zn2B O2H 1_555 1_555
Zn2C_2 O2C 1_555 1_555
O1G C8G 1_555 1_555
O1J C8J 1_555 1_555
O1F Zn1 1_555 1_555
O1H C8H 1_555 1_555
O1C C8C 1_555 1_555
O1I Zn1 1_555 1_555
O1L Zn1 1_555 1_555
O1R Zn1 1_555 1_555
O1U Zn1 1_555 1_555
O2G C8G 1_555 1_555
O2J C8J 1_555 1_555
O2F Zn2 1_555 1_555
O2H C8H 1_555 1_555
O2C C8C 1_555 1_555
O2I Zn2 1_555 1_555
O2C_2 Zn2C 1_555 1_555
O2K Zn2C 1_555 1_555
O3C Zn2C 1_555 1_555
C1G C2G 1_555 1_555
C1J C2J 1_555 1_555
C1F C2F 1_555 1_555
C1H C2H 1_555 1_555
C1C C2C 1_555 1_555
C2G H1G 1_555 1_555
C2J H1J 1_555 1_555
C2F H1F 1_555 1_555
C2H H1H 1_555 1_555
C2C H1C 1_555 1_555
C3G C2G 1_555 1_555
C3J C2J 1_555 1_555
C3F C2F 1_555 1_555
C3H C2H 1_555 1_555
C3C C2C 1_555 1_555
H2G C3G 1_555 1_555
H2J C3J 1_555 1_555
H2F C3F 1_555 1_555
H2H C3H 1_555 1_555
H2C C3C 1_555 1_555
C4G C3G 1_555 1_555
C4J C3J 1_555 1_555
C4F C3F 1_555 1_555
C4H C3H 1_555 1_555
C4C C3C 1_555 1_555
C5G C4G 1_555 1_555
C5J C4J 1_555 1_555
C5F C4F 1_555 1_555
C5H C4H 1_555 1_555
C5C C4C 1_555 1_555
H3G C5G 1_555 1_555
H3J C5J 1_555 1_555
H3F C5F 1_555 1_555
H3H C5H 1_555 1_555
H3C C5C 1_555 1_555
C6G C1G 1_555 1_555
C6J C1J 1_555 1_555
C6F C1F 1_555 1_555
C6H C1H 1_555 1_555
C6C C1C 1_555 1_555
H4G C6G 1_555 1_555
H4J C6J 1_555 1_555
H4F C6F 1_555 1_555
H4H C6H 1_555 1_555
H4C C6C 1_555 1_555
C7J N1J 1_555 1_555
C7G N1 1_555 1_555
C7F C1F 1_555 1_555
C7C N1C 1_555 1_555
C7H N1F 1_555 1_555
C8G C4G 1_555 1_555
C8J C4J 1_555 1_555
C8F O1F 1_555 1_555
C8H C4H 1_555 1_555
C8C C4C 1_555 1_555
C5 C6 1_555 1_555
N1G C7G 1_555 1_555
N1H C7H 1_555 1_555
O2F C8F 1_555 1_555
C1G C7G 1_555 1_555
C1J C7J 1_555 1_555
C1H C7H 1_555 1_555
C1C C7C 1_555 1_555
C4F C8F 1_555 1_555
C5G C6G 1_555 1_555
C5J C6J 1_555 1_555
C5F C6F 1_555 1_555
C5H C6H 1_555 1_555
C5C C6C 1_555 1_555

#END
