
#######################################################################
#
#                 Cambridge Crystallographic Data Centre
#                                CCDC 
#
#######################################################################
#
# If this CIF has been generated from an entry in the Cambridge 
# Structural Database, then it will include bibliographic, chemical, 
# crystal, experimental, refinement or atomic coordinate data resulting 
# from the CCDC's data processing and validation procedures.
#
#######################################################################

data_PIBPAS
_symmetry_cell_setting           tetragonal
_symmetry_space_group_name_H-M   'P 43 2 2'
_symmetry_Int_Tables_number      95
_space_group_name_Hall           'P 4cw 2c'
loop_
_symmetry_equiv_pos_site_id
_symmetry_equiv_pos_as_xyz
1 x,y,z
2 -x,-y,1/2+z
3 -y,x,3/4+z
4 y,-x,1/4+z
5 -x,y,-z
6 x,-y,1/2-z
7 y,x,1/4-z
8 -y,-x,3/4-z
_cell_length_a                   17.8737(3)
_cell_length_b                   17.8737(3)
_cell_length_c                   26.2972(7)
_cell_angle_alpha                90
_cell_angle_beta                 90
_cell_angle_gamma                90
_cell_volume                     8401.14
loop_
_atom_site_label
_atom_site_type_symbol
_atom_site_fract_x
_atom_site_fract_y
_atom_site_fract_z
C3 C 0.5833(15) 0.0236(9) 0.1783(10)
H1 H 0.6303 0.0447 0.1900
H2 H 0.5425 0.0441 0.1982
H3 H 0.5760 0.0359 0.1427
C5 C 0.6441(13) -0.1080(14) 0.1920(11)
H5 H 0.6887 -0.0903 0.1748
H6 H 0.6300 -0.1565 0.1786
H7 H 0.6541 -0.1124 0.2282
N2 N 0.5850(8) -0.0566(8) 0.1842(5)
H25 H 0.5531 -0.0656 0.2105
H26 H 0.5613 -0.0741 0.1560
C7 C 0.250(3) 0.856(3) 0.088(2)
H9 H 0.2693 0.8795 0.0573
H10 H 0.2853 0.8196 0.1003
H11 H 0.2409 0.8938 0.1135
C9 C 0.155(3) 0.786(3) 0.1231(18)
H12 H 0.1075 0.7607 0.1178
H13 H 0.1494 0.8244 0.1486
H14 H 0.1919 0.7494 0.1346
N4 N 0.180(2) 0.819(3) 0.0757(14)
H27 H 0.1576 0.8169 0.0464
C1 C 0.4670(3) 0.6945(4) 0.1555(2)
C2 C 0.8088(14) 0.7821(14) 0.1159(11)
C4 C 0.4894(4) 0.6426(4) 0.1922(2)
H4 H 0.5394 0.6266 0.1941
C6 C 0.4362(4) 0.6154(4) 0.2257(3)
H8 H 0.4507 0.5799 0.2501
C8 C 0.3622(4) 0.6387(4) 0.2244(2)
C10 C 0.3429(4) 0.6919(4) 0.1874(3)
H15 H 0.2931 0.7088 0.1858
C11 C 0.3938(4) 0.7203(4) 0.1533(2)
H16 H 0.3794 0.7563 0.1292
C12 C 0.5210(3) 0.7205(3) 0.1158(2)
C13 C 0.3051(4) 0.6079(4) 0.2583(3)
C14 C -0.0470(3) 0.6150(4) 0.2402(3)
C15 C 0.0071(4) 0.6423(5) 0.2080(3)
H17 H -0.0069 0.6649 0.1771
C16 C 0.0810(4) 0.6367(5) 0.2207(3)
H18 H 0.1173 0.6574 0.1989
C17 C 0.1036(4) 0.6015(5) 0.2647(3)
C18 C 0.0483(4) 0.5743(5) 0.2990(3)
H19 H 0.0620 0.5533 0.3304
C19 C -0.0262(4) 0.5797(4) 0.2849(3)
H20 H -0.0633 0.5590 0.3061
C20 C -0.1284(4) 0.6172(4) 0.2270(2)
C21 C 0.1837(4) 0.5904(5) 0.2769(3)
C22 C 0.3316(4) 0.3945(3) 0.4498(2)
C23 C 0.2574(4) 0.4010(4) 0.4354(2)
H21 H 0.2201 0.3747 0.4532
C24 C 0.2382(4) 0.4467(4) 0.3945(3)
H22 H 0.1879 0.4506 0.3844
C25 C 0.2929(4) 0.4865(4) 0.3686(3)
C26 C 0.3676(4) 0.4783(4) 0.3831(2)
H23 H 0.4052 0.5038 0.3651
C27 C 0.3869(3) 0.4327(3) 0.4238(2)
H24 H 0.4373 0.4279 0.4337
C28 C 0.3533(3) 0.3437(3) 0.4929(2)
C29 C 0.2719(4) 0.5365(4) 0.3261(3)
N1 N 0.2003(3) 0.5461(4) 0.3173(2)
N3 N 0.3277(3) 0.5655(3) 0.2969(2)
N5 N 0.2343(3) 0.6218(4) 0.2466(2)
O1 O 0.4952(2) 0.7544(2) 0.07803(13)
O2 O 0.7475(2) 0.7475(2) 0.1250
O3 O 0.5902(2) 0.7083(2) 0.12318(16)
O4 O 0.8218(11) 0.8248(14) 0.0793(8)
O5 O -0.1728(2) 0.5845(2) 0.25497(14)
O6 O -0.1456(2) 0.6549(3) 0.18744(16)
O7 O 0.4207(2) 0.3384(2) 0.50414(15)
O8 O 0.3009(2) 0.3111(2) 0.51710(15)
Zn1 Zn 0.66334(4) 0.74596(4) 0.07503(2)
Zn2 Zn 0.5000 0.74718(5) 0.0000
C1D C 0.5330(3) 0.6945(4) -0.1555(2)
C2F C 0.7821(14) 0.8088(14) 0.1341(11)
C4D C 0.5106(4) 0.6426(4) -0.1922(2)
H4D H 0.4606 0.6266 -0.1941
C6D C 0.5638(4) 0.6154(4) -0.2257(3)
H8D H 0.5493 0.5799 -0.2501
C8D C 0.6378(4) 0.6387(4) -0.2244(2)
C10D C 0.6571(4) 0.6919(4) -0.1874(3)
H15D H 0.7069 0.7088 -0.1858
C11D C 0.6062(4) 0.7203(4) -0.1533(2)
H16D H 0.6206 0.7563 -0.1292
C12D C 0.4790(3) 0.7205(3) -0.1158(2)
C13D C 0.6949(4) 0.6079(4) -0.2583(3)
C14D C 1.0470(3) 0.6150(4) -0.2402(3)
C15D C 0.9929(4) 0.6423(5) -0.2080(3)
H17D H 1.0069 0.6649 -0.1771
C16D C 0.9190(4) 0.6367(5) -0.2207(3)
H18D H 0.8827 0.6574 -0.1989
C17D C 0.8964(4) 0.6015(5) -0.2647(3)
C18D C 0.9517(4) 0.5743(5) -0.2990(3)
H19D H 0.9380 0.5533 -0.3304
C19D C 1.0262(4) 0.5797(4) -0.2849(3)
H20D H 1.0633 0.5590 -0.3061
C20D C 1.1284(4) 0.6172(4) -0.2270(2)
C21D C 0.8163(4) 0.5904(5) -0.2769(3)
C22D C 0.6684(4) 0.3945(3) -0.4498(2)
C23D C 0.7426(4) 0.4010(4) -0.4354(2)
H21D H 0.7799 0.3747 -0.4532
C24D C 0.7618(4) 0.4467(4) -0.3945(3)
H22D H 0.8121 0.4506 -0.3844
C25D C 0.7071(4) 0.4865(4) -0.3686(3)
C26D C 0.6324(4) 0.4783(4) -0.3831(2)
H23D H 0.5948 0.5038 -0.3651
C27D C 0.6131(3) 0.4327(3) -0.4238(2)
H24D H 0.5627 0.4279 -0.4337
C28D C 0.6467(3) 0.3437(3) -0.4929(2)
C29D C 0.7281(4) 0.5365(4) -0.3261(3)
N1D N 0.7997(3) 0.5461(4) -0.3173(2)
N3D N 0.6723(3) 0.5655(3) -0.2969(2)
N5D N 0.7657(3) 0.6218(4) -0.2466(2)
O1D O 0.5048(2) 0.7544(2) -0.07803(13)
O2B O 0.2525(2) 0.7475(2) -0.1250
O3D O 0.4098(2) 0.7083(2) -0.12318(16)
O4F O 0.8248(14) 0.8218(11) 0.1707(8)
O5D O 1.1728(2) 0.5845(2) -0.25497(14)
O5B O 0.4155(2) 0.8272(2) 0.00497(14)
O5F O 0.5845(2) 0.8272(2) -0.00497(14)
O6D O 1.1456(2) 0.6549(3) -0.18744(16)
O6F O 0.6549(3) 0.8544(2) 0.06256(16)
O6B O 0.3451(3) 0.8544(2) -0.06256(16)
O7D O 0.5793(2) 0.3384(2) -0.50414(15)
O7A O 0.5793(2) 0.6616(2) 0.00414(15)
O7E O 0.4207(2) 0.6616(2) -0.00414(15)
O8D O 0.6991(2) 0.3111(2) -0.51710(15)
O8A O 0.6991(2) 0.6889(2) 0.01710(15)
O8E O 0.3009(2) 0.6889(2) -0.01710(15)
Zn1D Zn 0.33666(4) 0.74596(4) -0.07503(2)
Zn1F Zn 0.74596(4) 0.66334(4) 0.17497(2)
Zn1F_2 Zn -0.25404(4) 0.66334(4) 0.17497(2)
Zn1A Zn 0.33666(4) 0.25404(4) 0.57503(2)
Zn1B Zn 1.25404(4) 0.66334(4) -0.17497(2)
Zn1E Zn 0.66334(4) 0.25404(4) -0.57503(2)
Zn2C Zn -0.25282(5) 0.5000 0.2500
Zn2A Zn 0.5000 0.25282(5) 0.5000
Zn2B Zn 1.25282(5) 0.5000 -0.2500
Zn2A_2 Zn 0.5000 0.25282(5) -0.5000
loop_
_geom_bond_atom_site_label_1
_geom_bond_atom_site_label_2
_geom_bond_site_symmetry_1
_geom_bond_site_symmetry_2
C1 C4 1_555 1_555
C2 O2 1_555 1_555
C3 H1 1_555 1_555
H2 C3 1_555 1_555
H3 C3 1_555 1_555
C4 H4 1_555 1_555
C5 H5 1_555 1_555
H6 C5 1_555 1_555
H7 C5 1_555 1_555
C6 C4 1_555 1_555
H8 C6 1_555 1_555
C7 H9 1_555 1_555
H10 C7 1_555 1_555
H11 C7 1_555 1_555
C8 C6 1_555 1_555
C9 H12 1_555 1_555
H13 C9 1_555 1_555
H14 C9 1_555 1_555
C10 C8 1_555 1_555
H15 C10 1_555 1_555
C11 C1 1_555 1_555
H16 C11 1_555 1_555
C12 C1 1_555 1_555
C13 C8 1_555 1_555
C14 C15 1_555 1_555
C15 H17 1_555 1_555
C16 C15 1_555 1_555
H18 C16 1_555 1_555
C17 C16 1_555 1_555
C18 C17 1_555 1_555
H19 C18 1_555 1_555
C19 C14 1_555 1_555
H20 C19 1_555 1_555
C20 C14 1_555 1_555
C21 C17 1_555 1_555
C22 C23 1_555 1_555
C23 H21 1_555 1_555
C24 C23 1_555 1_555
H22 C24 1_555 1_555
C25 C24 1_555 1_555
C26 C25 1_555 1_555
H23 C26 1_555 1_555
C27 C22 1_555 1_555
H24 C27 1_555 1_555
C28 C22 1_555 1_555
C29 C25 1_555 1_555
N1 C21 1_555 1_555
N2 C3 1_555 1_555
H25 N2 1_555 1_555
H26 N2 1_555 1_555
N3 C13 1_555 1_555
N4 C7 1_555 1_555
H27 N4 1_555 1_555
N5 C13 1_555 1_555
O1 C12 1_555 1_555
O2 Zn1 1_555 1_555
O3 C12 1_555 1_555
O4 C2 1_555 1_555
O5 C20 1_555 1_555
O6 C20 1_555 1_555
O7 C28 1_555 1_555
O8 C28 1_555 1_555
Zn1 O3 1_555 1_555
Zn2 O1 1_555 1_555
C1D C4D 1_555 1_555
C2F C2 1_555 1_555
C4D H4D 1_555 1_555
C6D C4D 1_555 1_555
H8D C6D 1_555 1_555
C8D C6D 1_555 1_555
C10D C8D 1_555 1_555
H15D C10D 1_555 1_555
C11D C1D 1_555 1_555
H16D C11D 1_555 1_555
C12D C1D 1_555 1_555
C13D C8D 1_555 1_555
C14D C15D 1_555 1_555
C15D H17D 1_555 1_555
C16D C15D 1_555 1_555
H18D C16D 1_555 1_555
C17D C16D 1_555 1_555
C18D C17D 1_555 1_555
H19D C18D 1_555 1_555
C19D C14D 1_555 1_555
H20D C19D 1_555 1_555
C20D C14D 1_555 1_555
C21D C17D 1_555 1_555
C22D C23D 1_555 1_555
C23D H21D 1_555 1_555
C24D C23D 1_555 1_555
H22D C24D 1_555 1_555
C25D C24D 1_555 1_555
C26D C25D 1_555 1_555
H23D C26D 1_555 1_555
C27D C22D 1_555 1_555
H24D C27D 1_555 1_555
C28D C22D 1_555 1_555
C29D C25D 1_555 1_555
N1D C21D 1_555 1_555
N3D C13D 1_555 1_555
N5D C13D 1_555 1_555
O1D Zn2 1_555 1_555
O2B Zn1D 1_555 1_555
O3D C12D 1_555 1_555
O4F C2 1_555 1_555
O5D C20D 1_555 1_555
O5B Zn2 1_555 1_555
O5F Zn2 1_555 1_555
O6D C20D 1_555 1_555
O6F Zn1 1_555 1_555
O6B Zn1D 1_555 1_555
O7D C28D 1_555 1_555
O7A Zn2 1_555 1_555
O7E Zn2 1_555 1_555
O8D C28D 1_555 1_555
O8A Zn1 1_555 1_555
O8E Zn1D 1_555 1_555
Zn1D O3D 1_555 1_555
Zn1F O2 1_555 1_555
Zn1F_2 O6 1_555 1_555
Zn1A O8 1_555 1_555
Zn1B O6D 1_555 1_555
Zn1E O8D 1_555 1_555
Zn2C O5 1_555 1_555
Zn2A O7 1_555 1_555
Zn2B O5D 1_555 1_555
Zn2A_2 O7D 1_555 1_555
C5 N2 1_555 1_555
C9 N4 1_555 1_555
C10 C11 1_555 1_555
C18 C19 1_555 1_555
C21 N5 1_555 1_555
C26 C27 1_555 1_555
C29 N1 1_555 1_555
C29 N3 1_555 1_555
O2 C2F 1_555 1_555
O4 C2F 1_555 1_555
C2F O4F 1_555 1_555
C10D C11D 1_555 1_555
C12D O1D 1_555 1_555
C18D C19D 1_555 1_555
C21D N5D 1_555 1_555
C26D C27D 1_555 1_555
C29D N1D 1_555 1_555
C29D N3D 1_555 1_555

#END
