
#######################################################################
#
#                 Cambridge Crystallographic Data Centre
#                                CCDC 
#
#######################################################################
#
# If this CIF has been generated from an entry in the Cambridge 
# Structural Database, then it will include bibliographic, chemical, 
# crystal, experimental, refinement or atomic coordinate data resulting 
# from the CCDC's data processing and validation procedures.
#
#######################################################################

data_PIBPIA
_symmetry_cell_setting           cubic
_symmetry_space_group_name_H-M   'P 43 3 2'
_symmetry_Int_Tables_number      212
_space_group_name_Hall           'P 4acd 2ab 3'
loop_
_symmetry_equiv_pos_site_id
_symmetry_equiv_pos_as_xyz
1 x,y,z
2 1/2-x,-y,1/2+z
3 -x,1/2+y,1/2-z
4 1/2+x,1/2-y,-z
5 z,x,y
6 1/2+z,1/2-x,-y
7 1/2-z,-x,1/2+y
8 -z,1/2+x,1/2-y
9 y,z,x
10 -y,1/2+z,1/2-x
11 1/2+y,1/2-z,-x
12 1/2-y,-z,1/2+x
13 1/4+y,3/4+x,3/4-z
14 1/4-y,1/4-x,1/4-z
15 3/4+y,3/4-x,1/4+z
16 3/4-y,1/4+x,3/4+z
17 1/4+x,3/4+z,3/4-y
18 3/4-x,1/4+z,3/4+y
19 1/4-x,1/4-z,1/4-y
20 3/4+x,3/4-z,1/4+y
21 1/4+z,3/4+y,3/4-x
22 3/4+z,3/4-y,1/4+x
23 3/4-z,1/4+y,3/4+x
24 1/4-z,1/4-y,1/4-x
_cell_length_a                   26.001(3)
_cell_length_b                   26.001(3)
_cell_length_c                   26.001(3)
_cell_angle_alpha                90
_cell_angle_beta                 90
_cell_angle_gamma                90
_cell_volume                     17578
loop_
_atom_site_label
_atom_site_type_symbol
_atom_site_fract_x
_atom_site_fract_y
_atom_site_fract_z
Cd1 Cd 0.1250 0.1250 0.1250
Cd2 Cd 0.20625(5) 0.20625(5) 0.20625(5)
N1 N -0.0570(14) 0.4258(17) 0.1267(8)
C1 C -0.0460(11) 0.3847(18) 0.098(2)
O1 O 0.1472(9) 0.2600(9) 0.1894(9)
C2 C 0.0508(14) 0.2761(15) 0.0840(16)
H1 H 0.0607 0.2512 0.0603
C3 C 0.0237(13) 0.3581(10) 0.1551(13)
H2 H 0.0167 0.3853 0.1772
C4 C 0.0126(13) 0.3094(13) 0.0763(11)
H3 H -0.0059 0.3052 0.0460
C5 C -0.0038(12) 0.3515(12) 0.1095(14)
C6 C 0.0744(13) 0.2829(12) 0.1321(17)
C7 C 0.1205(13) 0.2506(11) 0.1546(14)
O2 O 0.1277(6) 0.2142(7) 0.1244(7)
C8 C 0.0627(12) 0.3220(13) 0.1667(13)
H4 H 0.0805 0.3243 0.1976
O3 O 0.2581(8) 0.2581(8) 0.2581(8)
Cd1B Cd -0.1250 0.6250 0.3750
Cd1C Cd -0.3750 0.3750 -0.1250
Cd1A Cd 0.3750 -0.1250 0.6250
Cd1B_2 Cd -0.1250 -0.3750 0.3750
Cd2B Cd -0.20625(5) 0.70625(5) 0.29375(5)
Cd2C Cd -0.29375(5) 0.29375(5) -0.20625(5)
Cd2A Cd 0.29375(5) -0.20625(5) 0.70625(5)
Cd2B_2 Cd -0.20625(5) -0.29375(5) 0.29375(5)
N1J N -0.0742(17) 0.3733(8) 0.0570(14)
N1G N -0.1267(8) 0.4430(14) 0.0742(17)
N1D N 0.1267(8) -0.0570(14) 0.4258(17)
N1B N 0.0570(14) -0.0742(17) 0.3733(8)
N1K N 0.0742(17) -0.1267(8) 0.4430(14)
C1J C -0.1153(18) 0.402(2) 0.0460(11)
C1G C -0.098(2) 0.4540(11) 0.1153(18)
C1D C 0.098(2) -0.0460(11) 0.3847(18)
C1B C 0.0460(11) -0.1153(18) 0.402(2)
C1K C 0.1153(18) -0.098(2) 0.4540(11)
O1G O -0.1894(9) 0.6472(9) 0.2400(9)
O1J O -0.2400(9) 0.3106(9) -0.1472(9)
O1D O 0.1894(9) 0.1472(9) 0.2600(9)
O1K O 0.2400(9) -0.1894(9) 0.6472(9)
O1B O -0.1472(9) -0.2400(9) 0.3106(9)
O1H O 0.2600(9) 0.1894(9) 0.1472(9)
O1B_2 O -0.1472(9) 0.7600(9) 0.3106(9)
O1I O -0.2600(9) 0.6894(9) 0.3528(9)
C2G C -0.0840(16) 0.5508(14) 0.2239(15)
C2J C -0.2239(15) 0.4160(16) -0.0508(14)
C2D C 0.0840(16) 0.0508(14) 0.2761(15)
C2K C 0.2239(15) -0.0840(16) 0.5508(14)
C2B C -0.0508(14) -0.2239(15) 0.4160(16)
H1G H -0.0603 0.5607 0.2488
H1J H -0.2488 0.4397 -0.0607
H1D H 0.0603 0.0607 0.2512
H1K H 0.2488 -0.0603 0.5607
H1B H -0.0607 -0.2488 0.4397
C3G C -0.1551(13) 0.5237(13) 0.1419(10)
C3J C -0.1419(10) 0.3449(13) -0.0237(13)
C3D C 0.1551(13) 0.0237(13) 0.3581(10)
C3K C 0.1419(10) -0.1551(13) 0.5237(13)
C3B C -0.0237(13) -0.1419(10) 0.3449(13)
H2G H -0.1772 0.5167 0.1147
H2J H -0.1147 0.3228 -0.0167
H2D H 0.1772 0.0167 0.3853
H2K H 0.1147 -0.1772 0.5167
H2B H -0.0167 -0.1147 0.3228
C4G C -0.0763(11) 0.5126(13) 0.1906(13)
C4J C -0.1906(13) 0.4237(11) -0.0126(13)
C4D C 0.0763(11) 0.0126(13) 0.3094(13)
C4K C 0.1906(13) -0.0763(11) 0.5126(13)
C4B C -0.0126(13) -0.1906(13) 0.4237(11)
H3G H -0.0460 0.4941 0.1948
H3J H -0.1948 0.4540 0.0059
H3D H 0.0460 -0.0059 0.3052
H3K H 0.1948 -0.0460 0.4941
H3B H 0.0059 -0.1948 0.4540
C5G C -0.1095(14) 0.4962(12) 0.1485(12)
C5J C -0.1485(12) 0.3905(14) 0.0038(12)
C5D C 0.1095(14) -0.0038(12) 0.3515(12)
C5K C 0.1485(12) -0.1095(14) 0.4962(12)
C5B C 0.0038(12) -0.1485(12) 0.3905(14)
C6G C -0.1321(17) 0.5744(13) 0.2171(12)
C6J C -0.2171(12) 0.3679(17) -0.0744(13)
C6D C 0.1321(17) 0.0744(13) 0.2829(12)
C6K C 0.2171(12) -0.1321(17) 0.5744(13)
C6B C -0.0744(13) -0.2171(12) 0.3679(17)
C7G C -0.1546(14) 0.6205(13) 0.2494(11)
C7J C -0.2494(11) 0.3454(14) -0.1205(13)
C7D C 0.1546(14) 0.1205(13) 0.2506(11)
C7K C 0.2494(11) -0.1546(14) 0.6205(13)
C7B C -0.1205(13) -0.2494(11) 0.3454(14)
O2G O -0.1244(7) 0.6277(6) 0.2858(7)
O2J O -0.2858(7) 0.3756(7) -0.1277(6)
O2D O 0.1244(7) 0.1277(6) 0.2142(7)
O2K O 0.2858(7) -0.1244(7) 0.6277(6)
O2B O -0.1277(6) -0.2858(7) 0.3756(7)
O2H O 0.2142(7) 0.1244(7) 0.1277(6)
O2M O 0.0358(7) 0.1223(6) 0.1256(7)
O2R O 0.1223(6) 0.1256(7) 0.0358(7)
O2W O 0.1256(7) 0.0358(7) 0.1223(6)
C8G C -0.1667(13) 0.5627(12) 0.1780(13)
C8J C -0.1780(13) 0.3333(13) -0.0627(12)
C8D C 0.1667(13) 0.0627(12) 0.3220(13)
C8K C 0.1780(13) -0.1667(13) 0.5627(12)
C8B C -0.0627(12) -0.1780(13) 0.3333(13)
H4G H -0.1976 0.5805 0.1757
H4J H -0.1757 0.3024 -0.0805
H4D H 0.1976 0.0805 0.3243
H4K H 0.1757 -0.1976 0.5805
H4B H -0.0805 -0.1757 0.3024
O3B O -0.2581(8) 0.7581(8) 0.2419(8)
loop_
_geom_bond_atom_site_label_1
_geom_bond_atom_site_label_2
_geom_bond_site_symmetry_1
_geom_bond_site_symmetry_2
Cd1 O2 1_555 1_555
Cd2 O1 1_555 1_555
N1 C1 1_555 1_555
C1 C5 1_555 1_555
O1 C7 1_555 1_555
C2 H1 1_555 1_555
C3 H2 1_555 1_555
C4 C2 1_555 1_555
H3 C4 1_555 1_555
C5 C3 1_555 1_555
C6 C2 1_555 1_555
C7 C6 1_555 1_555
O2 C7 1_555 1_555
C8 C3 1_555 1_555
H4 C8 1_555 1_555
O3 Cd2 1_555 1_555
Cd1B O2G 1_555 1_555
Cd1C O2J 1_555 1_555
Cd1A O2K 1_555 1_555
Cd1B_2 O2B 1_555 1_555
Cd2B O1G 1_555 1_555
Cd2C O1J 1_555 1_555
Cd2A O1K 1_555 1_555
Cd2B_2 O1B 1_555 1_555
N1J C1 1_555 1_555
N1G C1J 1_555 1_555
N1D C1D 1_555 1_555
N1B C1D 1_555 1_555
N1K C1B 1_555 1_555
C1J N1J 1_555 1_555
C1G N1 1_555 1_555
C1D C5D 1_555 1_555
C1B N1B 1_555 1_555
C1K N1D 1_555 1_555
O1G C7G 1_555 1_555
O1J C7J 1_555 1_555
O1D Cd2 1_555 1_555
O1K C7K 1_555 1_555
O1B C7B 1_555 1_555
O1H Cd2 1_555 1_555
O1B_2 Cd2B 1_555 1_555
O1I Cd2B 1_555 1_555
C2G H1G 1_555 1_555
C2J H1J 1_555 1_555
C2D H1D 1_555 1_555
C2K H1K 1_555 1_555
C2B H1B 1_555 1_555
C3G H2G 1_555 1_555
C3J H2J 1_555 1_555
C3D H2D 1_555 1_555
C3K H2K 1_555 1_555
C3B H2B 1_555 1_555
C4G C2G 1_555 1_555
C4J C2J 1_555 1_555
C4D C2D 1_555 1_555
C4K C2K 1_555 1_555
C4B C2B 1_555 1_555
H3G C4G 1_555 1_555
H3J C4J 1_555 1_555
H3D C4D 1_555 1_555
H3K C4K 1_555 1_555
H3B C4B 1_555 1_555
C5G C1G 1_555 1_555
C5J C1J 1_555 1_555
C5D C3D 1_555 1_555
C5K C1K 1_555 1_555
C5B C1B 1_555 1_555
C6G C2G 1_555 1_555
C6J C2J 1_555 1_555
C6D C2D 1_555 1_555
C6K C2K 1_555 1_555
C6B C2B 1_555 1_555
C7G C6G 1_555 1_555
C7J C6J 1_555 1_555
C7D O1D 1_555 1_555
C7K C6K 1_555 1_555
C7B C6B 1_555 1_555
O2G C7G 1_555 1_555
O2J C7J 1_555 1_555
O2D Cd1 1_555 1_555
O2K C7K 1_555 1_555
O2B C7B 1_555 1_555
O2H Cd1 1_555 1_555
O2M Cd1 1_555 1_555
O2R Cd1 1_555 1_555
O2W Cd1 1_555 1_555
C8G C3G 1_555 1_555
C8J C3J 1_555 1_555
C8D C3D 1_555 1_555
C8K C3K 1_555 1_555
C8B C3B 1_555 1_555
H4G C8G 1_555 1_555
H4J C8J 1_555 1_555
H4D C8D 1_555 1_555
H4K C8K 1_555 1_555
H4B C8B 1_555 1_555
O3B Cd2B 1_555 1_555
C4 C5 1_555 1_555
C6 C8 1_555 1_555
N1G C1G 1_555 1_555
N1K C1K 1_555 1_555
C3G C5G 1_555 1_555
C3J C5J 1_555 1_555
C3K C5K 1_555 1_555
C3B C5B 1_555 1_555
C4G C5G 1_555 1_555
C4J C5J 1_555 1_555
C4D C5D 1_555 1_555
C4K C5K 1_555 1_555
C4B C5B 1_555 1_555
C6G C8G 1_555 1_555
C6J C8J 1_555 1_555
C6D C7D 1_555 1_555
C6D C8D 1_555 1_555
C6K C8K 1_555 1_555
C6B C8B 1_555 1_555
C7D O2D 1_555 1_555

#END
