
#######################################################################
#
#                 Cambridge Crystallographic Data Centre
#                                CCDC 
#
#######################################################################
#
# If this CIF has been generated from an entry in the Cambridge 
# Structural Database, then it will include bibliographic, chemical, 
# crystal, experimental, refinement or atomic coordinate data resulting 
# from the CCDC's data processing and validation procedures.
#
#######################################################################

data_PIBXUV
_symmetry_cell_setting           tetragonal
_symmetry_space_group_name_H-M   'I 4/m m m'
_symmetry_Int_Tables_number      139
_space_group_name_Hall           '-I 4 2'
loop_
_symmetry_equiv_pos_site_id
_symmetry_equiv_pos_as_xyz
1 x,y,z
2 -x,-y,z
3 -y,x,z
4 y,-x,z
5 -x,y,-z
6 x,-y,-z
7 y,x,-z
8 -y,-x,-z
9 1/2+x,1/2+y,1/2+z
10 1/2-x,1/2-y,1/2+z
11 1/2-y,1/2+x,1/2+z
12 1/2+y,1/2-x,1/2+z
13 1/2-x,1/2+y,1/2-z
14 1/2+x,1/2-y,1/2-z
15 1/2+y,1/2+x,1/2-z
16 1/2-y,1/2-x,1/2-z
17 -x,-y,-z
18 x,y,-z
19 y,-x,-z
20 -y,x,-z
21 x,-y,z
22 -x,y,z
23 -y,-x,z
24 y,x,z
25 1/2-x,1/2-y,1/2-z
26 1/2+x,1/2+y,1/2-z
27 1/2+y,1/2-x,1/2-z
28 1/2-y,1/2+x,1/2-z
29 1/2+x,1/2-y,1/2+z
30 1/2-x,1/2+y,1/2+z
31 1/2-y,1/2-x,1/2+z
32 1/2+y,1/2+x,1/2+z
_cell_length_a                   16.9198(4)
_cell_length_b                   16.9198(4)
_cell_length_c                   16.0170(6)
_cell_angle_alpha                90
_cell_angle_beta                 90
_cell_angle_gamma                90
_cell_volume                     4585.34
loop_
_atom_site_label
_atom_site_type_symbol
_atom_site_fract_x
_atom_site_fract_y
_atom_site_fract_z
Cd1 Cd 0.0000 0.0000 0.40339(4)
Mn1 Mn 0.5000 0.5000 0.5000
O1 O 0.09069(15) 0.09069(15) 0.4309(3)
O2 O 0.5000 0.5000 0.3637(4)
O3 O 0.5000 0.5000 0.2270(6)
N1 N 0.5000 0.3806(3) 0.5000
C1 C 0.4609(3) 0.2519(3) 0.5000
H1 H 0.4286 0.2074 0.5000
C2 C 0.4349(3) 0.3323(2) 0.5000
C3 C 0.3562(2) 0.3562(2) 0.5000
C4 C 0.2941(3) 0.2941(3) 0.5000
C5 C 0.2643(2) 0.2643(2) 0.4281(4)
H2 H 0.2833 0.2833 0.3774
C6 C 0.2070(2) 0.2070(2) 0.4279(4)
H3 H 0.1881 0.1881 0.3771
C7 C 0.1772(3) 0.1772(3) 0.5000
C8 C 0.1145(3) 0.1145(3) 0.5000
C9 C 0.5000 0.5000 0.2955(5)
O1D O 0.90931(15) 0.09069(15) 0.5691(3)
C1D C 0.5391(3) 0.2519(3) 0.5000
H1D H 0.5714 0.2074 0.5000
C2D C 0.5651(3) 0.3323(2) 0.5000
C3B C 0.6438(2) 0.3562(2) 0.5000
C4B C 0.7059(3) 0.2941(3) 0.5000
C5D C 0.7357(2) 0.2643(2) 0.5719(4)
H2D H 0.7167 0.2833 0.6226
C6D C 0.7930(2) 0.2070(2) 0.5721(4)
H3D H 0.8119 0.1881 0.6229
C7B C 0.8228(3) 0.1772(3) 0.5000
C8B C 0.8855(3) 0.1145(3) 0.5000
O1F O 0.09069(15) 0.09069(15) 0.5691(3)
N1C N 0.3806(3) 0.5000 0.5000
C1F C 0.2519(3) 0.4609(3) 0.5000
H1F H 0.2074 0.4286 0.5000
C2F C 0.3323(2) 0.4349(3) 0.5000
C5F C 0.2643(2) 0.2643(2) 0.5719(4)
H2F H 0.2833 0.2833 0.6226
C6F C 0.2070(2) 0.2070(2) 0.5721(4)
H3F H 0.1881 0.1881 0.6229
O1B O 0.90931(15) 0.09069(15) 0.4309(3)
C5B C 0.7357(2) 0.2643(2) 0.4281(4)
H2B H 0.7167 0.2833 0.3774
C6B C 0.7930(2) 0.2070(2) 0.4279(4)
H3B H 0.8119 0.1881 0.3771
N1B N 0.6194(3) 0.5000 0.5000
C1B C 0.7481(3) 0.4609(3) 0.5000
H1B H 0.7926 0.4286 0.5000
C2B C 0.6677(2) 0.4349(3) 0.5000
O1C O 0.09069(15) 0.90931(15) 0.4309(3)
C1C C 0.2519(3) 0.5391(3) 0.5000
H1C H 0.2074 0.5714 0.5000
C2C C 0.3323(2) 0.5651(3) 0.5000
C3C C 0.3562(2) 0.6438(2) 0.5000
C4C C 0.2941(3) 0.7059(3) 0.5000
C5C C 0.2643(2) 0.7357(2) 0.4281(4)
H2C H 0.2833 0.7167 0.3774
C6C C 0.2070(2) 0.7930(2) 0.4279(4)
H3C H 0.1881 0.8119 0.3771
C7C C 0.1772(3) 0.8228(3) 0.5000
C8C C 0.1145(3) 0.8855(3) 0.5000
O1G O 0.90931(15) 0.90931(15) 0.5691(3)
C1G C 0.7481(3) 0.5391(3) 0.5000
H1G H 0.7926 0.5714 0.5000
C2G C 0.6677(2) 0.5651(3) 0.5000
C3A C 0.6438(2) 0.6438(2) 0.5000
C4A C 0.7059(3) 0.7059(3) 0.5000
C5G C 0.7357(2) 0.7357(2) 0.5719(4)
H2G H 0.7167 0.7167 0.6226
C6G C 0.7930(2) 0.7930(2) 0.5721(4)
H3G H 0.8119 0.8119 0.6229
C7A C 0.8228(3) 0.8228(3) 0.5000
C8A C 0.8855(3) 0.8855(3) 0.5000
O1E O 0.09069(15) 0.90931(15) 0.5691(3)
C5E C 0.2643(2) 0.7357(2) 0.5719(4)
H2E H 0.2833 0.7167 0.6226
C6E C 0.2070(2) 0.7930(2) 0.5721(4)
H3E H 0.1881 0.8119 0.6229
O1A O 0.90931(15) 0.90931(15) 0.4309(3)
C5A C 0.7357(2) 0.7357(2) 0.4281(4)
H2A H 0.7167 0.7167 0.3774
C6A C 0.7930(2) 0.7930(2) 0.4279(4)
H3A H 0.8119 0.8119 0.3771
N1A N 0.5000 0.6194(3) 0.5000
C1A C 0.5391(3) 0.7481(3) 0.5000
H1A H 0.5714 0.7926 0.5000
C2A C 0.5651(3) 0.6677(2) 0.5000
C1E C 0.4609(3) 0.7481(3) 0.5000
H1E H 0.4286 0.7926 0.5000
C2E C 0.4349(3) 0.6677(2) 0.5000
Cd1D Cd 0.0000 0.0000 0.59661(4)
O2D O 0.5000 0.5000 0.6363(4)
O3D O 0.5000 0.5000 0.7730(6)
C9D C 0.5000 0.5000 0.7045(5)
Cd1_2 Cd 0.0000 1.0000 0.40339(4)
Cd1_3 Cd 1.0000 0.0000 0.40339(4)
Cd1_4 Cd 1.0000 1.0000 0.40339(4)
Cd1D_2 Cd 0.0000 1.0000 0.59661(4)
Cd1D_3 Cd 1.0000 0.0000 0.59661(4)
Cd1D_4 Cd 1.0000 1.0000 0.59661(4)
Cd1H Cd 0.5000 0.5000 0.90339(4)
Cd1L Cd 0.5000 0.5000 0.09661(4)
O1A_2 O -0.09069(15) -0.09069(15) 0.4309(3)
O1B_2 O -0.09069(15) 0.09069(15) 0.4309(3)
O1C_2 O 0.09069(15) -0.09069(15) 0.4309(3)
O1D_2 O -0.09069(15) 0.09069(15) 0.5691(3)
O1E_2 O 0.09069(15) -0.09069(15) 0.5691(3)
O1G_2 O -0.09069(15) -0.09069(15) 0.5691(3)
O3H O 0.0000 0.0000 0.7270(6)
O3L O 0.0000 0.0000 0.2730(6)
loop_
_geom_bond_atom_site_label_1
_geom_bond_atom_site_label_2
_geom_bond_site_symmetry_1
_geom_bond_site_symmetry_2
Cd1 O1 1_555 1_555
Mn1 O2 1_555 1_555
O1 C8 1_555 1_555
O2 C9 1_555 1_555
O3 C9 1_555 1_555
N1 Mn1 1_555 1_555
C1 H1 1_555 1_555
C2 N1 1_555 1_555
C3 C2 1_555 1_555
C4 C3 1_555 1_555
C5 C4 1_555 1_555
H2 C5 1_555 1_555
C6 C5 1_555 1_555
H3 C6 1_555 1_555
C7 C6 1_555 1_555
C8 C7 1_555 1_555
O1D C8B 1_555 1_555
C1D C1 1_555 1_555
H1D C1D 1_555 1_555
C2D N1 1_555 1_555
C3B C2D 1_555 1_555
C4B C3B 1_555 1_555
C5D C4B 1_555 1_555
H2D C5D 1_555 1_555
C6D C5D 1_555 1_555
H3D C6D 1_555 1_555
C7B C6D 1_555 1_555
C8B C7B 1_555 1_555
O1F C8 1_555 1_555
N1C Mn1 1_555 1_555
C1F H1F 1_555 1_555
C2F C3 1_555 1_555
C5F C4 1_555 1_555
H2F C5F 1_555 1_555
C6F C7 1_555 1_555
H3F C6F 1_555 1_555
O1B C8B 1_555 1_555
C5B C4B 1_555 1_555
H2B C5B 1_555 1_555
C6B C7B 1_555 1_555
H3B C6B 1_555 1_555
N1B Mn1 1_555 1_555
C1B H1B 1_555 1_555
C2B C3B 1_555 1_555
O1C C8C 1_555 1_555
C1C C1F 1_555 1_555
H1C C1C 1_555 1_555
C2C N1C 1_555 1_555
C3C C2C 1_555 1_555
C4C C3C 1_555 1_555
C5C C4C 1_555 1_555
H2C C5C 1_555 1_555
C6C C5C 1_555 1_555
H3C C6C 1_555 1_555
C7C C6C 1_555 1_555
C8C C7C 1_555 1_555
O1G C8A 1_555 1_555
C1G C1B 1_555 1_555
H1G C1G 1_555 1_555
C2G N1B 1_555 1_555
C3A C2G 1_555 1_555
C4A C3A 1_555 1_555
C5G C4A 1_555 1_555
H2G C5G 1_555 1_555
C6G C5G 1_555 1_555
H3G C6G 1_555 1_555
C7A C6G 1_555 1_555
C8A C7A 1_555 1_555
O1E C8C 1_555 1_555
C5E C4C 1_555 1_555
H2E C5E 1_555 1_555
C6E C7C 1_555 1_555
H3E C6E 1_555 1_555
O1A C8A 1_555 1_555
C5A C4A 1_555 1_555
H2A C5A 1_555 1_555
C6A C7A 1_555 1_555
H3A C6A 1_555 1_555
N1A Mn1 1_555 1_555
C1A H1A 1_555 1_555
C2A C3A 1_555 1_555
C1E C1A 1_555 1_555
H1E C1E 1_555 1_555
C2E C3C 1_555 1_555
Cd1D O1F 1_555 1_555
O2D Mn1 1_555 1_555
O3D C9D 1_555 1_555
C9D O2D 1_555 1_555
Cd1_2 O1C 1_555 1_555
Cd1_3 O1B 1_555 1_555
Cd1_4 O1A 1_555 1_555
Cd1D_2 O1E 1_555 1_555
Cd1D_3 O1D 1_555 1_555
Cd1D_4 O1G 1_555 1_555
Cd1H O3D 1_555 1_555
Cd1L O3 1_555 1_555
O1A_2 Cd1 1_555 1_555
O1B_2 Cd1 1_555 1_555
O1C_2 Cd1 1_555 1_555
O1D_2 Cd1D 1_555 1_555
O1E_2 Cd1D 1_555 1_555
O1G_2 Cd1D 1_555 1_555
O3H Cd1D 1_555 1_555
O3L Cd1 1_555 1_555
C1 C2 1_555 1_555
C1D C2D 1_555 1_555
N1C C2F 1_555 1_555
C1F C2F 1_555 1_555
C5F C6F 1_555 1_555
C5B C6B 1_555 1_555
N1B C2B 1_555 1_555
C1B C2B 1_555 1_555
C1C C2C 1_555 1_555
C1G C2G 1_555 1_555
C5E C6E 1_555 1_555
C5A C6A 1_555 1_555
N1A C2A 1_555 1_555
N1A C2E 1_555 1_555
C1A C2A 1_555 1_555
C1E C2E 1_555 1_555

#END
