
#######################################################################
#
#                 Cambridge Crystallographic Data Centre
#                                CCDC 
#
#######################################################################
#
# If this CIF has been generated from an entry in the Cambridge 
# Structural Database, then it will include bibliographic, chemical, 
# crystal, experimental, refinement or atomic coordinate data resulting 
# from the CCDC's data processing and validation procedures.
#
#######################################################################

data_PIFMIB
_symmetry_cell_setting           triclinic
_symmetry_space_group_name_H-M   'P -1'
_symmetry_Int_Tables_number      2
_space_group_name_Hall           '-P 1'
loop_
_symmetry_equiv_pos_site_id
_symmetry_equiv_pos_as_xyz
1 x,y,z
2 -x,-y,-z
_cell_length_a                   9.588(2)
_cell_length_b                   10.322(3)
_cell_length_c                   10.861(3)
_cell_angle_alpha                72.139(5)
_cell_angle_beta                 64.783(5)
_cell_angle_gamma                62.722(5)
_cell_volume                     855.964
loop_
_atom_site_label
_atom_site_type_symbol
_atom_site_fract_x
_atom_site_fract_y
_atom_site_fract_z
Ar1 Ar 0.649(2) 0.172(2) 0.4582(16)
C1 C 0.8264(16) 0.2626(15) 0.0766(13)
C2 C 0.7303(13) 0.4118(13) 0.1177(14)
C3 C 0.8066(14) 0.4853(13) 0.1371(14)
H1 H 0.9207 0.4423 0.1214
C4 C 0.7150(13) 0.6221(13) 0.1797(15)
H2 H 0.7676 0.6734 0.1890
C5 C 0.5449(14) 0.6826(13) 0.2084(14)
H3 H 0.4818 0.7724 0.2422
C6 C 0.4685(14) 0.6113(13) 0.1876(14)
H4 H 0.3543 0.6543 0.2036
C7 C 0.5604(13) 0.4761(13) 0.1430(14)
H5 H 0.5080 0.4274 0.1297
C8 C 0.9441(18) -0.1250(16) 0.2562(16)
C9 C 0.9192(17) -0.2040(16) 0.4007(13)
C10 C 1.0178(15) -0.2166(14) 0.4679(13)
H6 H 1.0999 -0.1773 0.4250
C11 C 0.9937(17) -0.2884(16) 0.6001(14)
H7 H 1.0561 -0.2936 0.6489
C12 C 0.8808(18) -0.3511(17) 0.6593(13)
H8 H 0.8740 -0.4082 0.7450
C13 C 0.7771(18) -0.3326(17) 0.5964(14)
H9 H 0.6912 -0.3673 0.6422
C14 C 0.8000(17) -0.2613(17) 0.4630(14)
H10 H 0.7337 -0.2528 0.4163
C15 C 1.3529(16) 0.0676(14) 0.0877(13)
H11 H 1.2514 0.1130 0.1527
C16 C 1.4966(14) 0.0659(14) 0.0883(13)
H12 H 1.4905 0.1161 0.1495
N1 N 1.3573(12) 0.0059(12) -0.0035(11)
O1 O 0.9828(9) 0.2061(9) 0.0594(8)
O2 O 0.7517(10) 0.1991(9) 0.0598(8)
O3 O 1.0699(11) -0.0917(10) 0.1996(9)
O4 O 0.8384(11) -0.0985(10) 0.2007(9)
Rh1 Rh 1.12318(13) 0.00365(13) -0.00170(13)
C1A C 1.1736(16) -0.2626(15) -0.0766(13)
C2A C 1.2697(13) -0.4118(13) -0.1177(14)
C3A C 1.1934(14) -0.4853(13) -0.1371(14)
H1A H 1.0793 -0.4423 -0.1214
C4A C 1.2850(13) -0.6221(13) -0.1797(15)
H2A H 1.2324 -0.6734 -0.1890
C5A C 1.4551(14) -0.6826(13) -0.2084(14)
H3A H 1.5182 -0.7724 -0.2422
C6A C 1.5315(14) -0.6113(13) -0.1876(14)
H4A H 1.6457 -0.6543 -0.2036
C7A C 1.4396(13) -0.4761(13) -0.1430(14)
H5A H 1.4920 -0.4274 -0.1297
C8A C 1.0559(18) 0.1250(16) -0.2562(16)
C9A C 1.0808(17) 0.2040(16) -0.4007(13)
C10A C 0.9822(15) 0.2166(14) -0.4679(13)
H6A H 0.9001 0.1773 -0.4250
C11A C 1.0063(17) 0.2884(16) -0.6001(14)
H7A H 0.9439 0.2936 -0.6489
C12A C 1.1192(18) 0.3511(17) -0.6593(13)
H8A H 1.1260 0.4082 -0.7450
C13A C 1.2229(18) 0.3326(17) -0.5964(14)
H9A H 1.3088 0.3673 -0.6422
C14A C 1.2000(17) 0.2613(17) -0.4630(14)
H10A H 1.2663 0.2528 -0.4163
C15A C 1.6471(16) -0.0676(14) -0.0877(13)
H11A H 1.7486 -0.1130 -0.1527
C16A C 1.5034(14) -0.0659(14) -0.0883(13)
H12A H 1.5095 -0.1161 -0.1495
N1A N 1.6427(12) -0.0059(12) 0.0035(11)
O1A O 1.0172(9) -0.2061(9) -0.0594(8)
O1A_2 O 2.0172(9) -0.2061(9) -0.0594(8)
O2A O 1.2483(10) -0.1991(9) -0.0598(8)
O2_2 O 1.7517(10) 0.1991(9) 0.0598(8)
O3A O 0.9301(11) 0.0917(10) -0.1996(9)
O3A_2 O 1.9301(11) 0.0917(10) -0.1996(9)
O4A O 1.1616(11) 0.0985(10) -0.2007(9)
O4_2 O 1.8384(11) -0.0985(10) 0.2007(9)
Rh1A Rh 1.87682(13) -0.00365(13) 0.00170(13)
Rh1A_2 Rh 0.87682(13) -0.00365(13) 0.00170(13)
Rh1_2 Rh 2.12318(13) 0.00365(13) -0.00170(13)
loop_
_geom_bond_atom_site_label_1
_geom_bond_atom_site_label_2
_geom_bond_site_symmetry_1
_geom_bond_site_symmetry_2
C1 C2 1_555 1_555
C2 C3 1_555 1_555
C3 H1 1_555 1_555
C4 C3 1_555 1_555
H2 C4 1_555 1_555
C5 C4 1_555 1_555
H3 C5 1_555 1_555
C6 C5 1_555 1_555
H4 C6 1_555 1_555
C7 C2 1_555 1_555
H5 C7 1_555 1_555
C8 C9 1_555 1_555
C9 C10 1_555 1_555
C10 H6 1_555 1_555
C11 C10 1_555 1_555
H7 C11 1_555 1_555
C12 C11 1_555 1_555
H8 C12 1_555 1_555
C13 C12 1_555 1_555
H9 C13 1_555 1_555
C14 C9 1_555 1_555
H10 C14 1_555 1_555
C15 H11 1_555 1_555
C16 C15 1_555 1_555
H12 C16 1_555 1_555
N1 C15 1_555 1_555
O1 C1 1_555 1_555
O2 C1 1_555 1_555
O3 C8 1_555 1_555
O4 C8 1_555 1_555
Rh1 N1 1_555 1_555
C1A C2A 1_555 1_555
C2A C3A 1_555 1_555
C3A H1A 1_555 1_555
C4A C3A 1_555 1_555
H2A C4A 1_555 1_555
C5A C4A 1_555 1_555
H3A C5A 1_555 1_555
C6A C5A 1_555 1_555
H4A C6A 1_555 1_555
C7A C2A 1_555 1_555
H5A C7A 1_555 1_555
C8A C9A 1_555 1_555
C9A C10A 1_555 1_555
C10A H6A 1_555 1_555
C11A C10A 1_555 1_555
H7A C11A 1_555 1_555
C12A C11A 1_555 1_555
H8A C12A 1_555 1_555
C13A C12A 1_555 1_555
H9A C13A 1_555 1_555
C14A C9A 1_555 1_555
H10A C14A 1_555 1_555
C15A H11A 1_555 1_555
C16A N1 1_555 1_555
H12A C16A 1_555 1_555
N1A C16 1_555 1_555
O1A C1A 1_555 1_555
O1A_2 Rh1A 1_555 1_555
O2A Rh1 1_555 1_555
O2_2 Rh1A 1_555 1_555
O3A C8A 1_555 1_555
O3A_2 Rh1A 1_555 1_555
O4A Rh1 1_555 1_555
O4_2 Rh1A 1_555 1_555
Rh1A N1A 1_555 1_555
Rh1A_2 O2 1_555 1_555
Rh1_2 Rh1A 1_555 1_555
C6 C7 1_555 1_555
C13 C14 1_555 1_555
O1 Rh1 1_555 1_555
O3 Rh1 1_555 1_555
O4 Rh1A_2 1_555 1_555
Rh1 Rh1A_2 1_555 1_555
C1A O2A 1_555 1_555
C6A C7A 1_555 1_555
C8A O4A 1_555 1_555
C13A C14A 1_555 1_555
C15A C16A 1_555 1_555
C15A N1A 1_555 1_555
O1A Rh1A_2 1_555 1_555
O3A Rh1A_2 1_555 1_555

#END
