
#######################################################################
#
#                 Cambridge Crystallographic Data Centre
#                                CCDC 
#
#######################################################################
#
# If this CIF has been generated from an entry in the Cambridge 
# Structural Database, then it will include bibliographic, chemical, 
# crystal, experimental, refinement or atomic coordinate data resulting 
# from the CCDC's data processing and validation procedures.
#
#######################################################################

data_PIHJOH01
_symmetry_cell_setting           monoclinic
_symmetry_space_group_name_H-M   'I 2/a'
_symmetry_Int_Tables_number      15
_space_group_name_Hall           '-I 2ya'
loop_
_symmetry_equiv_pos_site_id
_symmetry_equiv_pos_as_xyz
1 x,y,z
2 1/2-x,y,-z
3 1/2+x,1/2+y,1/2+z
4 -x,1/2+y,1/2-z
5 -x,-y,-z
6 1/2+x,-y,z
7 1/2-x,1/2-y,1/2-z
8 x,1/2-y,1/2+z
_cell_length_a                   8.5415(10)
_cell_length_b                   14.5539(17)
_cell_length_c                   18.608(2)
_cell_angle_alpha                90
_cell_angle_beta                 98.551(2)
_cell_angle_gamma                90
_cell_volume                     2287.49
loop_
_atom_site_label
_atom_site_type_symbol
_atom_site_fract_x
_atom_site_fract_y
_atom_site_fract_z
Mn1 Mn 0.7500 0.91944(3) 0.5000
N1 N 0.62457(18) 0.81319(11) 0.56339(8)
O1 O 0.33539(15) 0.52418(9) 0.93439(7)
O2 O 0.55338(15) 0.59860(9) 0.91396(7)
C1 C 0.4170(2) 0.56616(13) 0.89431(10)
C2 C 0.3458(2) 0.58235(13) 0.81578(10)
C3 C 0.4292(2) 0.63187(13) 0.77008(10)
H1 H 0.5320 0.6543 0.7882
C4 C 0.3646(2) 0.64934(13) 0.69786(10)
C5 C 0.2131(2) 0.61557(15) 0.67233(10)
H2 H 0.1667 0.6272 0.6236
C6 C 0.1304(3) 0.56541(16) 0.71739(11)
H3 H 0.0282 0.5423 0.6992
C7 C 0.1960(2) 0.54851(14) 0.78932(11)
H4 H 0.1386 0.5141 0.8201
C8 C 0.6974(2) 0.75166(14) 0.61072(10)
H5 H 0.8090 0.7455 0.6142
C9 C 0.6193(2) 0.69673(14) 0.65469(10)
H6 H 0.6771 0.6548 0.6877
C10 C 0.4547(2) 0.70333(13) 0.65028(10)
C11 C 0.3783(2) 0.76575(13) 0.59987(10)
H7 H 0.2663 0.7714 0.5936
C12 C 0.4655(2) 0.81928(14) 0.55907(10)
H8 H 0.4110 0.8626 0.5263
N1A N 0.87543(18) 0.81319(11) 0.43661(8)
O1A O 1.16461(15) 0.52418(9) 0.06561(7)
O2A O 0.94662(15) 0.59860(9) 0.08604(7)
C1A C 1.0830(2) 0.56616(13) 0.10569(10)
C2A C 1.1542(2) 0.58235(13) 0.18422(10)
C3A C 1.0708(2) 0.63187(13) 0.22992(10)
H1A H 0.9680 0.6543 0.2118
C4A C 1.1354(2) 0.64934(13) 0.30214(10)
C5A C 1.2869(2) 0.61557(15) 0.32767(10)
H2A H 1.3333 0.6272 0.3764
C6A C 1.3696(3) 0.56541(16) 0.28261(11)
H3A H 1.4718 0.5423 0.3008
C7A C 1.3040(2) 0.54851(14) 0.21068(11)
H4A H 1.3614 0.5141 0.1799
C8A C 0.8026(2) 0.75166(14) 0.38928(10)
H5A H 0.6910 0.7455 0.3858
C9A C 0.8807(2) 0.69673(14) 0.34531(10)
H6A H 0.8229 0.6548 0.3123
C10A C 1.0453(2) 0.70333(13) 0.34972(10)
C11A C 1.1217(2) 0.76575(13) 0.40013(10)
H7A H 1.2337 0.7714 0.4064
C12A C 1.0345(2) 0.81928(14) 0.44093(10)
H8A H 1.0890 0.8626 0.4737
Mn1B Mn 0.2500 0.41944(3) 1.0000
Mn1B_2 Mn 1.2500 0.41944(3) 0.0000
Mn1F Mn 0.7500 0.58056(3) 0.0000
Mn1F_2 Mn 0.7500 0.58056(3) 1.0000
O1B O 0.83539(15) 1.02418(9) 0.43439(7)
O1C O 0.66461(15) 1.02418(9) 0.56561(7)
O2F O 0.94662(15) 0.90140(9) 0.58604(7)
O2G O 0.55338(15) 0.90140(9) 0.41396(7)
loop_
_geom_bond_atom_site_label_1
_geom_bond_atom_site_label_2
_geom_bond_site_symmetry_1
_geom_bond_site_symmetry_2
Mn1 N1 1_555 1_555
N1 C8 1_555 1_555
O1 C1 1_555 1_555
O2 C1 1_555 1_555
C1 C2 1_555 1_555
C2 C3 1_555 1_555
C3 H1 1_555 1_555
C4 C3 1_555 1_555
C5 C4 1_555 1_555
H2 C5 1_555 1_555
C6 C5 1_555 1_555
H3 C6 1_555 1_555
C7 C2 1_555 1_555
H4 C7 1_555 1_555
C8 H5 1_555 1_555
C9 C8 1_555 1_555
H6 C9 1_555 1_555
C10 C4 1_555 1_555
C11 C10 1_555 1_555
H7 C11 1_555 1_555
C12 N1 1_555 1_555
H8 C12 1_555 1_555
N1A Mn1 1_555 1_555
O1A C1A 1_555 1_555
O2A C1A 1_555 1_555
C1A C2A 1_555 1_555
C2A C3A 1_555 1_555
C3A H1A 1_555 1_555
C4A C3A 1_555 1_555
C5A C4A 1_555 1_555
H2A C5A 1_555 1_555
C6A C5A 1_555 1_555
H3A C6A 1_555 1_555
C7A C2A 1_555 1_555
H4A C7A 1_555 1_555
C8A N1A 1_555 1_555
H5A C8A 1_555 1_555
C9A C8A 1_555 1_555
H6A C9A 1_555 1_555
C10A C4A 1_555 1_555
C11A C10A 1_555 1_555
H7A C11A 1_555 1_555
C12A N1A 1_555 1_555
H8A C12A 1_555 1_555
Mn1B O1 1_555 1_555
Mn1B_2 O1A 1_555 1_555
Mn1F O2A 1_555 1_555
Mn1F_2 O2 1_555 1_555
O1B Mn1 1_555 1_555
O1C Mn1 1_555 1_555
O2F Mn1 1_555 1_555
O2G Mn1 1_555 1_555
C6 C7 1_555 1_555
C9 C10 1_555 1_555
C11 C12 1_555 1_555
C6A C7A 1_555 1_555
C9A C10A 1_555 1_555
C11A C12A 1_555 1_555

#END
