
#######################################################################
#
#                 Cambridge Crystallographic Data Centre
#                                CCDC 
#
#######################################################################
#
# If this CIF has been generated from an entry in the Cambridge 
# Structural Database, then it will include bibliographic, chemical, 
# crystal, experimental, refinement or atomic coordinate data resulting 
# from the CCDC's data processing and validation procedures.
#
#######################################################################

data_PIHJOH03
_symmetry_cell_setting           monoclinic
_symmetry_space_group_name_H-M   'I 2/a'
_symmetry_Int_Tables_number      15
_space_group_name_Hall           '-I 2ya'
loop_
_symmetry_equiv_pos_site_id
_symmetry_equiv_pos_as_xyz
1 x,y,z
2 1/2-x,y,-z
3 1/2+x,1/2+y,1/2+z
4 -x,1/2+y,1/2-z
5 -x,-y,-z
6 1/2+x,-y,z
7 1/2-x,1/2-y,1/2-z
8 x,1/2-y,1/2+z
_cell_length_a                   8.4872(8)
_cell_length_b                   15.6050(15)
_cell_length_c                   18.0163(17)
_cell_angle_alpha                90
_cell_angle_beta                 97.4550(10)
_cell_angle_gamma                90
_cell_volume                     2365.96
loop_
_atom_site_label
_atom_site_type_symbol
_atom_site_fract_x
_atom_site_fract_y
_atom_site_fract_z
Mn1 Mn 0.7500 0.92416(2) 0.5000
N1 N 0.6236(2) 0.82035(11) 0.56373(9)
O1 O 0.33875(18) 0.51998(10) 0.93137(8)
O2 O 0.55295(16) 0.59258(10) 0.91272(7)
C1 C 0.4199(2) 0.56178(11) 0.89177(10)
C2 C 0.3507(2) 0.57935(12) 0.81150(11)
C3 C 0.4312(2) 0.63089(12) 0.76642(10)
H1 H 0.5299 0.6529 0.7857
C4 C 0.3691(2) 0.65063(14) 0.69337(11)
C5 C 0.2228(3) 0.6163(2) 0.66571(14)
H2 H 0.1783 0.6285 0.6170
C6 C 0.1431(4) 0.5644(2) 0.70945(17)
H3 H 0.0453 0.5415 0.6899
C7 C 0.2062(3) 0.5455(2) 0.78250(14)
H4 H 0.1511 0.5102 0.8117
C8 C 0.6971(3) 0.75916(16) 0.60661(13)
H5 H 0.8066 0.7540 0.6081
C9 C 0.6206(3) 0.70302(16) 0.64887(14)
H6 H 0.6785 0.6621 0.6784
C10 C 0.4566(2) 0.70767(14) 0.64727(10)
C11 C 0.3805(3) 0.76970(16) 0.60158(13)
H7 H 0.2705 0.7747 0.5972
C12 C 0.4663(3) 0.82441(16) 0.56226(13)
H8 H 0.4115 0.8666 0.5330
N1A N 0.8764(2) 0.82035(11) 0.43627(9)
O1A O 1.16125(18) 0.51998(10) 0.06863(8)
O2A O 0.94705(16) 0.59258(10) 0.08728(7)
C1A C 1.0801(2) 0.56178(11) 0.10823(10)
C2A C 1.1493(2) 0.57935(12) 0.18850(11)
C3A C 1.0688(2) 0.63089(12) 0.23358(10)
H1A H 0.9701 0.6529 0.2143
C4A C 1.1309(2) 0.65063(14) 0.30663(11)
C5A C 1.2772(3) 0.6163(2) 0.33429(14)
H2A H 1.3217 0.6285 0.3830
C6A C 1.3569(4) 0.5644(2) 0.29055(17)
H3A H 1.4547 0.5415 0.3101
C7A C 1.2938(3) 0.5455(2) 0.21750(14)
H4A H 1.3489 0.5102 0.1883
C8A C 0.8029(3) 0.75916(16) 0.39339(13)
H5A H 0.6934 0.7540 0.3919
C9A C 0.8794(3) 0.70302(16) 0.35113(14)
H6A H 0.8215 0.6621 0.3216
C10A C 1.0434(2) 0.70767(14) 0.35273(10)
C11A C 1.1195(3) 0.76970(16) 0.39842(13)
H7A H 1.2295 0.7747 0.4028
C12A C 1.0337(3) 0.82441(16) 0.43774(13)
H8A H 1.0885 0.8666 0.4670
Mn1B Mn 0.2500 0.42416(2) 1.0000
Mn1B_2 Mn 1.2500 0.42416(2) 0.0000
Mn1F Mn 0.7500 0.57584(2) 0.0000
Mn1F_2 Mn 0.7500 0.57584(2) 1.0000
O1B O 0.83875(18) 1.01998(10) 0.43137(8)
O1C O 0.66125(18) 1.01998(10) 0.56863(8)
O2F O 0.94705(16) 0.90742(10) 0.58728(7)
O2G O 0.55295(16) 0.90742(10) 0.41272(7)
loop_
_geom_bond_atom_site_label_1
_geom_bond_atom_site_label_2
_geom_bond_site_symmetry_1
_geom_bond_site_symmetry_2
Mn1 N1 1_555 1_555
N1 C8 1_555 1_555
O1 C1 1_555 1_555
O2 C1 1_555 1_555
C1 C2 1_555 1_555
C2 C3 1_555 1_555
C3 H1 1_555 1_555
C4 C3 1_555 1_555
C5 C4 1_555 1_555
H2 C5 1_555 1_555
C6 C5 1_555 1_555
H3 C6 1_555 1_555
C7 C2 1_555 1_555
H4 C7 1_555 1_555
C8 H5 1_555 1_555
C9 C8 1_555 1_555
H6 C9 1_555 1_555
C10 C4 1_555 1_555
C11 C10 1_555 1_555
H7 C11 1_555 1_555
C12 N1 1_555 1_555
H8 C12 1_555 1_555
N1A Mn1 1_555 1_555
O1A C1A 1_555 1_555
O2A C1A 1_555 1_555
C1A C2A 1_555 1_555
C2A C3A 1_555 1_555
C3A H1A 1_555 1_555
C4A C3A 1_555 1_555
C5A C4A 1_555 1_555
H2A C5A 1_555 1_555
C6A C5A 1_555 1_555
H3A C6A 1_555 1_555
C7A C2A 1_555 1_555
H4A C7A 1_555 1_555
C8A N1A 1_555 1_555
H5A C8A 1_555 1_555
C9A C8A 1_555 1_555
H6A C9A 1_555 1_555
C10A C4A 1_555 1_555
C11A C10A 1_555 1_555
H7A C11A 1_555 1_555
C12A N1A 1_555 1_555
H8A C12A 1_555 1_555
Mn1B O1 1_555 1_555
Mn1B_2 O1A 1_555 1_555
Mn1F O2A 1_555 1_555
Mn1F_2 O2 1_555 1_555
O1B Mn1 1_555 1_555
O1C Mn1 1_555 1_555
O2F Mn1 1_555 1_555
O2G Mn1 1_555 1_555
C6 C7 1_555 1_555
C9 C10 1_555 1_555
C11 C12 1_555 1_555
C6A C7A 1_555 1_555
C9A C10A 1_555 1_555
C11A C12A 1_555 1_555

#END
