
#######################################################################
#
#                 Cambridge Crystallographic Data Centre
#                                CCDC 
#
#######################################################################
#
# If this CIF has been generated from an entry in the Cambridge 
# Structural Database, then it will include bibliographic, chemical, 
# crystal, experimental, refinement or atomic coordinate data resulting 
# from the CCDC's data processing and validation procedures.
#
#######################################################################

data_PIQMUZ
_symmetry_cell_setting           orthorhombic
_symmetry_space_group_name_H-M   'A b a 2'
_symmetry_Int_Tables_number      41
_space_group_name_Hall           'A 2 -2ab'
loop_
_symmetry_equiv_pos_site_id
_symmetry_equiv_pos_as_xyz
1 x,y,z
2 -x,-y,z
3 1/2+x,1/2-y,z
4 1/2-x,1/2+y,z
5 x,1/2+y,1/2+z
6 -x,1/2-y,1/2+z
7 1/2+x,-y,1/2+z
8 1/2-x,y,1/2+z
_cell_length_a                   35.7507(7)
_cell_length_b                   16.3257(3)
_cell_length_c                   13.1559(3)
_cell_angle_alpha                90
_cell_angle_beta                 90
_cell_angle_gamma                90
_cell_volume                     7678.51
loop_
_atom_site_label
_atom_site_type_symbol
_atom_site_fract_x
_atom_site_fract_y
_atom_site_fract_z
O8 O -0.42516(19) 0.2840(5) 1.6157(5)
O9 O 0.0051(6) 0.3508(8) 0.6055(10)
Ce1 Ce 0.0000 0.0000 0.64079(8)
C1 C -0.25050(17) 0.3254(3) 0.8797(4)
C2 C -0.21008(15) 0.2296(3) 0.7953(4)
H1 H -0.2040 0.1995 0.7375
C3 C -0.34861(14) 0.4321(3) 1.1351(6)
C4 C -0.18715(13) 0.2240(3) 0.8827(4)
O1 O -0.38831(12) 0.7360(3) 0.2794(3)
H2 H -0.3972 0.7489 0.2242
C5 C -0.19808(14) 0.2661(3) 0.9687(4)
H3 H -0.1843 0.2603 1.0282
O2 O -0.46466(13) 0.5522(3) 1.4872(4)
C6 C -0.15190(13) 0.1750(3) 0.8784(5)
C7 C -0.33286(16) 0.4579(3) 0.6532(5)
H4 H -0.3564 0.4525 0.6237
C8 C -0.34155(16) 0.6545(3) 0.3545(4)
C9 C -0.14507(17) 0.1185(4) 0.8014(6)
H5 H -0.1632 0.1096 0.7518
C10 C -0.41907(16) 0.4764(4) 1.3912(6)
C11 C -0.08503(14) 0.0857(4) 0.8697(6)
C12 C -0.28911(16) 0.4204(3) 0.7831(5)
C13 C -0.31755(16) 0.5588(3) 0.5189(4)
O3 O -0.33729(14) 0.7077(3) 0.1862(4)
C14 C -0.24138(15) 0.2791(3) 0.7945(4)
H6 H -0.2564 0.2815 0.7369
C15 C -0.31405(15) 0.3344(3) 1.0298(4)
H7 H -0.3061 0.2809 1.0185
C16 C -0.30603(16) 0.6209(3) 0.3542(5)
H8 H -0.2901 0.6294 0.2993
C17 C -0.30342(15) 0.3959(3) 0.9629(4)
C18 C -0.39021(17) 0.4192(4) 1.3964(5)
H9 H -0.3864 0.3898 1.4561
C19 C -0.22927(14) 0.3169(3) 0.9682(4)
H10 H -0.2360 0.3452 1.0268
C20 C -0.27036(15) 0.5090(3) 0.6456(8)
H11 H -0.2518 0.5385 0.6124
C21 C -0.11178(17) 0.0754(4) 0.7974(7)
H12 H -0.1076 0.0388 0.7444
C22 C -0.35311(15) 0.5961(4) 0.5188(4)
H13 H -0.3691 0.5890 0.5738
C23 C -0.35477(17) 0.7010(3) 0.2653(4)
C24 C -0.29427(16) 0.5745(3) 0.4365(5)
H14 H -0.2701 0.5532 0.4366
C25 C -0.33648(14) 0.3519(3) 1.1136(5)
H15 H -0.3436 0.3094 1.1565
N1 N -0.28136(14) 0.3792(3) 0.8773(4)
C26 C -0.32494(15) 0.4157(3) 0.7419(5)
H16 H -0.3433 0.3846 0.7736
C27 C -0.36428(15) 0.6434(4) 0.4369(5)
H17 H -0.3877 0.6682 0.4379
C28 C -0.26160(15) 0.4661(3) 0.7336(5)
H18 H -0.2374 0.4679 0.7596
C29 C -0.37271(16) 0.4485(4) 1.2239(5)
C30 C -0.31535(16) 0.4766(3) 0.9817(5)
H19 H -0.3081 0.5186 0.9382
C31 C -0.12465(15) 0.1847(4) 0.9537(6)
H20 H -0.1285 0.2213 1.0069
C32 C -0.36723(18) 0.4060(4) 1.3133(5)
H21 H -0.3479 0.3680 1.3178
O4 O -0.04322(17) -0.0051(3) 0.7833(7)
C33 C -0.09171(16) 0.1392(4) 0.9486(6)
H22 H -0.0739 0.1451 0.9995
C34 C -0.30623(18) 0.5084(3) 0.6067(5)
C35 C -0.42438(17) 0.5204(4) 1.3027(6)
H23 H -0.4433 0.5594 1.2991
O5 O -0.02823(16) 0.0432(5) 0.9398(7)
C36 C -0.4013(2) 0.5063(3) 1.2176(7)
H24 H -0.4051 0.5354 1.1577
C37 C -0.05005(19) 0.0382(5) 0.8616(9)
C38 C -0.3382(2) 0.4939(3) 1.0659(5)
H25 H -0.3465 0.5472 1.0763
O6 O -0.00893(19) 0.1440(4) 0.6835(6)
O7 O -0.44347(15) 0.4402(3) 1.5556(5)
C39 C -0.4440(2) 0.4909(4) 1.4814(7)
C1A C 0.25050(17) -0.3254(3) 0.8797(4)
C2A C 0.21008(15) -0.2296(3) 0.7953(4)
H1A H 0.2040 -0.1995 0.7375
C3A C 0.34861(14) -0.4321(3) 1.1351(6)
C4A C 0.18715(13) -0.2240(3) 0.8827(4)
O1A O 0.38831(12) -0.7360(3) 0.2794(3)
H2A H 0.3972 -0.7489 0.2242
C5A C 0.19808(14) -0.2661(3) 0.9687(4)
H3A H 0.1843 -0.2603 1.0282
O2A O 0.46466(13) -0.5522(3) 1.4872(4)
C6A C 0.15190(13) -0.1750(3) 0.8784(5)
C7A C 0.33286(16) -0.4579(3) 0.6532(5)
H4A H 0.3564 -0.4525 0.6237
C8A C 0.34155(16) -0.6545(3) 0.3545(4)
C9A C 0.14507(17) -0.1185(4) 0.8014(6)
H5A H 0.1632 -0.1096 0.7518
C10A C 0.41907(16) -0.4764(4) 1.3912(6)
C11A C 0.08503(14) -0.0857(4) 0.8697(6)
C12A C 0.28911(16) -0.4204(3) 0.7831(5)
C13A C 0.31755(16) -0.5588(3) 0.5189(4)
O3A O 0.33729(14) -0.7077(3) 0.1862(4)
C14A C 0.24138(15) -0.2791(3) 0.7945(4)
H6A H 0.2564 -0.2815 0.7369
C15A C 0.31405(15) -0.3344(3) 1.0298(4)
H7A H 0.3061 -0.2809 1.0185
C16A C 0.30603(16) -0.6209(3) 0.3542(5)
H8A H 0.2901 -0.6294 0.2993
C17A C 0.30342(15) -0.3959(3) 0.9629(4)
C18A C 0.39021(17) -0.4192(4) 1.3964(5)
H9A H 0.3864 -0.3898 1.4561
C19A C 0.22927(14) -0.3169(3) 0.9682(4)
H10A H 0.2360 -0.3452 1.0268
C20A C 0.27036(15) -0.5090(3) 0.6456(8)
H11A H 0.2518 -0.5385 0.6124
C21A C 0.11178(17) -0.0754(4) 0.7974(7)
H12A H 0.1076 -0.0388 0.7444
C22A C 0.35311(15) -0.5961(4) 0.5188(4)
H13A H 0.3691 -0.5890 0.5738
C23A C 0.35477(17) -0.7010(3) 0.2653(4)
C24A C 0.29427(16) -0.5745(3) 0.4365(5)
H14A H 0.2701 -0.5532 0.4366
C25A C 0.33648(14) -0.3519(3) 1.1136(5)
H15A H 0.3436 -0.3094 1.1565
N1A N 0.28136(14) -0.3792(3) 0.8773(4)
C26A C 0.32494(15) -0.4157(3) 0.7419(5)
H16A H 0.3433 -0.3846 0.7736
C27A C 0.36428(15) -0.6434(4) 0.4369(5)
H17A H 0.3877 -0.6682 0.4379
C28A C 0.26160(15) -0.4661(3) 0.7336(5)
H18A H 0.2374 -0.4679 0.7596
C29A C 0.37271(16) -0.4485(4) 1.2239(5)
C30A C 0.31535(16) -0.4766(3) 0.9817(5)
H19A H 0.3081 -0.5186 0.9382
C31A C 0.12465(15) -0.1847(4) 0.9537(6)
H20A H 0.1285 -0.2213 1.0069
C32A C 0.36723(18) -0.4060(4) 1.3133(5)
H21A H 0.3479 -0.3680 1.3178
O4A O 0.04322(17) 0.0051(3) 0.7833(7)
C33A C 0.09171(16) -0.1392(4) 0.9486(6)
H22A H 0.0739 -0.1451 0.9995
C34A C 0.30623(18) -0.5084(3) 0.6067(5)
C35A C 0.42438(17) -0.5204(4) 1.3027(6)
H23A H 0.4433 -0.5594 1.2991
O5A O 0.02823(16) -0.0432(5) 0.9398(7)
C36A C 0.4013(2) -0.5063(3) 1.2176(7)
H24A H 0.4051 -0.5354 1.1577
C37A C 0.05005(19) -0.0382(5) 0.8616(9)
C38A C 0.3382(2) -0.4939(3) 1.0659(5)
H25A H 0.3465 -0.5472 1.0763
O6A O 0.00893(19) -0.1440(4) 0.6835(6)
O7A O 0.44347(15) -0.4402(3) 1.5556(5)
C39A C 0.4440(2) -0.4909(4) 1.4814(7)
Ce1B Ce -0.5000 0.5000 1.64079(8)
Ce1B_2 Ce 0.5000 -0.5000 1.64079(8)
O2B O 0.03534(13) -0.0522(3) 0.4872(4)
O2C O -0.03534(13) 0.0522(3) 0.4872(4)
O7B O 0.05653(15) 0.0598(3) 0.5556(5)
O7C O -0.05653(15) -0.0598(3) 0.5556(5)
loop_
_geom_bond_atom_site_label_1
_geom_bond_atom_site_label_2
_geom_bond_site_symmetry_1
_geom_bond_site_symmetry_2
Ce1 O4 1_555 1_555
C1 C14 1_555 1_555
C2 H1 1_555 1_555
C3 C25 1_555 1_555
C4 C2 1_555 1_555
O1 H2 1_555 1_555
C5 C4 1_555 1_555
H3 C5 1_555 1_555
O2 C39 1_555 1_555
C6 C4 1_555 1_555
C7 H4 1_555 1_555
C8 C16 1_555 1_555
C9 C6 1_555 1_555
H5 C9 1_555 1_555
C10 C18 1_555 1_555
C11 C21 1_555 1_555
C12 N1 1_555 1_555
C13 C22 1_555 1_555
O3 C23 1_555 1_555
C14 C2 1_555 1_555
H6 C14 1_555 1_555
C15 H7 1_555 1_555
C16 H8 1_555 1_555
C17 C15 1_555 1_555
C18 H9 1_555 1_555
C19 C1 1_555 1_555
H10 C19 1_555 1_555
C20 H11 1_555 1_555
C21 C9 1_555 1_555
H12 C21 1_555 1_555
C22 H13 1_555 1_555
C23 O1 1_555 1_555
C24 C13 1_555 1_555
H14 C24 1_555 1_555
C25 C15 1_555 1_555
H15 C25 1_555 1_555
N1 C1 1_555 1_555
C26 C7 1_555 1_555
H16 C26 1_555 1_555
C27 C8 1_555 1_555
H17 C27 1_555 1_555
C28 C12 1_555 1_555
H18 C28 1_555 1_555
C29 C3 1_555 1_555
C30 C17 1_555 1_555
H19 C30 1_555 1_555
C31 C6 1_555 1_555
H20 C31 1_555 1_555
C32 C18 1_555 1_555
H21 C32 1_555 1_555
O4 C37 1_555 1_555
C33 C11 1_555 1_555
H22 C33 1_555 1_555
C34 C7 1_555 1_555
C35 C10 1_555 1_555
H23 C35 1_555 1_555
O5 C37 1_555 1_555
C36 C29 1_555 1_555
H24 C36 1_555 1_555
C37 C11 1_555 1_555
C38 C3 1_555 1_555
H25 C38 1_555 1_555
O6 Ce1 1_555 1_555
O7 C39 1_555 1_555
C39 C10 1_555 1_555
C1A C14A 1_555 1_555
C2A H1A 1_555 1_555
C3A C25A 1_555 1_555
C4A C2A 1_555 1_555
O1A H2A 1_555 1_555
C5A C4A 1_555 1_555
H3A C5A 1_555 1_555
O2A C39A 1_555 1_555
C6A C4A 1_555 1_555
C7A H4A 1_555 1_555
C8A C16A 1_555 1_555
C9A C6A 1_555 1_555
H5A C9A 1_555 1_555
C10A C18A 1_555 1_555
C11A C21A 1_555 1_555
C12A N1A 1_555 1_555
C13A C22A 1_555 1_555
O3A C23A 1_555 1_555
C14A C2A 1_555 1_555
H6A C14A 1_555 1_555
C15A H7A 1_555 1_555
C16A H8A 1_555 1_555
C17A C15A 1_555 1_555
C18A H9A 1_555 1_555
C19A C1A 1_555 1_555
H10A C19A 1_555 1_555
C20A H11A 1_555 1_555
C21A C9A 1_555 1_555
H12A C21A 1_555 1_555
C22A H13A 1_555 1_555
C23A O1A 1_555 1_555
C24A C13A 1_555 1_555
H14A C24A 1_555 1_555
C25A C15A 1_555 1_555
H15A C25A 1_555 1_555
N1A C1A 1_555 1_555
C26A C7A 1_555 1_555
H16A C26A 1_555 1_555
C27A C8A 1_555 1_555
H17A C27A 1_555 1_555
C28A C12A 1_555 1_555
H18A C28A 1_555 1_555
C29A C3A 1_555 1_555
C30A C17A 1_555 1_555
H19A C30A 1_555 1_555
C31A C6A 1_555 1_555
H20A C31A 1_555 1_555
C32A C18A 1_555 1_555
H21A C32A 1_555 1_555
O4A Ce1 1_555 1_555
C33A C11A 1_555 1_555
H22A C33A 1_555 1_555
C34A C7A 1_555 1_555
C35A C10A 1_555 1_555
H23A C35A 1_555 1_555
O5A C37A 1_555 1_555
C36A C29A 1_555 1_555
H24A C36A 1_555 1_555
C37A C11A 1_555 1_555
C38A C3A 1_555 1_555
H25A C38A 1_555 1_555
O6A Ce1 1_555 1_555
O7A C39A 1_555 1_555
C39A C10A 1_555 1_555
Ce1B O2 1_555 1_555
Ce1B_2 O2A 1_555 1_555
O2B Ce1 1_555 1_555
O2C Ce1 1_555 1_555
O7B Ce1 1_555 1_555
O7C Ce1 1_555 1_555
C5 C19 1_555 1_555
C8 C23 1_555 1_555
C12 C26 1_555 1_555
C13 C34 1_555 1_555
C16 C24 1_555 1_555
C17 N1 1_555 1_555
C20 C28 1_555 1_555
C20 C34 1_555 1_555
C22 C27 1_555 1_555
C29 C32 1_555 1_555
C30 C38 1_555 1_555
C31 C33 1_555 1_555
C35 C36 1_555 1_555
O7 Ce1B 1_555 1_555
C5A C19A 1_555 1_555
C8A C23A 1_555 1_555
C12A C26A 1_555 1_555
C13A C34A 1_555 1_555
C16A C24A 1_555 1_555
C17A N1A 1_555 1_555
C20A C28A 1_555 1_555
C20A C34A 1_555 1_555
C22A C27A 1_555 1_555
C29A C32A 1_555 1_555
C30A C38A 1_555 1_555
C31A C33A 1_555 1_555
O4A C37A 1_555 1_555
C35A C36A 1_555 1_555
O7A Ce1B_2 1_555 1_555

#END
