
#######################################################################
#
#                 Cambridge Crystallographic Data Centre
#                                CCDC 
#
#######################################################################
#
# If this CIF has been generated from an entry in the Cambridge 
# Structural Database, then it will include bibliographic, chemical, 
# crystal, experimental, refinement or atomic coordinate data resulting 
# from the CCDC's data processing and validation procedures.
#
#######################################################################

data_PIVBEC
_symmetry_cell_setting           hexagonal
_symmetry_space_group_name_H-M   'P 63/m m c'
_symmetry_Int_Tables_number      194
_space_group_name_Hall           "-P 6c 2'c"
loop_
_symmetry_equiv_pos_site_id
_symmetry_equiv_pos_as_xyz
1 x,y,z
2 x-y,x,1/2+z
3 -y,x-y,z
4 -x+y,-x,z
5 y,-x+y,1/2+z
6 y,x,-z
7 x-y,-y,-z
8 -y,-x,1/2-z
9 -x,-x+y,-z
10 -x+y,y,1/2-z
11 x,x-y,1/2-z
12 -x,-y,1/2+z
13 -x,-y,-z
14 -x+y,-x,1/2-z
15 y,-x+y,-z
16 x-y,x,-z
17 -y,x-y,1/2-z
18 -y,-x,z
19 -x+y,y,z
20 y,x,1/2+z
21 x,x-y,z
22 x-y,-y,1/2+z
23 -x,-x+y,1/2+z
24 x,y,1/2-z
_cell_length_a                   18.3532(11)
_cell_length_b                   18.3532(11)
_cell_length_c                   40.667(3)
_cell_angle_alpha                90
_cell_angle_beta                 90
_cell_angle_gamma                120
_cell_volume                     11863.1
loop_
_atom_site_label
_atom_site_type_symbol
_atom_site_fract_x
_atom_site_fract_y
_atom_site_fract_z
Cu1 Cu 0.47568(3) 0.95136(3) 0.02559(2)
Cu2 Cu 0.88530(9) 0.94265(5) 0.2500
O1 O 0.5873(2) 1.0251(2) 0.04367(8)
O3 O 0.62914(18) 1.10936(19) -0.00058(8)
O4 O 0.8913(17) 1.000(2) 0.2112(4)
C1 C 0.6398(3) 1.0884(3) 0.02845(12)
C2 C 0.7223(3) 1.1447(3) 0.04314(12)
C3 C 0.7785(2) 1.2215(4) 0.02923(16)
H1 H 0.7639 1.2361 0.0094
C4 C 0.7454(3) 1.1243(3) 0.07198(11)
H2 H 0.7091 1.0729 0.0818
C5 C 0.8219(2) 1.1780(5) 0.08720(17)
C6 C 0.8479(3) 1.1522(6) 0.1184(2)
C7 C 0.8974(3) 1.1027(5) 0.17540(19)
C8 C 0.9244(3) 1.0757(5) 0.20480(19)
C11 C 0.8198(12) 1.0723(16) 0.1255(4)
H5 H 0.7831 1.0313 0.1109
C12 C 0.8424(12) 1.0476(14) 0.1533(4)
H6 H 0.8190 0.9903 0.1573
Cu1B Cu 1.04864(3) 1.52432(4) 0.02559(2)
Cu1L Cu 0.52432(3) 1.04864(3) -0.02559(2)
Cu1E Cu 0.95136(3) 1.47568(3) -0.02559(2)
Cu1M Cu 0.47568(4) 0.52432(3) 0.47441(2)
Cu1A Cu 0.52432(4) 0.47568(3) 0.52559(2)
Cu1P Cu 1.04864(3) 0.52432(4) 0.47441(2)
Cu1D Cu 0.95136(3) 0.47568(4) 0.52559(2)
Cu2C Cu 1.05735(10) 1.11470(9) 0.2500
Cu2B Cu 1.05735(5) 0.94265(10) 0.2500
O1Q O 0.9749(2) 1.4127(2) 0.04367(8)
O1J O 0.5873(2) 0.5622(3) 0.45633(8)
O1P O 0.9749(2) 0.5622(3) 0.45633(8)
O1R O 0.4378(3) 1.0251(2) 0.04367(8)
O1B O 0.9749(2) 1.5622(3) 0.04367(8)
O3Q O 0.89064(19) 1.37086(18) -0.00058(8)
O3J O 0.62914(18) 0.51978(26) 0.50058(8)
O3P O 0.89064(19) 0.51978(26) 0.50058(8)
O3L O 0.37086(18) 0.89064(19) 0.00058(8)
O3F O 0.51978(26) 0.89064(19) 0.00058(8)
O3E O 1.10936(19) 1.62914(18) 0.00058(8)
O3N O 1.10936(19) 1.48022(26) 0.00058(8)
O4Q O 1.000(2) 1.1087(17) 0.2112(4)
O4J O 0.8913(17) 0.8913(26) 0.2888(4)
O4P O 1.000(2) 0.8913(26) 0.2888(4)
O4T O 0.8913(17) 0.8913(26) 0.2112(4)
O4W O 0.8913(17) 1.000(2) 0.2888(4)
C1Q C 0.9116(3) 1.3602(3) 0.02845(12)
C1J C 0.6398(3) 0.5514(4) 0.47155(12)
C1P C 0.9116(3) 0.5514(4) 0.47155(12)
C2Q C 0.8553(3) 1.2777(3) 0.04314(12)
C2J C 0.7223(3) 0.5776(4) 0.45686(12)
C2P C 0.8553(3) 0.5776(4) 0.45686(12)
C3P C 0.7785(4) 0.5570(4) 0.47077(16)
H1P H 0.7639 0.5278 0.4906
C4Q C 0.8757(3) 1.2546(3) 0.07198(11)
C4J C 0.7454(3) 0.6211(4) 0.42802(11)
C4P C 0.8757(3) 0.6211(4) 0.42802(11)
H2Q H 0.9271 1.2909 0.0818
H2J H 0.7091 0.6362 0.4182
H2P H 0.9271 0.6362 0.4182
C5J C 0.8219(2) 0.6439(5) 0.41280(17)
C6J C 0.8479(3) 0.6957(7) 0.3816(2)
C7J C 0.8974(3) 0.7947(6) 0.32460(19)
C8J C 0.9244(3) 0.8487(6) 0.29520(19)
C11Q C 0.9277(16) 1.1802(12) 0.1255(4)
C11J C 0.8198(12) 0.7475(20) 0.3745(4)
C11P C 0.9277(16) 0.7475(20) 0.3745(4)
H5Q H 0.9687 1.2169 0.1109
H5J H 0.7831 0.7518 0.3891
H5P H 0.9687 0.7518 0.3891
C12Q C 0.9524(14) 1.1576(12) 0.1533(4)
C12J C 0.8424(12) 0.7948(18) 0.3467(4)
C12P C 0.9524(14) 0.7948(18) 0.3467(4)
H6Q H 1.0097 1.1810 0.1573
H6J H 0.8190 0.8287 0.3427
H6P H 1.0097 0.8287 0.3427
O2 O 0.5753(3) 0.4247(3) 0.56540(16)
O5? O 0.8649(9) 0.8463(16) 0.2785(5)
C9? C 0.9008(11) 0.6877(13) 0.3583(4)
H3? H 0.9188 0.6491 0.3617
C10? C 0.9264(11) 0.7403(13) 0.3294(4)
H4? H 0.9625 0.7371 0.3142
loop_
_geom_bond_atom_site_label_1
_geom_bond_atom_site_label_2
_geom_bond_site_symmetry_1
_geom_bond_site_symmetry_2
Cu1 O1 1_555 1_555
Cu2 O4 1_555 1_555
O1 C1 1_555 1_555
O3 C1 1_555 1_555
O4 C8 1_555 1_555
C1 C2 1_555 1_555
C2 C3 1_555 1_555
C3 H1 1_555 1_555
C4 C2 1_555 1_555
H2 C4 1_555 1_555
C5 C4 1_555 1_555
C6 C5 1_555 1_555
C7 C8 1_555 1_555
C8 O4Q 1_555 1_555
C11 C6 1_555 1_555
H5 C11 1_555 1_555
C12 C7 1_555 1_555
H6 C12 1_555 1_555
Cu1B O1Q 1_555 1_555
Cu1L O3 1_555 1_555
Cu1E O3Q 1_555 1_555
Cu1M O1J 1_555 1_555
Cu1A O3J 1_555 1_555
Cu1P O1P 1_555 1_555
Cu1D O3P 1_555 1_555
Cu2C O4Q 1_555 1_555
Cu2B O4P 1_555 1_555
O1Q C1Q 1_555 1_555
O1J C1J 1_555 1_555
O1P C1P 1_555 1_555
O1R Cu1 1_555 1_555
O1B Cu1B 1_555 1_555
O3Q C1Q 1_555 1_555
O3J C1J 1_555 1_555
O3P C1P 1_555 1_555
O3L Cu1 1_555 1_555
O3F Cu1 1_555 1_555
O3E Cu1B 1_555 1_555
O3N Cu1B 1_555 1_555
O4J Cu2 1_555 1_555
O4P C8J 1_555 1_555
O4T Cu2 1_555 1_555
O4W Cu2 1_555 1_555
C1Q C2Q 1_555 1_555
C1J C2J 1_555 1_555
C1P C2P 1_555 1_555
C2Q C3 1_555 1_555
C2J C3P 1_555 1_555
C2P C3P 1_555 1_555
C3P H1P 1_555 1_555
C4Q C5 1_555 1_555
C4J C2J 1_555 1_555
C4P C2P 1_555 1_555
H2Q C4Q 1_555 1_555
H2J C4J 1_555 1_555
H2P C4P 1_555 1_555
C5J C4J 1_555 1_555
C6J C5J 1_555 1_555
C7J C8J 1_555 1_555
C8J O4J 1_555 1_555
C11Q C6 1_555 1_555
C11J C6J 1_555 1_555
C11P C6J 1_555 1_555
H5Q C11Q 1_555 1_555
H5J C11J 1_555 1_555
H5P C11P 1_555 1_555
C12Q C7 1_555 1_555
C12J C7J 1_555 1_555
C12P C7J 1_555 1_555
H6Q C12Q 1_555 1_555
H6J C12J 1_555 1_555
H6P C12P 1_555 1_555
C11 C12 1_555 1_555
C2Q C4Q 1_555 1_555
C4P C5J 1_555 1_555
C11Q C12Q 1_555 1_555
C11J C12J 1_555 1_555
C11P C12P 1_555 1_555

#END
