
#######################################################################
#
#                 Cambridge Crystallographic Data Centre
#                                CCDC 
#
#######################################################################
#
# If this CIF has been generated from an entry in the Cambridge 
# Structural Database, then it will include bibliographic, chemical, 
# crystal, experimental, refinement or atomic coordinate data resulting 
# from the CCDC's data processing and validation procedures.
#
#######################################################################

data_PIZJEN
_symmetry_cell_setting           tetragonal
_symmetry_space_group_name_H-M   'P -4 2 c'
_symmetry_Int_Tables_number      112
_space_group_name_Hall           'P -4 2c'
loop_
_symmetry_equiv_pos_site_id
_symmetry_equiv_pos_as_xyz
1 x,y,z
2 -y,x,-z
3 -x,-y,z
4 y,-x,-z
5 -x,y,1/2-z
6 y,x,1/2+z
7 x,-y,1/2-z
8 -y,-x,1/2+z
_cell_length_a                   14.202(6)
_cell_length_b                   14.202(6)
_cell_length_c                   26.644(9)
_cell_angle_alpha                90
_cell_angle_beta                 90
_cell_angle_gamma                90
_cell_volume                     5374.01
loop_
_atom_site_label
_atom_site_type_symbol
_atom_site_fract_x
_atom_site_fract_y
_atom_site_fract_z
Cu1 Cu 0.000 0.000 0.5000
N1 N 0.003(4) 0.120(2) 0.4531(7)
C1 C -0.080(3) 0.141(2) 0.432(1)
C2 C -0.077(3) 0.205(3) 0.389(2)
C3 C 0.015(4) 0.255(3) 0.379(1)
C4 C 0.087(3) 0.239(3) 0.404(2)
C5 C 0.094(6) 0.175(6) 0.447(3)
Cu2 Cu 0.000 0.500 0.2500
N2 N 0.000 0.500 0.328(1)
N3 N 0.000 0.364(3) 0.2500
C6 C -0.026(3) 0.457(2) 0.408(1)
C7 C 0.023(2) 0.419(2) 0.3550(9)
C8 C 0.026(2) 0.332(2) 0.3412(8)
C9 C 0.022(3) 0.300(2) 0.292(1)
C10 C -0.021(3) 0.205(2) 0.278(1)
C7B C -0.023(2) 0.581(2) 0.3550(9)
C6B C 0.026(3) 0.543(2) 0.408(1)
C8B C -0.026(2) 0.668(2) 0.3412(8)
C3B C -0.015(4) 0.745(3) 0.379(1)
C2B C 0.077(3) 0.795(3) 0.389(2)
C1B C 0.080(3) 0.859(2) 0.432(1)
N1B N -0.003(4) 0.880(2) 0.4531(7)
C5B C -0.094(6) 0.825(6) 0.447(3)
C4B C -0.087(3) 0.761(3) 0.404(2)
C9B C -0.022(3) 0.700(2) 0.292(1)
N3B N 0.000 0.636(3) 0.2500
C9F C 0.022(3) 0.700(2) 0.208(1)
C8F C 0.026(2) 0.668(2) 0.1588(8)
C3F C 0.015(4) 0.745(3) 0.121(1)
C2F C -0.077(3) 0.795(3) 0.111(2)
C1F C -0.080(3) 0.859(2) 0.068(1)
N1F N 0.003(4) 0.880(2) 0.0469(7)
C5F C 0.094(6) 0.825(6) 0.053(3)
C4F C 0.087(3) 0.761(3) 0.096(2)
C7F C 0.023(2) 0.581(2) 0.1450(9)
N2F N 0.000 0.500 0.172(1)
C7D C -0.023(2) 0.419(2) 0.1450(9)
C6D C 0.026(3) 0.457(2) 0.092(1)
C6F C -0.026(3) 0.543(2) 0.092(1)
C8D C -0.026(2) 0.332(2) 0.1588(8)
C3D C -0.015(4) 0.255(3) 0.121(1)
C2D C 0.077(3) 0.205(3) 0.111(2)
C1D C 0.080(3) 0.141(2) 0.068(1)
N1D N -0.003(4) 0.120(2) 0.0469(7)
C5D C -0.094(6) 0.175(6) 0.053(3)
C4D C -0.087(3) 0.239(3) 0.096(2)
C9D C -0.022(3) 0.300(2) 0.208(1)
C10D C 0.021(3) 0.205(2) 0.222(1)
C10F C -0.021(3) 0.795(2) 0.222(1)
C10B C 0.021(3) 0.795(2) 0.278(1)
N1A N -0.120(2) 0.003(4) 0.5469(7)
N1B_2 N -0.003(4) -0.120(2) 0.4531(7)
N1C N 0.120(2) -0.003(4) 0.5469(7)
Cu1_2 Cu 0.000 1.000 0.5000
Cu1D Cu 0.000 1.000 0.0000
Cu1D_2 Cu 0.000 0.000 0.0000
loop_
_geom_bond_atom_site_label_1
_geom_bond_atom_site_label_2
_geom_bond_site_symmetry_1
_geom_bond_site_symmetry_2
Cu1 N1 1_555 1_555
N1 C1 1_555 1_555
C1 C2 1_555 1_555
C2 C3 1_555 1_555
C3 C4 1_555 1_555
C4 C5 1_555 1_555
C5 N1 1_555 1_555
Cu2 N2 1_555 1_555
N2 C7 1_555 1_555
N3 Cu2 1_555 1_555
C6 C7 1_555 1_555
C7 C8 1_555 1_555
C8 C3 1_555 1_555
C9 N3 1_555 1_555
C10 C9 1_555 1_555
C7B N2 1_555 1_555
C6B C6 1_555 1_555
C8B C7B 1_555 1_555
C3B C8B 1_555 1_555
C2B C3B 1_555 1_555
C1B C2B 1_555 1_555
N1B C1B 1_555 1_555
C5B N1B 1_555 1_555
C4B C3B 1_555 1_555
C9B C8B 1_555 1_555
N3B Cu2 1_555 1_555
C9F N3B 1_555 1_555
C8F C9F 1_555 1_555
C3F C8F 1_555 1_555
C2F C3F 1_555 1_555
C1F C2F 1_555 1_555
N1F C1F 1_555 1_555
C5F N1F 1_555 1_555
C4F C3F 1_555 1_555
C7F C8F 1_555 1_555
N2F Cu2 1_555 1_555
C7D N2F 1_555 1_555
C6D C7D 1_555 1_555
C6F C7F 1_555 1_555
C8D C7D 1_555 1_555
C3D C8D 1_555 1_555
C2D C3D 1_555 1_555
C1D C2D 1_555 1_555
N1D C1D 1_555 1_555
C5D N1D 1_555 1_555
C4D C3D 1_555 1_555
C9D N3 1_555 1_555
C10D C10 1_555 1_555
C10F C9F 1_555 1_555
C10B C9B 1_555 1_555
N1A Cu1 1_555 1_555
N1B_2 Cu1 1_555 1_555
N1C Cu1 1_555 1_555
Cu1_2 N1B 1_555 1_555
Cu1D N1F 1_555 1_555
Cu1D_2 N1D 1_555 1_555
C8 C9 1_555 1_555
C7B C6B 1_555 1_555
C5B C4B 1_555 1_555
C9B N3B 1_555 1_555
C5F C4F 1_555 1_555
C7F N2F 1_555 1_555
C6D C6F 1_555 1_555
C8D C9D 1_555 1_555
C5D C4D 1_555 1_555
C9D C10D 1_555 1_555
C10F C10B 1_555 1_555

#END
