
#######################################################################
#
#                 Cambridge Crystallographic Data Centre
#                                CCDC 
#
#######################################################################
#
# If this CIF has been generated from an entry in the Cambridge 
# Structural Database, then it will include bibliographic, chemical, 
# crystal, experimental, refinement or atomic coordinate data resulting 
# from the CCDC's data processing and validation procedures.
#
#######################################################################

data_POBVIN
_symmetry_cell_setting           tetragonal
_symmetry_space_group_name_H-M   'I 4/m c m'
_symmetry_Int_Tables_number      140
_space_group_name_Hall           '-I 4 2c'
loop_
_symmetry_equiv_pos_site_id
_symmetry_equiv_pos_as_xyz
1 x,y,z
2 -x,-y,z
3 -y,x,z
4 y,-x,z
5 -x,y,1/2-z
6 x,-y,1/2-z
7 y,x,1/2-z
8 -y,-x,1/2-z
9 1/2+x,1/2+y,1/2+z
10 1/2-x,1/2-y,1/2+z
11 1/2-y,1/2+x,1/2+z
12 1/2+y,1/2-x,1/2+z
13 1/2-x,1/2+y,-z
14 1/2+x,1/2-y,-z
15 1/2+y,1/2+x,-z
16 1/2-y,1/2-x,-z
17 -x,-y,-z
18 x,y,-z
19 y,-x,-z
20 -y,x,-z
21 x,-y,1/2+z
22 -x,y,1/2+z
23 -y,-x,1/2+z
24 y,x,1/2+z
25 1/2-x,1/2-y,1/2-z
26 1/2+x,1/2+y,1/2-z
27 1/2+y,1/2-x,1/2-z
28 1/2-y,1/2+x,1/2-z
29 1/2+x,1/2-y,z
30 1/2-x,1/2+y,z
31 1/2-y,1/2-x,z
32 1/2+y,1/2+x,z
_cell_length_a                   30.4589(8)
_cell_length_b                   30.4589(8)
_cell_length_c                   44.287(4)
_cell_angle_alpha                90
_cell_angle_beta                 90
_cell_angle_gamma                90
_cell_volume                     41087
loop_
_atom_site_label
_atom_site_type_symbol
_atom_site_fract_x
_atom_site_fract_y
_atom_site_fract_z
Zn1 Zn 0.02166(6) 0.24479(6) 0.13005(5)
Zn2 Zn 0.01255(7) 0.15081(6) 0.17314(5)
Mn1 Mn -0.23231(11) 0.26769(11) 0.0000
Cl1 Cl -0.2899(6) 0.2101(6) 0.0000
Cl2 Cl -0.1797(4) 0.3203(4) 0.0000
N1 N -0.1880(4) 0.2173(4) 0.0000
N2 N -0.2344(2) 0.2656(2) 0.0439(4)
C1 C -0.2196(4) 0.2500(4) 0.0960(3)
H1 H -0.2070 0.2366 0.1128
C2 C -0.2105(5) 0.2421(4) 0.0676(3)
C3 C -0.1757(5) 0.2088(5) 0.0516(6)
C4 C -0.1673(5) 0.1954(5) 0.0196(4)
C5 C -0.1375(4) 0.1642(4) 0.0152(2)
H2 H -0.1215 0.1474 0.0289
O1 O -0.2060(4) 0.0664(3) 0.1160(2)
O2 O -0.1535(4) 0.0645(4) 0.1489(3)
O3 O -0.0313(4) 0.1671(5) 0.1440(3)
O4 O -0.0265(4) 0.2226(3) 0.1123(2)
C6 C -0.0485(4) 0.1932(4) 0.1206(5)
C7 C -0.0889(4) 0.1727(4) 0.1117(3)
C8 C -0.1110(4) 0.1375(4) 0.1233(3)
H3 H -0.0976 0.1221 0.1389
C9 C -0.1505(4) 0.1233(4) 0.1139(3)
C10 C -0.1731(7) 0.0882(6) 0.1266(5)
C11 C -0.1742(4) 0.1467(4) 0.0921(3)
H4 H -0.2028 0.1387 0.0873
C12 C -0.1544(5) 0.1820(4) 0.0779(3)
C13 C -0.1136(4) 0.1965(4) 0.0897(3)
H5 H -0.1023 0.2230 0.0827
Mn2 Mn 0.0000 0.5000 0.0000
Cl3 Cl -0.0531(5) 0.4469(5) 0.0000
N3 N 0.0467(4) 0.4533(4) 0.0000
N4 N 0.0000 0.5000 0.0327(8)
C14 C 0.0983(3) 0.4017(3) 0.0143(3)
H6 H 0.1157 0.3843 0.0268
C15 C 0.0653(3) 0.4347(3) 0.0242(5)
C16 C 0.0544(5) 0.4456(5) 0.0551(5)
C17 C 0.0212(7) 0.4788(7) 0.0616(7)
C18 C 0.0148(4) 0.4852(4) 0.0936(6)
H7 H 0.0286 0.4714 0.1098
O5 O 0.0328(3) 0.2982(3) 0.1106(2)
O6 O 0.0937(4) 0.2923(4) 0.1409(3)
C19 C 0.0702(6) 0.3142(6) 0.1212(4)
C20 C 0.0894(5) 0.3583(5) 0.1128(3)
C21 C 0.1246(5) 0.3754(5) 0.1251(5)
H8 H 0.1371 0.3629 0.1421
C22 C 0.0661(5) 0.3804(4) 0.0921(3)
H9 H 0.0394 0.3689 0.0857
C23 C 0.0805(4) 0.4195(4) 0.0801(4)
Mn3 Mn 0.0000 0.5000 0.2500
Cl4 Cl 0.0000 0.5000 0.1985(6)
N5 N 0.0473(5) 0.4527(5) 0.2509(4)
C24 C 0.0000 0.3872(6) 0.2500
C25 C 0.0431(5) 0.4103(4) 0.2495(4)
C26 C 0.0823(3) 0.3875(3) 0.2520(3)
H10 H 0.0862 0.3572 0.2533
C27 C 0.0043(4) 0.2665(5) 0.2230(4)
C28 C 0.0000 0.2452(7) 0.2500
H11 H 0.0000 0.2147 0.2500
C29 C 0.0026(5) 0.3128(4) 0.2260(3)
H12 H 0.0034 0.3286 0.2080
C30 C 0.0000 0.3358(5) 0.2500
O7 O 0.0052(3) 0.2669(3) 0.1673(3)
O8 O 0.0138(5) 0.1968(5) 0.1972(2)
C31 C 0.0124(6) 0.2420(7) 0.1898(10)
O9 O 0.0003(8) 0.1053(5) 0.1994(3)
N2N N -0.2344(2) 0.2656(2) -0.0439(4)
C1Q C -0.2196(4) 0.2500(4) -0.0960(3)
H1Q H -0.2070 0.2366 -0.1128
C2Q C -0.2105(5) 0.2421(4) -0.0676(3)
C3Q C -0.1757(5) 0.2088(5) -0.0516(6)
C4Q C -0.1673(5) 0.1954(5) -0.0196(4)
C5Q C -0.1375(4) 0.1642(4) -0.0152(2)
H2Q H -0.1215 0.1474 -0.0289
O1Q O -0.2060(4) 0.0664(3) -0.1160(2)
O2Q O -0.1535(4) 0.0645(4) -0.1489(3)
O3Q O -0.0313(4) 0.1671(5) -0.1440(3)
O4Q O -0.0265(4) 0.2226(3) -0.1123(2)
C6Q C -0.0485(4) 0.1932(4) -0.1206(5)
C7Q C -0.0889(4) 0.1727(4) -0.1117(3)
C8Q C -0.1110(4) 0.1375(4) -0.1233(3)
H3Q H -0.0976 0.1221 -0.1389
C9Q C -0.1505(4) 0.1233(4) -0.1139(3)
C10Q C -0.1731(7) 0.0882(6) -0.1266(5)
C11Q C -0.1742(4) 0.1467(4) -0.0921(3)
H4Q H -0.2028 0.1387 -0.0873
C12Q C -0.1544(5) 0.1820(4) -0.0779(3)
C13Q C -0.1136(4) 0.1965(4) -0.0897(3)
H5Q H -0.1023 0.2230 -0.0827
N1N N -0.2827(4) 0.3120(4) 0.0000
C1EA C -0.2500(4) 0.2804(4) 0.0960(3)
H1EA H -0.2634 0.2930 0.1128
C2EA C -0.2579(4) 0.2895(5) 0.0676(3)
C3EA C -0.2912(5) 0.3243(5) 0.0516(6)
C4EA C -0.3046(5) 0.3327(5) 0.0196(4)
C5EA C -0.3358(4) 0.3625(4) 0.0152(2)
H2EA H -0.3526 0.3785 0.0289
O1EA O -0.4336(3) 0.2940(4) 0.1160(2)
O2EA O -0.4355(4) 0.3465(4) 0.1489(3)
O3EA O -0.3329(5) 0.4687(4) 0.1440(3)
O4EA O -0.2774(3) 0.4735(4) 0.1123(2)
C6EA C -0.3068(4) 0.4515(4) 0.1206(5)
C7EA C -0.3273(4) 0.4111(4) 0.1117(3)
C8EA C -0.3625(4) 0.3890(4) 0.1233(3)
H3EA H -0.3779 0.4024 0.1389
C9EA C -0.3767(4) 0.3495(4) 0.1139(3)
C10EA C -0.4118(6) 0.3269(7) 0.1266(5)
C11EA C -0.3533(4) 0.3258(4) 0.0921(3)
H4EA H -0.3613 0.2972 0.0873
C12EA C -0.3180(4) 0.3456(5) 0.0779(3)
C13EA C -0.3035(4) 0.3864(4) 0.0897(3)
H5EA H -0.2770 0.3977 0.0827
C1N C -0.2500(4) 0.2804(4) -0.0960(3)
H1N H -0.2634 0.2930 -0.1128
C2N C -0.2579(4) 0.2895(5) -0.0676(3)
C3N C -0.2912(5) 0.3243(5) -0.0516(6)
C4N C -0.3046(5) 0.3327(5) -0.0196(4)
C5N C -0.3358(4) 0.3625(4) -0.0152(2)
H2N H -0.3526 0.3785 -0.0289
O1N O -0.4336(3) 0.2940(4) -0.1160(2)
O2N O -0.4355(4) 0.3465(4) -0.1489(3)
O3N O -0.3329(5) 0.4687(4) -0.1440(3)
O4N O -0.2774(3) 0.4735(4) -0.1123(2)
C6N C -0.3068(4) 0.4515(4) -0.1206(5)
C7N C -0.3273(4) 0.4111(4) -0.1117(3)
C8N C -0.3625(4) 0.3890(4) -0.1233(3)
H3N H -0.3779 0.4024 -0.1389
C9N C -0.3767(4) 0.3495(4) -0.1139(3)
C10N C -0.4118(6) 0.3269(7) -0.1266(5)
C11N C -0.3533(4) 0.3258(4) -0.0921(3)
H4N H -0.3613 0.2972 -0.0873
C12N C -0.3180(4) 0.3456(5) -0.0779(3)
C13N C -0.3035(4) 0.3864(4) -0.0897(3)
H5N H -0.2770 0.3977 -0.0827
N3A N -0.0467(4) 0.5467(4) 0.0000
C14A C -0.0983(3) 0.5983(3) 0.0143(3)
H6A H -0.1157 0.6157 0.0268
C15A C -0.0653(3) 0.5653(3) 0.0242(5)
C16A C -0.0544(5) 0.5544(5) 0.0551(5)
C17A C -0.0212(7) 0.5212(7) 0.0616(7)
C18A C -0.0148(4) 0.5148(4) 0.0936(6)
H7A H -0.0286 0.5286 0.1098
O5A O -0.0328(3) 0.7018(3) 0.1106(2)
O6A O -0.0937(4) 0.7077(4) 0.1409(3)
C19A C -0.0702(6) 0.6858(6) 0.1212(4)
C20A C -0.0894(5) 0.6417(5) 0.1128(3)
C21A C -0.1246(5) 0.6246(5) 0.1251(5)
H8A H -0.1371 0.6371 0.1421
C22A C -0.0661(5) 0.6196(4) 0.0921(3)
H9A H -0.0394 0.6311 0.0857
C23A C -0.0805(4) 0.5805(4) 0.0801(4)
N4N N 0.0000 0.5000 -0.0327(8)
C14N C -0.0983(3) 0.5983(3) -0.0143(3)
H6N H -0.1157 0.6157 -0.0268
C15N C -0.0653(3) 0.5653(3) -0.0242(5)
C16N C -0.0544(5) 0.5544(5) -0.0551(5)
C17N C -0.0212(7) 0.5212(7) -0.0616(7)
C18N C -0.0148(4) 0.5148(4) -0.0936(6)
H7N H -0.0286 0.5286 -0.1098
O5N O -0.2018(3) 0.5328(3) -0.1106(2)
O6N O -0.2077(4) 0.5937(4) -0.1409(3)
C19N C -0.1858(6) 0.5702(6) -0.1212(4)
C20N C -0.1417(5) 0.5894(5) -0.1128(3)
C21N C -0.1246(5) 0.6246(5) -0.1251(5)
H8N H -0.1371 0.6371 -0.1421
C22N C -0.1196(4) 0.5661(5) -0.0921(3)
H9N H -0.1311 0.5394 -0.0857
C23N C -0.0805(4) 0.5805(4) -0.0801(4)
C14O C 0.0983(3) 0.4017(3) -0.0143(3)
H6O H 0.1157 0.3843 -0.0268
C15O C 0.0653(3) 0.4347(3) -0.0242(5)
C16O C 0.0544(5) 0.4456(5) -0.0551(5)
C17O C 0.0212(7) 0.4788(7) -0.0616(7)
C18O C 0.0148(4) 0.4852(4) -0.0936(6)
H7O H 0.0286 0.4714 -0.1098
O5O O 0.2018(3) 0.4672(3) -0.1106(2)
O6O O 0.2077(4) 0.4063(4) -0.1409(3)
C19O C 0.1858(6) 0.4298(6) -0.1212(4)
C20O C 0.1417(5) 0.4106(5) -0.1128(3)
C21O C 0.1246(5) 0.3754(5) -0.1251(5)
H8O H 0.1371 0.3629 -0.1421
C22O C 0.1196(4) 0.4339(5) -0.0921(3)
H9O H 0.1311 0.4606 -0.0857
C23O C 0.0805(4) 0.4195(4) -0.0801(4)
O5P O -0.0328(3) 0.7018(3) -0.1106(2)
O6P O -0.0937(4) 0.7077(4) -0.1409(3)
C19P C -0.0702(6) 0.6858(6) -0.1212(4)
C20P C -0.0894(5) 0.6417(5) -0.1128(3)
C22P C -0.0661(5) 0.6196(4) -0.0921(3)
H9P H -0.0394 0.6311 -0.0857
O5Q O 0.0328(3) 0.2982(3) -0.1106(2)
O6Q O 0.0937(4) 0.2923(4) -0.1409(3)
C19Q C 0.0702(6) 0.3142(6) -0.1212(4)
C20Q C 0.0894(5) 0.3583(5) -0.1128(3)
C22Q C 0.0661(5) 0.3804(4) -0.0921(3)
H9Q H 0.0394 0.3689 -0.0857
O5DA O 0.2018(3) 0.4672(3) 0.1106(2)
O6DA O 0.2077(4) 0.4063(4) 0.1409(3)
C19DA C 0.1858(6) 0.4298(6) 0.1212(4)
C20DA C 0.1417(5) 0.4106(5) 0.1128(3)
C22DA C 0.1196(4) 0.4339(5) 0.0921(3)
H9DA H 0.1311 0.4606 0.0857
O5EA O -0.2018(3) 0.5328(3) 0.1106(2)
O6EA O -0.2077(4) 0.5937(4) 0.1409(3)
C19EA C -0.1858(6) 0.5702(6) 0.1212(4)
C20EA C -0.1417(5) 0.5894(5) 0.1128(3)
C22EA C -0.1196(4) 0.5661(5) 0.0921(3)
H9EA H -0.1311 0.5394 0.0857
N5D N -0.0473(5) 0.4527(5) 0.2491(4)
C25D C -0.0431(5) 0.4103(4) 0.2505(4)
C26D C -0.0823(3) 0.3875(3) 0.2480(3)
H10D H -0.0862 0.3572 0.2467
C27D C -0.0043(4) 0.2665(5) 0.2770(4)
C29D C -0.0026(5) 0.3128(4) 0.2740(3)
H12D H -0.0034 0.3286 0.2920
O7D O -0.0052(3) 0.2669(3) 0.3327(3)
O8D O -0.0138(5) 0.1968(5) 0.3028(2)
C31D C -0.0124(6) 0.2420(7) 0.3102(10)
C24Z C -0.1128(6) 0.5000 0.2500
C25Z C -0.0897(4) 0.4569(5) 0.2505(4)
C26Z C -0.1125(3) 0.4177(3) 0.2480(3)
H10Z H -0.1428 0.4138 0.2467
C27Z C -0.2335(5) 0.4957(4) 0.2770(4)
C28Z C -0.2548(7) 0.5000 0.2500
H11Z H -0.2853 0.5000 0.2500
C29Z C -0.1872(4) 0.4974(5) 0.2740(3)
H12Z H -0.1714 0.4966 0.2920
C30Z C -0.1642(5) 0.5000 0.2500
O7Z O -0.2331(3) 0.4948(3) 0.3327(3)
O8Z O -0.3032(5) 0.4862(5) 0.3028(2)
C31Z C -0.2580(7) 0.4876(6) 0.3102(10)
C24AA C 0.1128(6) 0.5000 0.2500
C25DA C 0.0897(4) 0.4569(5) 0.2495(4)
C26DA C 0.1125(3) 0.4177(3) 0.2520(3)
H10DA H 0.1428 0.4138 0.2533
C27DA C 0.2335(5) 0.4957(4) 0.2230(4)
C28AA C 0.2548(7) 0.5000 0.2500
H11AA H 0.2853 0.5000 0.2500
C29DA C 0.1872(4) 0.4974(5) 0.2260(3)
H12DA H 0.1714 0.4966 0.2080
C30AA C 0.1642(5) 0.5000 0.2500
O7DA O 0.2331(3) 0.4948(3) 0.1673(3)
O8DA O 0.3032(5) 0.4862(5) 0.1972(2)
C31DA C 0.2580(7) 0.4876(6) 0.1898(10)
N5E N 0.0473(5) 0.5473(5) 0.2491(4)
C25AA C 0.0897(4) 0.5431(5) 0.2505(4)
C26AA C 0.1125(3) 0.5823(3) 0.2480(3)
H10AA H 0.1428 0.5862 0.2467
C27AA C 0.2335(5) 0.5043(4) 0.2770(4)
C29AA C 0.1872(4) 0.5026(5) 0.2740(3)
H12AA H 0.1714 0.5034 0.2920
O7AA O 0.2331(3) 0.5052(3) 0.3327(3)
O8AA O 0.3032(5) 0.5138(5) 0.3028(2)
C31AA C 0.2580(7) 0.5124(6) 0.3102(10)
N5A N -0.0473(5) 0.5473(5) 0.2509(4)
C25EA C -0.0897(4) 0.5431(5) 0.2495(4)
C26EA C -0.1125(3) 0.5823(3) 0.2520(3)
H10EA H -0.1428 0.5862 0.2533
C27EA C -0.2335(5) 0.5043(4) 0.2230(4)
C29EA C -0.1872(4) 0.5026(5) 0.2260(3)
H12EA H -0.1714 0.5034 0.2080
O7EA O -0.2331(3) 0.5052(3) 0.1673(3)
O8EA O -0.3032(5) 0.5138(5) 0.1972(2)
C31EA C -0.2580(7) 0.5124(6) 0.1898(10)
C24A C 0.0000 0.6128(6) 0.2500
C25A C -0.0431(5) 0.5897(4) 0.2495(4)
C26A C -0.0823(3) 0.6125(3) 0.2520(3)
H10A H -0.0862 0.6428 0.2533
C27A C -0.0043(4) 0.7335(5) 0.2230(4)
C28A C 0.0000 0.7548(7) 0.2500
H11A H 0.0000 0.7853 0.2500
C29A C -0.0026(5) 0.6872(4) 0.2260(3)
H12A H -0.0034 0.6714 0.2080
C30A C 0.0000 0.6642(5) 0.2500
O7A O -0.0052(3) 0.7331(3) 0.1673(3)
O8A O -0.0138(5) 0.8032(5) 0.1972(2)
C31A C -0.0124(6) 0.7580(7) 0.1898(10)
C25E C 0.0431(5) 0.5897(4) 0.2505(4)
C26E C 0.0823(3) 0.6125(3) 0.2480(3)
H10E H 0.0862 0.6428 0.2467
C27E C 0.0043(4) 0.7335(5) 0.2770(4)
C29E C 0.0026(5) 0.6872(4) 0.2740(3)
H12E H 0.0034 0.6714 0.2920
O7E O 0.0052(3) 0.7331(3) 0.3327(3)
O8E O 0.0138(5) 0.8032(5) 0.3028(2)
C31E C 0.0124(6) 0.7580(7) 0.3102(10)
Zn1A Zn -0.02166(6) 0.75521(6) 0.13005(5)
Zn2A Zn -0.01255(7) 0.84919(6) 0.17314(5)
Mn1A Mn 0.23231(11) 0.73231(11) 0.0000
Cl1A Cl 0.2899(6) 0.7899(6) 0.0000
Cl2A Cl 0.1797(4) 0.6797(4) 0.0000
N1A N 0.1880(4) 0.7827(4) 0.0000
N2A N 0.2344(2) 0.7344(2) 0.0439(4)
C1A C 0.2196(4) 0.7500(4) 0.0960(3)
H1A H 0.2070 0.7634 0.1128
C2A C 0.2105(5) 0.7579(4) 0.0676(3)
C3A C 0.1757(5) 0.7912(5) 0.0516(6)
C4A C 0.1673(5) 0.8046(5) 0.0196(4)
C5A C 0.1375(4) 0.8358(4) 0.0152(2)
H2A H 0.1215 0.8526 0.0289
O1A O 0.2060(4) 0.9336(3) 0.1160(2)
O2A O 0.1535(4) 0.9355(4) 0.1489(3)
O3A O 0.0313(4) 0.8329(5) 0.1440(3)
O4A O 0.0265(4) 0.7774(3) 0.1123(2)
C6A C 0.0485(4) 0.8068(4) 0.1206(5)
C7A C 0.0889(4) 0.8273(4) 0.1117(3)
C8A C 0.1110(4) 0.8625(4) 0.1233(3)
H3A H 0.0976 0.8779 0.1389
C9A C 0.1505(4) 0.8767(4) 0.1139(3)
C10A C 0.1731(7) 0.9118(6) 0.1266(5)
C11A C 0.1742(4) 0.8533(4) 0.0921(3)
H4A H 0.2028 0.8613 0.0873
C12A C 0.1544(5) 0.8180(4) 0.0779(3)
C13A C 0.1136(4) 0.8035(4) 0.0897(3)
H5A H 0.1023 0.7770 0.0827
Cl3A Cl 0.0531(5) 0.5531(5) 0.0000
O9A O -0.0003(8) 0.8947(5) 0.1994(3)
N2O N 0.2344(2) 0.7344(2) -0.0439(4)
C1P C 0.2196(4) 0.7500(4) -0.0960(3)
H1P H 0.2070 0.7634 -0.1128
C2P C 0.2105(5) 0.7579(4) -0.0676(3)
C3P C 0.1757(5) 0.7912(5) -0.0516(6)
C4P C 0.1673(5) 0.8046(5) -0.0196(4)
C5P C 0.1375(4) 0.8358(4) -0.0152(2)
H2P H 0.1215 0.8526 -0.0289
O1P O 0.2060(4) 0.9336(3) -0.1160(2)
O2P O 0.1535(4) 0.9355(4) -0.1489(3)
O3P O 0.0313(4) 0.8329(5) -0.1440(3)
O4P O 0.0265(4) 0.7774(3) -0.1123(2)
C6P C 0.0485(4) 0.8068(4) -0.1206(5)
C7P C 0.0889(4) 0.8273(4) -0.1117(3)
C8P C 0.1110(4) 0.8625(4) -0.1233(3)
H3P H 0.0976 0.8779 -0.1389
C9P C 0.1505(4) 0.8767(4) -0.1139(3)
C10P C 0.1731(7) 0.9118(6) -0.1266(5)
C11P C 0.1742(4) 0.8533(4) -0.0921(3)
H4P H 0.2028 0.8613 -0.0873
C12P C 0.1544(5) 0.8180(4) -0.0779(3)
C13P C 0.1136(4) 0.8035(4) -0.0897(3)
H5P H 0.1023 0.7770 -0.0827
N1O N 0.2827(4) 0.6880(4) 0.0000
C1DA C 0.2500(4) 0.7196(4) 0.0960(3)
H1DA H 0.2634 0.7070 0.1128
C2DA C 0.2579(4) 0.7105(5) 0.0676(3)
C3DA C 0.2912(5) 0.6757(5) 0.0516(6)
C4DA C 0.3046(5) 0.6673(5) 0.0196(4)
C5DA C 0.3358(4) 0.6375(4) 0.0152(2)
H2DA H 0.3526 0.6215 0.0289
O1DA O 0.4336(3) 0.7060(4) 0.1160(2)
O2DA O 0.4355(4) 0.6535(4) 0.1489(3)
O3DA O 0.3329(5) 0.5313(4) 0.1440(3)
O4DA O 0.2774(3) 0.5265(4) 0.1123(2)
C6DA C 0.3068(4) 0.5485(4) 0.1206(5)
C7DA C 0.3273(4) 0.5889(4) 0.1117(3)
C8DA C 0.3625(4) 0.6110(4) 0.1233(3)
H3DA H 0.3779 0.5976 0.1389
C9DA C 0.3767(4) 0.6505(4) 0.1139(3)
C10DA C 0.4118(6) 0.6731(7) 0.1266(5)
C11DA C 0.3533(4) 0.6742(4) 0.0921(3)
H4DA H 0.3613 0.7028 0.0873
C12DA C 0.3180(4) 0.6544(5) 0.0779(3)
C13DA C 0.3035(4) 0.6136(4) 0.0897(3)
H5DA H 0.2770 0.6023 0.0827
C1O C 0.2500(4) 0.7196(4) -0.0960(3)
H1O H 0.2634 0.7070 -0.1128
C2O C 0.2579(4) 0.7105(5) -0.0676(3)
C3O C 0.2912(5) 0.6757(5) -0.0516(6)
C4O C 0.3046(5) 0.6673(5) -0.0196(4)
C5O C 0.3358(4) 0.6375(4) -0.0152(2)
H2O H 0.3526 0.6215 -0.0289
O1O O 0.4336(3) 0.7060(4) -0.1160(2)
O2O O 0.4355(4) 0.6535(4) -0.1489(3)
O3O O 0.3329(5) 0.5313(4) -0.1440(3)
O4O O 0.2774(3) 0.5265(4) -0.1123(2)
C6O C 0.3068(4) 0.5485(4) -0.1206(5)
C7O C 0.3273(4) 0.5889(4) -0.1117(3)
C8O C 0.3625(4) 0.6110(4) -0.1233(3)
H3O H 0.3779 0.5976 -0.1389
C9O C 0.3767(4) 0.6505(4) -0.1139(3)
C10O C 0.4118(6) 0.6731(7) -0.1266(5)
C11O C 0.3533(4) 0.6742(4) -0.0921(3)
H4O H 0.3613 0.7028 -0.0873
C12O C 0.3180(4) 0.6544(5) -0.0779(3)
C13O C 0.3035(4) 0.6136(4) -0.0897(3)
H5O H 0.2770 0.6023 -0.0827
Zn1B Zn -0.24479(6) 0.02166(6) 0.13005(5)
Zn2B Zn -0.15081(6) 0.01255(7) 0.17314(5)
O9B O -0.1053(5) 0.0003(8) 0.1994(3)
Zn1P Zn -0.02166(6) 0.75521(6) -0.13005(5)
Zn2P Zn -0.01255(7) 0.84919(6) -0.17314(5)
O9P O -0.0003(8) 0.8947(5) -0.1994(3)
Zn1Q Zn 0.02166(6) 0.24479(6) -0.13005(5)
Zn2Q Zn 0.01255(7) 0.15081(6) -0.17314(5)
O9Q O 0.0003(8) 0.1053(5) -0.1994(3)
Zn1S Zn -0.24479(6) 0.02166(6) -0.13005(5)
Zn2S Zn -0.15081(6) 0.01255(7) -0.17314(5)
O9S O -0.1053(5) 0.0003(8) -0.1994(3)
Zn2BA Zn -0.48745(7) 0.34919(6) 0.17314(5)
O9BA O -0.4997(8) 0.3947(5) 0.1994(3)
Zn2EA Zn -0.34919(6) 0.51255(7) 0.17314(5)
O9EA O -0.3947(5) 0.5003(8) 0.1994(3)
Zn1BA Zn -0.47834(6) 0.25521(6) 0.13005(5)
Cl4D Cl 0.0000 0.5000 0.3015(6)
Zn1EA Zn -0.25521(6) 0.52166(6) 0.13005(5)
Zn1C Zn 0.24479(6) 0.97834(6) 0.13005(5)
Zn1D Zn -0.02166(6) 0.24479(6) 0.36995(5)
Zn1E Zn 0.02166(6) 0.75521(6) 0.36995(5)
Zn1L Zn 0.47834(6) 0.74479(6) -0.13005(5)
Zn1M Zn -0.47834(6) 0.25521(6) -0.13005(5)
Zn1N Zn -0.25521(6) 0.52166(6) -0.13005(5)
Zn1O Zn 0.25521(6) 0.47834(6) -0.13005(5)
Zn1R Zn 0.24479(6) 0.97834(6) -0.13005(5)
Zn1Z Zn -0.25521(6) 0.47834(6) 0.36995(5)
Zn1AA Zn 0.25521(6) 0.52166(6) 0.36995(5)
Zn1CA Zn 0.47834(6) 0.74479(6) 0.13005(5)
Zn1DA Zn 0.25521(6) 0.47834(6) 0.13005(5)
Zn2C Zn 0.15081(6) 0.98745(7) 0.17314(5)
Zn2D Zn -0.01255(7) 0.15081(6) 0.32686(5)
Zn2E Zn 0.01255(7) 0.84919(6) 0.32686(5)
Zn2L Zn 0.48745(7) 0.65081(6) -0.17314(5)
Zn2M Zn -0.48745(7) 0.34919(6) -0.17314(5)
Zn2N Zn -0.34919(6) 0.51255(7) -0.17314(5)
Zn2O Zn 0.34919(6) 0.48745(7) -0.17314(5)
Zn2R Zn 0.15081(6) 0.98745(7) -0.17314(5)
Zn2Z Zn -0.34919(6) 0.48745(7) 0.32686(5)
Zn2AA Zn 0.34919(6) 0.51255(7) 0.32686(5)
Zn2CA Zn 0.48745(7) 0.65081(6) 0.17314(5)
Zn2DA Zn 0.34919(6) 0.48745(7) 0.17314(5)
O1B O -0.0664(3) 0.7940(4) 0.1160(2)
O1C O 0.0664(3) 0.2060(4) 0.1160(2)
O1R O 0.0664(3) 0.2060(4) -0.1160(2)
O1S O -0.0664(3) 0.7940(4) -0.1160(2)
O1CA O -0.2940(4) 0.5664(3) 0.1160(2)
O2B O -0.0645(4) 0.8465(4) 0.1489(3)
O2C O 0.0645(4) 0.1535(4) 0.1489(3)
O2R O 0.0645(4) 0.1535(4) -0.1489(3)
O2S O -0.0645(4) 0.8465(4) -0.1489(3)
O2CA O -0.3465(4) 0.5645(4) 0.1489(3)
O3B O -0.1671(5) -0.0313(4) 0.1440(3)
O3S O -0.1671(5) -0.0313(4) -0.1440(3)
O3BA O -0.5313(4) 0.3329(5) 0.1440(3)
O4B O -0.2226(3) -0.0265(4) 0.1123(2)
O4S O -0.2226(3) -0.0265(4) -0.1123(2)
O4BA O -0.5265(4) 0.2774(3) 0.1123(2)
O5B O -0.2982(3) 0.0328(3) 0.1106(2)
O5S O -0.2982(3) 0.0328(3) -0.1106(2)
O5BA O -0.4672(3) 0.2018(3) 0.1106(2)
O7B O -0.2669(3) 0.0052(3) 0.1673(3)
O7P O -0.0052(3) 0.7331(3) -0.1673(3)
O7Q O 0.0052(3) 0.2669(3) -0.1673(3)
O7S O -0.2669(3) 0.0052(3) -0.1673(3)
O7BA O -0.4948(3) 0.2331(3) 0.1673(3)
O8B O -0.1968(5) 0.0138(5) 0.1972(2)
O8P O -0.0138(5) 0.8032(5) -0.1972(2)
O8Q O 0.0138(5) 0.1968(5) -0.1972(2)
O8S O -0.1968(5) 0.0138(5) -0.1972(2)
O8BA O -0.4862(5) 0.3032(5) 0.1972(2)
loop_
_geom_bond_atom_site_label_1
_geom_bond_atom_site_label_2
_geom_bond_site_symmetry_1
_geom_bond_site_symmetry_2
Zn1 O4 1_555 1_555
Zn2 O3 1_555 1_555
Mn1 Cl1 1_555 1_555
Cl2 Mn1 1_555 1_555
N1 Mn1 1_555 1_555
N2 Mn1 1_555 1_555
C1 H1 1_555 1_555
C2 N2 1_555 1_555
C3 C2 1_555 1_555
C4 N1 1_555 1_555
C5 C4 1_555 1_555
H2 C5 1_555 1_555
O1 C10 1_555 1_555
O2 C10 1_555 1_555
O3 C6 1_555 1_555
O4 C6 1_555 1_555
C6 C7 1_555 1_555
C7 C8 1_555 1_555
C8 H3 1_555 1_555
C9 C8 1_555 1_555
C10 C9 1_555 1_555
C11 C9 1_555 1_555
H4 C11 1_555 1_555
C12 C3 1_555 1_555
C13 C7 1_555 1_555
H5 C13 1_555 1_555
Mn2 Cl3 1_555 1_555
N3 Mn2 1_555 1_555
N4 Mn2 1_555 1_555
C14 H6 1_555 1_555
C15 N3 1_555 1_555
C16 C15 1_555 1_555
C17 N4 1_555 1_555
C18 C17 1_555 1_555
H7 C18 1_555 1_555
O5 Zn1 1_555 1_555
O6 C19 1_555 1_555
C19 O5 1_555 1_555
C20 C19 1_555 1_555
C21 C20 1_555 1_555
H8 C21 1_555 1_555
C22 C20 1_555 1_555
H9 C22 1_555 1_555
C23 C16 1_555 1_555
Mn3 Cl4 1_555 1_555
N5 Mn3 1_555 1_555
C24 C25 1_555 1_555
C25 N5 1_555 1_555
C26 C25 1_555 1_555
H10 C26 1_555 1_555
C27 C28 1_555 1_555
C28 H11 1_555 1_555
C29 C27 1_555 1_555
H12 C29 1_555 1_555
C30 C24 1_555 1_555
O7 Zn1 1_555 1_555
O8 Zn2 1_555 1_555
C31 C27 1_555 1_555
O9 Zn2 1_555 1_555
N2N Mn1 1_555 1_555
C1Q H1Q 1_555 1_555
C2Q N2N 1_555 1_555
C3Q C2Q 1_555 1_555
C4Q N1 1_555 1_555
C5Q C5 1_555 1_555
H2Q C5Q 1_555 1_555
O1Q C10Q 1_555 1_555
O2Q C10Q 1_555 1_555
O3Q C6Q 1_555 1_555
O4Q C6Q 1_555 1_555
C6Q C7Q 1_555 1_555
C7Q C8Q 1_555 1_555
C8Q H3Q 1_555 1_555
C9Q C8Q 1_555 1_555
C10Q C9Q 1_555 1_555
C11Q C9Q 1_555 1_555
H4Q C11Q 1_555 1_555
C12Q C3Q 1_555 1_555
C13Q C7Q 1_555 1_555
H5Q C13Q 1_555 1_555
N1N Mn1 1_555 1_555
C1EA C1 1_555 1_555
H1EA C1EA 1_555 1_555
C2EA N2 1_555 1_555
C3EA C2EA 1_555 1_555
C4EA N1N 1_555 1_555
C5EA C4EA 1_555 1_555
H2EA C5EA 1_555 1_555
O1EA C10EA 1_555 1_555
O2EA C10EA 1_555 1_555
O3EA C6EA 1_555 1_555
O4EA C6EA 1_555 1_555
C6EA C7EA 1_555 1_555
C7EA C8EA 1_555 1_555
C8EA H3EA 1_555 1_555
C9EA C8EA 1_555 1_555
C10EA C9EA 1_555 1_555
C11EA C9EA 1_555 1_555
H4EA C11EA 1_555 1_555
C12EA C3EA 1_555 1_555
C13EA C7EA 1_555 1_555
H5EA C13EA 1_555 1_555
C1N C1Q 1_555 1_555
H1N C1N 1_555 1_555
C2N N2N 1_555 1_555
C3N C2N 1_555 1_555
C4N N1N 1_555 1_555
C5N C5EA 1_555 1_555
H2N C5N 1_555 1_555
O1N C10N 1_555 1_555
O2N C10N 1_555 1_555
O3N C6N 1_555 1_555
O4N C6N 1_555 1_555
C6N C7N 1_555 1_555
C7N C8N 1_555 1_555
C8N H3N 1_555 1_555
C9N C8N 1_555 1_555
C10N C9N 1_555 1_555
C11N C9N 1_555 1_555
H4N C11N 1_555 1_555
C12N C3N 1_555 1_555
C13N C7N 1_555 1_555
H5N C13N 1_555 1_555
N3A Mn2 1_555 1_555
C14A H6A 1_555 1_555
C15A N3A 1_555 1_555
C16A C15A 1_555 1_555
C17A N4 1_555 1_555
C18A C18 1_555 1_555
H7A C18A 1_555 1_555
O5A C19A 1_555 1_555
O6A C19A 1_555 1_555
C19A C20A 1_555 1_555
C20A C21A 1_555 1_555
C21A H8A 1_555 1_555
C22A C20A 1_555 1_555
H9A C22A 1_555 1_555
C23A C16A 1_555 1_555
N4N Mn2 1_555 1_555
C14N C14A 1_555 1_555
H6N C14N 1_555 1_555
C15N N3A 1_555 1_555
C16N C15N 1_555 1_555
C17N N4N 1_555 1_555
C18N C17N 1_555 1_555
H7N C18N 1_555 1_555
O5N C19N 1_555 1_555
O6N C19N 1_555 1_555
C19N C20N 1_555 1_555
C20N C21N 1_555 1_555
C21N H8N 1_555 1_555
C22N C20N 1_555 1_555
H9N C22N 1_555 1_555
C23N C16N 1_555 1_555
C14O C14 1_555 1_555
H6O C14O 1_555 1_555
C15O N3 1_555 1_555
C16O C15O 1_555 1_555
C17O N4N 1_555 1_555
C18O C18N 1_555 1_555
H7O C18O 1_555 1_555
O5O C19O 1_555 1_555
O6O C19O 1_555 1_555
C19O C20O 1_555 1_555
C20O C21O 1_555 1_555
C21O H8O 1_555 1_555
C22O C20O 1_555 1_555
H9O C22O 1_555 1_555
C23O C16O 1_555 1_555
O5P C19P 1_555 1_555
O6P C19P 1_555 1_555
C19P C20P 1_555 1_555
C20P C21N 1_555 1_555
C22P C23N 1_555 1_555
H9P C22P 1_555 1_555
O5Q C19Q 1_555 1_555
O6Q C19Q 1_555 1_555
C19Q C20Q 1_555 1_555
C20Q C21O 1_555 1_555
C22Q C23O 1_555 1_555
H9Q C22Q 1_555 1_555
O5DA C19DA 1_555 1_555
O6DA C19DA 1_555 1_555
C19DA C20DA 1_555 1_555
C20DA C21 1_555 1_555
C22DA C23 1_555 1_555
H9DA C22DA 1_555 1_555
O5EA C19EA 1_555 1_555
O6EA C19EA 1_555 1_555
C19EA C20EA 1_555 1_555
C20EA C21A 1_555 1_555
C22EA C23A 1_555 1_555
H9EA C22EA 1_555 1_555
N5D Mn3 1_555 1_555
C25D C24 1_555 1_555
C26D C25D 1_555 1_555
H10D C26D 1_555 1_555
C27D C28 1_555 1_555
C29D C30 1_555 1_555
H12D C29D 1_555 1_555
O7D C31D 1_555 1_555
O8D C31D 1_555 1_555
C31D C27D 1_555 1_555
C24Z C25Z 1_555 1_555
C25Z N5D 1_555 1_555
C26Z C26D 1_555 1_555
H10Z C26Z 1_555 1_555
C27Z C28Z 1_555 1_555
C28Z H11Z 1_555 1_555
C29Z C27Z 1_555 1_555
H12Z C29Z 1_555 1_555
C30Z C24Z 1_555 1_555
O7Z C31Z 1_555 1_555
O8Z C31Z 1_555 1_555
C31Z C27Z 1_555 1_555
C24AA C25DA 1_555 1_555
C25DA N5 1_555 1_555
C26DA C26 1_555 1_555
H10DA C26DA 1_555 1_555
C27DA C28AA 1_555 1_555
C28AA H11AA 1_555 1_555
C29DA C27DA 1_555 1_555
H12DA C29DA 1_555 1_555
C30AA C24AA 1_555 1_555
O7DA C31DA 1_555 1_555
O8DA C31DA 1_555 1_555
C31DA C27DA 1_555 1_555
N5E Mn3 1_555 1_555
C25AA C24AA 1_555 1_555
C26AA C25AA 1_555 1_555
H10AA C26AA 1_555 1_555
C27AA C28AA 1_555 1_555
C29AA C30AA 1_555 1_555
H12AA C29AA 1_555 1_555
O7AA C31AA 1_555 1_555
O8AA C31AA 1_555 1_555
C31AA C27AA 1_555 1_555
N5A Mn3 1_555 1_555
C25EA C24Z 1_555 1_555
C26EA C25EA 1_555 1_555
H10EA C26EA 1_555 1_555
C27EA C28Z 1_555 1_555
C29EA C30Z 1_555 1_555
H12EA C29EA 1_555 1_555
O7EA C31EA 1_555 1_555
O8EA C31EA 1_555 1_555
C31EA C27EA 1_555 1_555
C24A C25A 1_555 1_555
C25A N5A 1_555 1_555
C26A C26EA 1_555 1_555
H10A C26A 1_555 1_555
C27A C28A 1_555 1_555
C28A H11A 1_555 1_555
C29A C27A 1_555 1_555
H12A C29A 1_555 1_555
C30A C24A 1_555 1_555
O7A C31A 1_555 1_555
O8A C31A 1_555 1_555
C31A C27A 1_555 1_555
C25E N5E 1_555 1_555
C26E C26AA 1_555 1_555
H10E C26E 1_555 1_555
C27E C28A 1_555 1_555
C29E C30A 1_555 1_555
H12E C29E 1_555 1_555
O7E C31E 1_555 1_555
O8E C31E 1_555 1_555
C31E C27E 1_555 1_555
Zn1A O5A 1_555 1_555
Zn2A O8A 1_555 1_555
Mn1A Cl1A 1_555 1_555
Cl2A Mn1A 1_555 1_555
N1A Mn1A 1_555 1_555
N2A Mn1A 1_555 1_555
C1A H1A 1_555 1_555
C2A N2A 1_555 1_555
C3A C2A 1_555 1_555
C4A N1A 1_555 1_555
C5A C4A 1_555 1_555
H2A C5A 1_555 1_555
O1A C10A 1_555 1_555
O2A C10A 1_555 1_555
O3A Zn2A 1_555 1_555
O4A Zn1A 1_555 1_555
C6A O3A 1_555 1_555
C7A C6A 1_555 1_555
C8A C7A 1_555 1_555
H3A C8A 1_555 1_555
C9A C8A 1_555 1_555
C10A C9A 1_555 1_555
C11A C9A 1_555 1_555
H4A C11A 1_555 1_555
C12A C3A 1_555 1_555
C13A C7A 1_555 1_555
H5A C13A 1_555 1_555
Cl3A Mn2 1_555 1_555
O9A Zn2A 1_555 1_555
N2O Mn1A 1_555 1_555
C1P H1P 1_555 1_555
C2P N2O 1_555 1_555
C3P C2P 1_555 1_555
C4P N1A 1_555 1_555
C5P C5A 1_555 1_555
H2P C5P 1_555 1_555
O1P C10P 1_555 1_555
O2P C10P 1_555 1_555
O3P C6P 1_555 1_555
O4P C6P 1_555 1_555
C6P C7P 1_555 1_555
C7P C8P 1_555 1_555
C8P H3P 1_555 1_555
C9P C8P 1_555 1_555
C10P C9P 1_555 1_555
C11P C9P 1_555 1_555
H4P C11P 1_555 1_555
C12P C3P 1_555 1_555
C13P C7P 1_555 1_555
H5P C13P 1_555 1_555
N1O Mn1A 1_555 1_555
C1DA C1A 1_555 1_555
H1DA C1DA 1_555 1_555
C2DA N2A 1_555 1_555
C3DA C2DA 1_555 1_555
C4DA N1O 1_555 1_555
C5DA C4DA 1_555 1_555
H2DA C5DA 1_555 1_555
O1DA C10DA 1_555 1_555
O2DA C10DA 1_555 1_555
O3DA C6DA 1_555 1_555
O4DA C6DA 1_555 1_555
C6DA C7DA 1_555 1_555
C7DA C8DA 1_555 1_555
C8DA H3DA 1_555 1_555
C9DA C8DA 1_555 1_555
C10DA C9DA 1_555 1_555
C11DA C9DA 1_555 1_555
H4DA C11DA 1_555 1_555
C12DA C3DA 1_555 1_555
C13DA C7DA 1_555 1_555
H5DA C13DA 1_555 1_555
C1O C1P 1_555 1_555
H1O C1O 1_555 1_555
C2O N2O 1_555 1_555
C3O C2O 1_555 1_555
C4O N1O 1_555 1_555
C5O C5DA 1_555 1_555
H2O C5O 1_555 1_555
O1O C10O 1_555 1_555
O2O C10O 1_555 1_555
O3O C6O 1_555 1_555
O4O C6O 1_555 1_555
C6O C7O 1_555 1_555
C7O C8O 1_555 1_555
C8O H3O 1_555 1_555
C9O C8O 1_555 1_555
C10O C9O 1_555 1_555
C11O C9O 1_555 1_555
H4O C11O 1_555 1_555
C12O C3O 1_555 1_555
C13O C7O 1_555 1_555
H5O C13O 1_555 1_555
Zn1B O1 1_555 1_555
Zn2B O2 1_555 1_555
O9B Zn2B 1_555 1_555
Zn1P O5P 1_555 1_555
Zn2P O3P 1_555 1_555
O9P Zn2P 1_555 1_555
Zn1Q O4Q 1_555 1_555
Zn2Q O3Q 1_555 1_555
O9Q Zn2Q 1_555 1_555
Zn1S O1Q 1_555 1_555
Zn2S O2Q 1_555 1_555
O9S Zn2S 1_555 1_555
Zn2BA O2EA 1_555 1_555
O9BA Zn2BA 1_555 1_555
Zn2EA O3EA 1_555 1_555
O9EA Zn2EA 1_555 1_555
Zn1BA O1EA 1_555 1_555
Cl4D Mn3 1_555 1_555
Zn1EA O4EA 1_555 1_555
Zn1C O1A 1_555 1_555
Zn1D O7D 1_555 1_555
Zn1E O7E 1_555 1_555
Zn1L O1O 1_555 1_555
Zn1M O1N 1_555 1_555
Zn1N O4N 1_555 1_555
Zn1O O5O 1_555 1_555
Zn1R O1P 1_555 1_555
Zn1Z O7Z 1_555 1_555
Zn1AA O7AA 1_555 1_555
Zn1CA O1DA 1_555 1_555
Zn1DA O5DA 1_555 1_555
Zn2C O2A 1_555 1_555
Zn2D O8D 1_555 1_555
Zn2E O8E 1_555 1_555
Zn2L O2O 1_555 1_555
Zn2M O2N 1_555 1_555
Zn2N O3N 1_555 1_555
Zn2O O3O 1_555 1_555
Zn2R O2P 1_555 1_555
Zn2Z O8Z 1_555 1_555
Zn2AA O8AA 1_555 1_555
Zn2CA O2DA 1_555 1_555
Zn2DA O8DA 1_555 1_555
O1B Zn1A 1_555 1_555
O1C Zn1 1_555 1_555
O1R Zn1Q 1_555 1_555
O1S Zn1P 1_555 1_555
O1CA Zn1EA 1_555 1_555
O2B Zn2A 1_555 1_555
O2C Zn2 1_555 1_555
O2R Zn2Q 1_555 1_555
O2S Zn2P 1_555 1_555
O2CA Zn2EA 1_555 1_555
O3B Zn2B 1_555 1_555
O3S Zn2S 1_555 1_555
O3BA Zn2BA 1_555 1_555
O4B Zn1B 1_555 1_555
O4S Zn1S 1_555 1_555
O4BA Zn1BA 1_555 1_555
O5B Zn1B 1_555 1_555
O5S Zn1S 1_555 1_555
O5BA Zn1BA 1_555 1_555
O7B Zn1B 1_555 1_555
O7P Zn1P 1_555 1_555
O7Q Zn1Q 1_555 1_555
O7S Zn1S 1_555 1_555
O7BA Zn1BA 1_555 1_555
O8B Zn2B 1_555 1_555
O8P Zn2P 1_555 1_555
O8Q Zn2Q 1_555 1_555
O8S Zn2S 1_555 1_555
O8BA Zn2BA 1_555 1_555
C1 C2 1_555 1_555
C3 C4 1_555 1_555
C11 C12 1_555 1_555
C12 C13 1_555 1_555
C14 C15 1_555 1_555
C16 C17 1_555 1_555
C22 C23 1_555 1_555
C29 C30 1_555 1_555
O7 C31 1_555 1_555
O8 C31 1_555 1_555
C1Q C2Q 1_555 1_555
C3Q C4Q 1_555 1_555
C4Q C5Q 1_555 1_555
C11Q C12Q 1_555 1_555
C12Q C13Q 1_555 1_555
C1EA C2EA 1_555 1_555
C3EA C4EA 1_555 1_555
C11EA C12EA 1_555 1_555
C12EA C13EA 1_555 1_555
C1N C2N 1_555 1_555
C3N C4N 1_555 1_555
C4N C5N 1_555 1_555
C11N C12N 1_555 1_555
C12N C13N 1_555 1_555
C14A C15A 1_555 1_555
C16A C17A 1_555 1_555
C17A C18A 1_555 1_555
C22A C23A 1_555 1_555
C14N C15N 1_555 1_555
C16N C17N 1_555 1_555
O5N Zn1N 1_555 1_555
C22N C23N 1_555 1_555
C14O C15O 1_555 1_555
C16O C17O 1_555 1_555
C17O C18O 1_555 1_555
C22O C23O 1_555 1_555
C20P C22P 1_555 1_555
O5Q Zn1Q 1_555 1_555
C20Q C22Q 1_555 1_555
C20DA C22DA 1_555 1_555
O5EA Zn1EA 1_555 1_555
C20EA C22EA 1_555 1_555
N5D C25D 1_555 1_555
C27D C29D 1_555 1_555
C25Z C26Z 1_555 1_555
C29Z C30Z 1_555 1_555
C25DA C26DA 1_555 1_555
C29DA C30AA 1_555 1_555
O7DA Zn1DA 1_555 1_555
N5E C25AA 1_555 1_555
C27AA C29AA 1_555 1_555
N5A C25EA 1_555 1_555
C27EA C29EA 1_555 1_555
O7EA Zn1EA 1_555 1_555
O8EA Zn2EA 1_555 1_555
C24A C25E 1_555 1_555
C25A C26A 1_555 1_555
C29A C30A 1_555 1_555
O7A Zn1A 1_555 1_555
C25E C26E 1_555 1_555
C27E C29E 1_555 1_555
C1A C2A 1_555 1_555
C3A C4A 1_555 1_555
O4A C6A 1_555 1_555
C11A C12A 1_555 1_555
C12A C13A 1_555 1_555
C1P C2P 1_555 1_555
C3P C4P 1_555 1_555
C4P C5P 1_555 1_555
O4P Zn1P 1_555 1_555
C11P C12P 1_555 1_555
C12P C13P 1_555 1_555
C1DA C2DA 1_555 1_555
C3DA C4DA 1_555 1_555
O3DA Zn2DA 1_555 1_555
O4DA Zn1DA 1_555 1_555
C11DA C12DA 1_555 1_555
C12DA C13DA 1_555 1_555
C1O C2O 1_555 1_555
C3O C4O 1_555 1_555
C4O C5O 1_555 1_555
O4O Zn1O 1_555 1_555
C11O C12O 1_555 1_555
C12O C13O 1_555 1_555

#END
