
#######################################################################
#
#                 Cambridge Crystallographic Data Centre
#                                CCDC 
#
#######################################################################
#
# If this CIF has been generated from an entry in the Cambridge 
# Structural Database, then it will include bibliographic, chemical, 
# crystal, experimental, refinement or atomic coordinate data resulting 
# from the CCDC's data processing and validation procedures.
#
#######################################################################

data_PODXEN
_symmetry_cell_setting           triclinic
_symmetry_space_group_name_H-M   'P -1'
_symmetry_Int_Tables_number      2
_space_group_name_Hall           '-P 1'
loop_
_symmetry_equiv_pos_site_id
_symmetry_equiv_pos_as_xyz
1 x,y,z
2 -x,-y,-z
_cell_length_a                   8.4804(3)
_cell_length_b                   14.1017(6)
_cell_length_c                   20.7617(9)
_cell_angle_alpha                83.472(4)
_cell_angle_beta                 81.241(4)
_cell_angle_gamma                82.823(3)
_cell_volume                     2423.3
loop_
_atom_site_label
_atom_site_type_symbol
_atom_site_fract_x
_atom_site_fract_y
_atom_site_fract_z
Zn1 Zn 0.80240(6) 0.38528(4) 0.08453(2)
Zn2 Zn 0.95977(7) 1.36078(4) 0.27634(3)
N1 N 0.6391(4) 1.4172(3) 0.90455(18)
O1 O 0.8452(4) 0.5111(2) 0.10704(15)
C1 C 0.8722(5) 0.5161(3) 0.1641(2)
O2 O 1.0141(4) 0.3137(2) 0.06294(17)
N2 N 0.3514(4) 0.6861(3) 0.85015(19)
O3 O 0.8600(5) 0.4470(3) 0.20733(17)
O4 O 0.8724(4) 0.2095(3) 0.03131(19)
N3 N 0.7143(4) 1.4304(3) 1.00018(19)
N4 N 0.4512(5) 0.8084(3) 0.7905(2)
N5 N 0.5166(5) 1.1985(3) 0.71210(18)
O5 O 0.9937(6) 1.2406(3) 0.2368(2)
C2 C 0.5393(5) 1.2602(3) 0.7589(2)
O6 O 1.1592(4) 1.4242(3) 0.30197(19)
H1 H 1.1499 1.4475 0.3411
H2 H 1.2507 1.4274 0.2738
C3 C 0.5037(6) 1.0993(4) 0.7314(2)
C4 C 1.0000(6) 0.7656(3) 0.1467(2)
H3 H 1.0412 0.8092 0.1132
C5 C 0.9151(6) 0.7211(3) 0.2597(2)
H4 H 0.8961 0.7353 0.3030
C6 C 0.8876(5) 0.6330(3) 0.2452(2)
H5 H 0.8533 0.5876 0.2789
C7 C 0.6520(6) 1.3765(3) 0.9654(2)
H6 H 0.6201 1.3164 0.9812
C8 C 1.0017(6) 0.2341(4) 0.0411(2)
C9 C 0.9715(6) 0.7909(3) 0.2106(2)
C10 C 0.6498(6) 1.3256(4) 0.7445(2)
H7 H 0.7058 1.3329 0.7024
C11 C 0.9689(5) 0.6776(3) 0.1316(2)
H8 H 0.9874 0.6634 0.0882
C12 C 0.9104(5) 0.6101(3) 0.1803(2)
N6 N 0.6390(5) 1.3345(3) 0.44586(19)
C13 C 0.4736(6) 0.9071(4) 0.7685(2)
N7 N 0.7748(6) 1.3645(3) 0.3484(2)
C14 C 0.3517(6) 0.7791(4) 0.8435(2)
H9 H 0.2904 0.8201 0.8721
C15 C 0.6794(6) 1.3810(4) 0.7917(2)
H10 H 0.7552 1.4246 0.7818
C16 C 0.5942(5) 1.3700(3) 0.8535(2)
C17 C 1.0385(6) 0.9922(4) 0.3045(3)
H11 H 1.0582 0.9999 0.3463
C18 C 0.9965(6) 0.8867(3) 0.2267(2)
C19 C 0.4993(7) 1.3517(4) 0.5563(3)
H12 H 0.4499 1.4112 0.5416
C20 C 0.9984(7) 1.0589(4) 0.1973(3)
H13 H 0.9918 1.1113 0.1659
C21 C 0.4769(5) 1.3090(4) 0.8677(2)
H14 H 0.4167 1.3047 0.9091
C22 C 0.5438(6) 1.2303(4) 0.6442(2)
C23 C 1.1518(6) 0.1683(3) 0.0268(2)
C24 C 1.0246(7) 1.1709(4) 0.2794(3)
C25 C 0.5781(6) 1.0518(4) 0.7827(2)
H15 H 0.6389 1.0848 0.8044
C26 C 0.9840(7) 0.9673(4) 0.1810(3)
H16 H 0.9657 0.9597 0.1390
C27 C 1.4283(6) 0.0358(4) 0.0052(2)
O7 O 1.0506(7) 1.1824(3) 0.3341(2)
C28 C 0.6014(6) 1.2985(4) 0.5132(2)
C29 C 0.6449(6) 1.1765(4) 0.6004(2)
H17 H 0.6946 1.1171 0.6151
C30 C 0.4480(6) 1.2540(4) 0.8208(2)
H18 H 0.3680 1.2130 0.8303
C31 C 1.4355(6) 0.1242(4) 0.0244(3)
H19 H 1.5348 0.1414 0.0297
C32 C 1.0264(6) 0.9016(3) 0.2891(2)
H20 H 1.0382 0.8495 0.3204
C33 C 0.7461(6) 1.5120(3) 0.9585(2)
H21 H 0.7905 1.5641 0.9693
C34 C 1.0225(6) 1.0721(3) 0.2604(3)
C35 C 0.7026(6) 1.5039(4) 0.9001(3)
H22 H 0.7132 1.5483 0.8634
C36 C 0.5630(6) 0.9556(4) 0.8021(3)
H23 H 0.6119 0.9241 0.8369
C37 C 1.3001(6) 0.1897(4) 0.0362(3)
H24 H 1.3099 0.2485 0.0507
C38 C 0.4008(7) 0.9530(4) 0.7174(3)
H25 H 0.3419 0.9195 0.6952
C39 C 0.4147(7) 1.0492(4) 0.6988(3)
H26 H 0.3643 1.0805 0.6643
C40 C 0.4691(7) 1.3178(4) 0.6210(2)
H27 H 0.3977 1.3540 0.6497
C41 C 0.5398(7) 1.3989(5) 0.4111(3)
H28 H 0.4360 1.4252 0.4254
C42 C 0.4596(6) 0.6531(4) 0.7992(3)
H29 H 0.4864 0.5889 0.7917
C43 C 0.6735(7) 1.2093(4) 0.5349(3)
H30 H 0.7405 1.1718 0.5057
C44 C 0.6275(7) 1.4154(5) 0.3512(3)
H31 H 0.5913 1.4560 0.3167
C45 C 0.7754(7) 1.3169(4) 0.4067(2)
H32 H 0.8622 1.2753 0.4190
C46 C 0.5198(7) 0.7267(4) 0.7622(3)
H33 H 0.5942 0.7237 0.7244
C47 C 1.2776(8) 0.0153(5) -0.0048(5)
H34 H 1.2671 -0.0438 -0.0185
C48 C 1.1439(8) 0.0815(5) 0.0052(4)
H35 H 1.0457 0.0664 -0.0031
O2A O 1.9859(4) -0.3137(2) -0.06294(17)
O4A O 2.1276(4) -0.2095(3) -0.03131(19)
C8A C 1.9983(6) -0.2341(4) -0.0411(2)
C23A C 1.8482(6) -0.1683(3) -0.0268(2)
C27A C 1.5717(6) -0.0358(4) -0.0052(2)
C31A C 1.5645(6) -0.1242(4) -0.0244(3)
H19A H 1.4652 -0.1414 -0.0297
C37A C 1.6999(6) -0.1897(4) -0.0362(3)
H24A H 1.6901 -0.2485 -0.0507
C47A C 1.7224(8) -0.0153(5) 0.0048(5)
H34A H 1.7329 0.0438 0.0185
C48A C 1.8561(8) -0.0815(5) -0.0052(4)
H35A H 1.9543 -0.0664 0.0031
Zn1A Zn 0.19760(6) 0.61472(4) 0.91547(2)
Zn2A Zn 0.04023(7) -0.36078(4) 0.72366(3)
N1A N 0.3609(4) -0.4172(3) 0.09545(18)
O1A O 0.1548(4) 0.4889(2) 0.89296(15)
C1A C 0.1278(5) 0.4839(3) 0.8359(2)
N2A N 0.6486(4) 0.3139(3) 0.14985(19)
O3A O 0.1400(5) 0.5530(3) 0.79267(17)
N3A N 0.2857(4) -0.4304(3) -0.00018(19)
N4A N 0.5488(5) 0.1916(3) 0.2095(2)
N5A N 0.4834(5) -0.1985(3) 0.28790(18)
O5A O 0.0063(6) -0.2406(3) 0.7632(2)
C2A C 0.4607(5) -0.2602(3) 0.2411(2)
O6A O -0.1592(4) -0.4242(3) 0.69803(19)
H1A H -0.1499 -0.4475 0.6589
H2A H -0.2507 -0.4274 0.7262
C3A C 0.4963(6) -0.0993(4) 0.2686(2)
C4A C 0.0000(6) 0.2344(3) 0.8533(2)
H3A H -0.0412 0.1908 0.8868
C5A C 0.0849(6) 0.2789(3) 0.7403(2)
H4A H 0.1039 0.2647 0.6970
C6A C 0.1124(5) 0.3670(3) 0.7548(2)
H5A H 0.1467 0.4124 0.7211
C7A C 0.3480(6) -0.3765(3) 0.0346(2)
H6A H 0.3799 -0.3164 0.0188
C9A C 0.0285(6) 0.2091(3) 0.7894(2)
C10A C 0.3502(6) -0.3256(4) 0.2555(2)
H7A H 0.2942 -0.3329 0.2976
C11A C 0.0311(5) 0.3224(3) 0.8684(2)
H8A H 0.0126 0.3366 0.9118
C12A C 0.0896(5) 0.3899(3) 0.8197(2)
N6A N 0.3610(5) -0.3345(3) 0.55414(19)
C13A C 0.5264(6) 0.0929(4) 0.2315(2)
N7A N 0.2252(6) -0.3645(3) 0.6516(2)
C14A C 0.6483(6) 0.2209(4) 0.1565(2)
H9A H 0.7096 0.1799 0.1279
C15A C 0.3206(6) -0.3810(4) 0.2083(2)
H10A H 0.2448 -0.4246 0.2182
C16A C 0.4058(5) -0.3700(3) 0.1465(2)
C17A C -0.0385(6) 0.0078(4) 0.6955(3)
H11A H -0.0582 0.0001 0.6537
C18A C 0.0035(6) 0.1133(3) 0.7733(2)
C19A C 0.5007(7) -0.3517(4) 0.4437(3)
H12A H 0.5501 -0.4112 0.4584
C20A C 0.0016(7) -0.0589(4) 0.8027(3)
H13A H 0.0082 -0.1113 0.8341
C21A C 0.5231(5) -0.3090(4) 0.1323(2)
H14A H 0.5833 -0.3047 0.0909
C22A C 0.4562(6) -0.2303(4) 0.3558(2)
C24A C -0.0246(7) -0.1709(4) 0.7206(3)
C25A C 0.4219(6) -0.0518(4) 0.2173(2)
H15A H 0.3611 -0.0848 0.1956
C26A C 0.0160(7) 0.0327(4) 0.8190(3)
H16A H 0.0343 0.0403 0.8610
O7A O -0.0506(7) -0.1824(3) 0.6659(2)
C28A C 0.3986(6) -0.2985(4) 0.4868(2)
C29A C 0.3551(6) -0.1765(4) 0.3996(2)
H17A H 0.3054 -0.1171 0.3849
C30A C 0.5520(6) -0.2540(4) 0.1792(2)
H18A H 0.6320 -0.2130 0.1697
C32A C -0.0264(6) 0.0984(3) 0.7109(2)
H20A H -0.0382 0.1505 0.6796
C33A C 0.2539(6) -0.5120(3) 0.0415(2)
H21A H 0.2095 -0.5641 0.0307
C34A C -0.0225(6) -0.0721(3) 0.7396(3)
C35A C 0.2974(6) -0.5039(4) 0.0999(3)
H22A H 0.2868 -0.5483 0.1366
C36A C 0.4370(6) 0.0444(4) 0.1979(3)
H23A H 0.3881 0.0759 0.1631
C38A C 0.5992(7) 0.0470(4) 0.2826(3)
H25A H 0.6581 0.0805 0.3048
C39A C 0.5853(7) -0.0492(4) 0.3012(3)
H26A H 0.6357 -0.0805 0.3357
C40A C 0.5309(7) -0.3178(4) 0.3790(2)
H27A H 0.6023 -0.3540 0.3503
C41A C 0.4602(7) -0.3989(5) 0.5889(3)
H28A H 0.5640 -0.4252 0.5746
C42A C 0.5404(6) 0.3469(4) 0.2008(3)
H29A H 0.5136 0.4111 0.2083
C43A C 0.3265(7) -0.2093(4) 0.4651(3)
H30A H 0.2595 -0.1718 0.4943
C44A C 0.3725(7) -0.4154(5) 0.6488(3)
H31A H 0.4087 -0.4560 0.6833
C45A C 0.2246(7) -0.3169(4) 0.5933(2)
H32A H 0.1378 -0.2753 0.5810
C46A C 0.4802(7) 0.2733(4) 0.2378(3)
H33A H 0.4058 0.2763 0.2756
Zn1_2 Zn 0.80240(6) 1.38528(4) 1.08453(2)
Zn1A_2 Zn 0.19760(6) -0.38528(4) -0.08453(2)
Zn1A_3 Zn 2.19760(6) -0.38528(4) -0.08453(2)
Zn2_2 Zn 0.95977(7) 0.36078(4) 0.27634(3)
Zn2A_2 Zn 0.04023(7) 0.63922(4) 0.72366(3)
O2A_2 O -0.0141(4) 0.6863(2) 0.93706(17)
O3_2 O 0.8600(5) 1.4470(3) 0.20733(17)
O3A_2 O 0.1400(5) -0.4470(3) 0.79267(17)
N3_2 N 0.7143(4) 0.4304(3) 0.00018(19)
N3A_2 N 0.2857(4) 0.5696(3) 0.99982(19)
loop_
_geom_bond_atom_site_label_1
_geom_bond_atom_site_label_2
_geom_bond_site_symmetry_1
_geom_bond_site_symmetry_2
Zn1 O1 1_555 1_555
Zn2 O5 1_555 1_555
N1 C7 1_555 1_555
O1 C1 1_555 1_555
C1 O3 1_555 1_555
O2 Zn1 1_555 1_555
N2 C14 1_555 1_555
O3 Zn2_2 1_555 1_555
O4 C8 1_555 1_555
N3 C7 1_555 1_555
N4 C13 1_555 1_555
N5 C2 1_555 1_555
O5 C24 1_555 1_555
C2 C10 1_555 1_555
O6 Zn2 1_555 1_555
H1 O6 1_555 1_555
H2 O6 1_555 1_555
C3 N5 1_555 1_555
C4 H3 1_555 1_555
C5 H4 1_555 1_555
C6 C5 1_555 1_555
H5 C6 1_555 1_555
C7 H6 1_555 1_555
C8 O2 1_555 1_555
C9 C4 1_555 1_555
C10 H7 1_555 1_555
C11 C4 1_555 1_555
H8 C11 1_555 1_555
C12 C1 1_555 1_555
N6 C28 1_555 1_555
C13 C36 1_555 1_555
N7 Zn2 1_555 1_555
C14 N4 1_555 1_555
H9 C14 1_555 1_555
C15 C10 1_555 1_555
H10 C15 1_555 1_555
C16 N1 1_555 1_555
C17 H11 1_555 1_555
C18 C9 1_555 1_555
C19 H12 1_555 1_555
C20 H13 1_555 1_555
C21 C16 1_555 1_555
H14 C21 1_555 1_555
C22 N5 1_555 1_555
C23 C8 1_555 1_555
C24 O7 1_555 1_555
C25 C3 1_555 1_555
H15 C25 1_555 1_555
C26 C18 1_555 1_555
H16 C26 1_555 1_555
C27 C31 1_555 1_555
C28 C19 1_555 1_555
C29 C22 1_555 1_555
H17 C29 1_555 1_555
C30 C2 1_555 1_555
H18 C30 1_555 1_555
C31 H19 1_555 1_555
C32 C17 1_555 1_555
H20 C32 1_555 1_555
C33 N3 1_555 1_555
H21 C33 1_555 1_555
C34 C17 1_555 1_555
C35 N1 1_555 1_555
H22 C35 1_555 1_555
C36 C25 1_555 1_555
H23 C36 1_555 1_555
C37 C23 1_555 1_555
H24 C37 1_555 1_555
C38 C13 1_555 1_555
H25 C38 1_555 1_555
C39 C3 1_555 1_555
H26 C39 1_555 1_555
C40 C19 1_555 1_555
H27 C40 1_555 1_555
C41 N6 1_555 1_555
H28 C41 1_555 1_555
C42 N2 1_555 1_555
H29 C42 1_555 1_555
C43 C28 1_555 1_555
H30 C43 1_555 1_555
C44 N7 1_555 1_555
H31 C44 1_555 1_555
C45 N6 1_555 1_555
H32 C45 1_555 1_555
C46 N4 1_555 1_555
H33 C46 1_555 1_555
C47 C27 1_555 1_555
H34 C47 1_555 1_555
C48 C23 1_555 1_555
H35 C48 1_555 1_555
O2A C8A 1_555 1_555
O4A C8A 1_555 1_555
C8A C23A 1_555 1_555
C23A C37A 1_555 1_555
C27A C27 1_555 1_555
C31A C27A 1_555 1_555
H19A C31A 1_555 1_555
C37A C31A 1_555 1_555
H24A C37A 1_555 1_555
C47A C27A 1_555 1_555
H34A C47A 1_555 1_555
C48A C23A 1_555 1_555
H35A C48A 1_555 1_555
Zn1A N2 1_555 1_555
Zn2A O5A 1_555 1_555
N1A C7A 1_555 1_555
O1A Zn1A 1_555 1_555
C1A O1A 1_555 1_555
N2A Zn1 1_555 1_555
O3A C1A 1_555 1_555
N3A C7A 1_555 1_555
N4A C13A 1_555 1_555
N5A C2A 1_555 1_555
O5A C24A 1_555 1_555
C2A C10A 1_555 1_555
O6A Zn2A 1_555 1_555
H1A O6A 1_555 1_555
H2A O6A 1_555 1_555
C3A N5A 1_555 1_555
C4A H3A 1_555 1_555
C5A H4A 1_555 1_555
C6A C5A 1_555 1_555
H5A C6A 1_555 1_555
C7A H6A 1_555 1_555
C9A C4A 1_555 1_555
C10A H7A 1_555 1_555
C11A C4A 1_555 1_555
H8A C11A 1_555 1_555
C12A C1A 1_555 1_555
N6A C28A 1_555 1_555
C13A C36A 1_555 1_555
N7A Zn2A 1_555 1_555
C14A N2A 1_555 1_555
H9A C14A 1_555 1_555
C15A C10A 1_555 1_555
H10A C15A 1_555 1_555
C16A N1A 1_555 1_555
C17A H11A 1_555 1_555
C18A C9A 1_555 1_555
C19A H12A 1_555 1_555
C20A H13A 1_555 1_555
C21A C16A 1_555 1_555
H14A C21A 1_555 1_555
C22A N5A 1_555 1_555
C24A O7A 1_555 1_555
C25A C3A 1_555 1_555
H15A C25A 1_555 1_555
C26A C18A 1_555 1_555
H16A C26A 1_555 1_555
C28A C19A 1_555 1_555
C29A C22A 1_555 1_555
H17A C29A 1_555 1_555
C30A C2A 1_555 1_555
H18A C30A 1_555 1_555
C32A C17A 1_555 1_555
H20A C32A 1_555 1_555
C33A N3A 1_555 1_555
H21A C33A 1_555 1_555
C34A C17A 1_555 1_555
C35A N1A 1_555 1_555
H22A C35A 1_555 1_555
C36A C25A 1_555 1_555
H23A C36A 1_555 1_555
C38A C13A 1_555 1_555
H25A C38A 1_555 1_555
C39A C3A 1_555 1_555
H26A C39A 1_555 1_555
C40A C19A 1_555 1_555
H27A C40A 1_555 1_555
C41A N6A 1_555 1_555
H28A C41A 1_555 1_555
C42A N2A 1_555 1_555
H29A C42A 1_555 1_555
C43A C28A 1_555 1_555
H30A C43A 1_555 1_555
C44A N7A 1_555 1_555
H31A C44A 1_555 1_555
C45A N6A 1_555 1_555
H32A C45A 1_555 1_555
C46A N4A 1_555 1_555
H33A C46A 1_555 1_555
Zn1_2 N3 1_555 1_555
Zn1A_2 N3A 1_555 1_555
Zn1A_3 O2A 1_555 1_555
Zn2A_2 O3A 1_555 1_555
O2A_2 Zn1A 1_555 1_555
O3_2 Zn2 1_555 1_555
O3A_2 Zn2A 1_555 1_555
N3_2 Zn1 1_555 1_555
N3A_2 Zn1A 1_555 1_555
C5 C9 1_555 1_555
C6 C12 1_555 1_555
C11 C12 1_555 1_555
N7 C45 1_555 1_555
C15 C16 1_555 1_555
C18 C32 1_555 1_555
C20 C26 1_555 1_555
C20 C34 1_555 1_555
C21 C30 1_555 1_555
C22 C40 1_555 1_555
C24 C34 1_555 1_555
C29 C43 1_555 1_555
C31 C37 1_555 1_555
C33 C35 1_555 1_555
C38 C39 1_555 1_555
C41 C44 1_555 1_555
C42 C46 1_555 1_555
C47 C48 1_555 1_555
C47A C48A 1_555 1_555
N4A C14A 1_555 1_555
C5A C9A 1_555 1_555
C6A C12A 1_555 1_555
C11A C12A 1_555 1_555
N7A C45A 1_555 1_555
C15A C16A 1_555 1_555
C18A C32A 1_555 1_555
C20A C26A 1_555 1_555
C20A C34A 1_555 1_555
C21A C30A 1_555 1_555
C22A C40A 1_555 1_555
C24A C34A 1_555 1_555
C29A C43A 1_555 1_555
C33A C35A 1_555 1_555
C38A C39A 1_555 1_555
C41A C44A 1_555 1_555
C42A C46A 1_555 1_555

#END
