
#######################################################################
#
#                 Cambridge Crystallographic Data Centre
#                                CCDC 
#
#######################################################################
#
# If this CIF has been generated from an entry in the Cambridge 
# Structural Database, then it will include bibliographic, chemical, 
# crystal, experimental, refinement or atomic coordinate data resulting 
# from the CCDC's data processing and validation procedures.
#
#######################################################################

data_POHWIU
_symmetry_cell_setting           tetragonal
_symmetry_space_group_name_H-M   'P 42/m m c'
_symmetry_Int_Tables_number      131
_space_group_name_Hall           '-P 4c 2'
loop_
_symmetry_equiv_pos_site_id
_symmetry_equiv_pos_as_xyz
1 x,y,z
2 -x,-y,z
3 -y,x,1/2+z
4 y,-x,1/2+z
5 -x,y,-z
6 x,-y,-z
7 y,x,1/2-z
8 -y,-x,1/2-z
9 -x,-y,-z
10 x,y,-z
11 y,-x,1/2-z
12 -y,x,1/2-z
13 x,-y,z
14 -x,y,z
15 -y,-x,1/2+z
16 y,x,1/2+z
_cell_length_a                   21.8729(7)
_cell_length_b                   21.8729(7)
_cell_length_c                   28.6804(17)
_cell_angle_alpha                90
_cell_angle_beta                 90
_cell_angle_gamma                90
_cell_volume                     13721.4
loop_
_atom_site_label
_atom_site_type_symbol
_atom_site_fract_x
_atom_site_fract_y
_atom_site_fract_z
Co1 Co 0.0000 0.0000 0.2500
Co2 Co 0.5000 0.13862(12) 0.5000
Co3 Co 0.5000 0.27216(13) 0.5000
O1 O 0.0000 0.0000 0.1689(10)
O2 O 0.4359(4) 0.1549(5) 0.4510(3)
O3 O 0.4358(5) 0.2581(6) 0.4511(3)
O4 O 0.5000 0.0481(8) 0.5000
O5 O 0.5000 0.3664(10) 0.5000
N1 N 0.0904(7) 0.0000 0.2487(5)
C1 C 0.1276(7) 0.0493(7) 0.2464(5)
C2 C 0.5000 0.0000 0.5000
C3 C 0.1897(8) 0.0299(7) 0.2389(6)
H1 H 0.2242 0.0557 0.2348
C4 C 0.1089(6) 0.1089(6) 0.2500
C5 C 0.1584(6) 0.1584(6) 0.2500
C6 C 0.2000(7) 0.1618(7) 0.2868(5)
H2 H 0.1969 0.1341 0.3122
C7 C 0.2455(7) 0.2052(6) 0.2863(5)
C8 C 0.2479(6) 0.2479(6) 0.2500
H3 H 0.2786 0.2786 0.2500
C9 C 0.2904(7) 0.2062(7) 0.3246(5)
C10 C 0.3131(7) 0.1493(7) 0.3421(5)
H4 H 0.3005 0.1117 0.3284
C11 C 0.3535(8) 0.1496(7) 0.3793(6)
H5 H 0.3664 0.1122 0.3929
C12 C 0.3747(7) 0.2045(8) 0.3962(5)
C13 C 0.3544(7) 0.2623(7) 0.3778(6)
H6 H 0.3693 0.2998 0.3901
C14 C 0.3137(7) 0.2615(7) 0.3426(6)
H7 H 0.3004 0.2991 0.3295
C15 C 0.4192(7) 0.2063(9) 0.4366(5)
O2F O 0.1549(5) 0.4359(4) 0.0490(3)
O3F O 0.2581(6) 0.4358(5) 0.0489(3)
N1F N 0.0000 0.0904(7) 0.2513(5)
C1F C 0.0493(7) 0.1276(7) 0.2536(5)
C3F C 0.0299(7) 0.1897(8) 0.2611(6)
H1F H 0.0557 0.2242 0.2652
C6F C 0.1618(7) 0.2000(7) 0.2132(5)
H2F H 0.1341 0.1969 0.1878
C7F C 0.2052(6) 0.2455(7) 0.2137(5)
C9F C 0.2062(7) 0.2904(7) 0.1754(5)
C10F C 0.1493(7) 0.3131(7) 0.1579(5)
H4F H 0.1117 0.3005 0.1716
C11F C 0.1496(7) 0.3535(8) 0.1207(6)
H5F H 0.1122 0.3664 0.1071
C12F C 0.2045(8) 0.3747(7) 0.1038(5)
C13F C 0.2623(7) 0.3544(7) 0.1222(6)
H6F H 0.2998 0.3693 0.1099
C14F C 0.2615(7) 0.3137(7) 0.1574(6)
H7F H 0.2991 0.3004 0.1705
C15F C 0.2063(9) 0.4192(7) 0.0634(5)
O2L O 0.4359(4) -0.1549(5) 0.4510(3)
O3L O 0.4358(5) -0.2581(6) 0.4511(3)
C1L C 0.1276(7) -0.0493(7) 0.2464(5)
C3L C 0.1897(8) -0.0299(7) 0.2389(6)
H1L H 0.2242 -0.0557 0.2348
C4J C 0.1089(6) -0.1089(6) 0.2500
C5J C 0.1584(6) -0.1584(6) 0.2500
C6L C 0.2000(7) -0.1618(7) 0.2868(5)
H2L H 0.1969 -0.1341 0.3122
C7L C 0.2455(7) -0.2052(6) 0.2863(5)
C8J C 0.2479(6) -0.2479(6) 0.2500
H3J H 0.2786 -0.2786 0.2500
C9L C 0.2904(7) -0.2062(7) 0.3246(5)
C10L C 0.3131(7) -0.1493(7) 0.3421(5)
H4L H 0.3005 -0.1117 0.3284
C11L C 0.3535(8) -0.1496(7) 0.3793(6)
H5L H 0.3664 -0.1122 0.3929
C12L C 0.3747(7) -0.2045(8) 0.3962(5)
C13L C 0.3544(7) -0.2623(7) 0.3778(6)
H6L H 0.3693 -0.2998 0.3901
C14L C 0.3137(7) -0.2615(7) 0.3426(6)
H7L H 0.3004 -0.2991 0.3295
C15L C 0.4192(7) -0.2063(9) 0.4366(5)
O2J O 0.1549(5) -0.4359(4) 0.0490(3)
O3J O 0.2581(6) -0.4358(5) 0.0489(3)
N1G N 0.0000 -0.0904(7) 0.2513(5)
C1J C 0.0493(7) -0.1276(7) 0.2536(5)
C3J C 0.0299(7) -0.1897(8) 0.2611(6)
H1J H 0.0557 -0.2242 0.2652
C6J C 0.1618(7) -0.2000(7) 0.2132(5)
H2J H 0.1341 -0.1969 0.1878
C7J C 0.2052(6) -0.2455(7) 0.2137(5)
C9J C 0.2062(7) -0.2904(7) 0.1754(5)
C10J C 0.1493(7) -0.3131(7) 0.1579(5)
H4J H 0.1117 -0.3005 0.1716
C11J C 0.1496(7) -0.3535(8) 0.1207(6)
H5J H 0.1122 -0.3664 0.1071
C12J C 0.2045(8) -0.3747(7) 0.1038(5)
C13J C 0.2623(7) -0.3544(7) 0.1222(6)
H6J H 0.2998 -0.3693 0.1099
C14J C 0.2615(7) -0.3137(7) 0.1574(6)
H7J H 0.2991 -0.3004 0.1705
C15J C 0.2063(9) -0.4192(7) 0.0634(5)
O2K O -0.1549(5) 0.4359(4) 0.0490(3)
O3K O -0.2581(6) 0.4358(5) 0.0489(3)
C1K C -0.0493(7) 0.1276(7) 0.2536(5)
C3K C -0.0299(7) 0.1897(8) 0.2611(6)
H1K H -0.0557 0.2242 0.2652
C4K C -0.1089(6) 0.1089(6) 0.2500
C5K C -0.1584(6) 0.1584(6) 0.2500
C6K C -0.1618(7) 0.2000(7) 0.2132(5)
H2K H -0.1341 0.1969 0.1878
C7K C -0.2052(6) 0.2455(7) 0.2137(5)
C8K C -0.2479(6) 0.2479(6) 0.2500
H3K H -0.2786 0.2786 0.2500
C9K C -0.2062(7) 0.2904(7) 0.1754(5)
C10K C -0.1493(7) 0.3131(7) 0.1579(5)
H4K H -0.1117 0.3005 0.1716
C11K C -0.1496(7) 0.3535(8) 0.1207(6)
H5K H -0.1122 0.3664 0.1071
C12K C -0.2045(8) 0.3747(7) 0.1038(5)
C13K C -0.2623(7) 0.3544(7) 0.1222(6)
H6K H -0.2998 0.3693 0.1099
C14K C -0.2615(7) 0.3137(7) 0.1574(6)
H7K H -0.2991 0.3004 0.1705
C15K C -0.2063(9) 0.4192(7) 0.0634(5)
O2G O -0.1549(5) -0.4359(4) 0.0490(3)
O3G O -0.2581(6) -0.4358(5) 0.0489(3)
C1G C -0.0493(7) -0.1276(7) 0.2536(5)
C3G C -0.0299(7) -0.1897(8) 0.2611(6)
H1G H -0.0557 -0.2242 0.2652
C4A C -0.1089(6) -0.1089(6) 0.2500
C5A C -0.1584(6) -0.1584(6) 0.2500
C6G C -0.1618(7) -0.2000(7) 0.2132(5)
H2G H -0.1341 -0.1969 0.1878
C7G C -0.2052(6) -0.2455(7) 0.2137(5)
C8A C -0.2479(6) -0.2479(6) 0.2500
H3A H -0.2786 -0.2786 0.2500
C9G C -0.2062(7) -0.2904(7) 0.1754(5)
C10G C -0.1493(7) -0.3131(7) 0.1579(5)
H4G H -0.1117 -0.3005 0.1716
C11G C -0.1496(7) -0.3535(8) 0.1207(6)
H5G H -0.1122 -0.3664 0.1071
C12G C -0.2045(8) -0.3747(7) 0.1038(5)
C13G C -0.2623(7) -0.3544(7) 0.1222(6)
H6G H -0.2998 -0.3693 0.1099
C14G C -0.2615(7) -0.3137(7) 0.1574(6)
H7G H -0.2991 -0.3004 0.1705
C15G C -0.2063(9) -0.4192(7) 0.0634(5)
O2M O -0.4359(4) 0.1549(5) 0.4510(3)
O3M O -0.4358(5) 0.2581(6) 0.4511(3)
N1A N -0.0904(7) 0.0000 0.2487(5)
C1M C -0.1276(7) 0.0493(7) 0.2464(5)
C3M C -0.1897(8) 0.0299(7) 0.2389(6)
H1M H -0.2242 0.0557 0.2348
C6M C -0.2000(7) 0.1618(7) 0.2868(5)
H2M H -0.1969 0.1341 0.3122
C7M C -0.2455(7) 0.2052(6) 0.2863(5)
C9M C -0.2904(7) 0.2062(7) 0.3246(5)
C10M C -0.3131(7) 0.1493(7) 0.3421(5)
H4M H -0.3005 0.1117 0.3284
C11M C -0.3535(8) 0.1496(7) 0.3793(6)
H5M H -0.3664 0.1122 0.3929
C12M C -0.3747(7) 0.2045(8) 0.3962(5)
C13M C -0.3544(7) 0.2623(7) 0.3778(6)
H6M H -0.3693 0.2998 0.3901
C14M C -0.3137(7) 0.2615(7) 0.3426(6)
H7M H -0.3004 0.2991 0.3295
C15M C -0.4192(7) 0.2063(9) 0.4366(5)
O2A O -0.4359(4) -0.1549(5) 0.4510(3)
O3A O -0.4358(5) -0.2581(6) 0.4511(3)
C1A C -0.1276(7) -0.0493(7) 0.2464(5)
C3A C -0.1897(8) -0.0299(7) 0.2389(6)
H1A H -0.2242 -0.0557 0.2348
C6A C -0.2000(7) -0.1618(7) 0.2868(5)
H2A H -0.1969 -0.1341 0.3122
C7A C -0.2455(7) -0.2052(6) 0.2863(5)
C9A C -0.2904(7) -0.2062(7) 0.3246(5)
C10A C -0.3131(7) -0.1493(7) 0.3421(5)
H4A H -0.3005 -0.1117 0.3284
C11A C -0.3535(8) -0.1496(7) 0.3793(6)
H5A H -0.3664 -0.1122 0.3929
C12A C -0.3747(7) -0.2045(8) 0.3962(5)
C13A C -0.3544(7) -0.2623(7) 0.3778(6)
H6A H -0.3693 -0.2998 0.3901
C14A C -0.3137(7) -0.2615(7) 0.3426(6)
H7A H -0.3004 -0.2991 0.3295
C15A C -0.4192(7) -0.2063(9) 0.4366(5)
O4A O 0.5000 -0.0481(8) 0.5000
Co2A Co 0.5000 -0.13862(12) 0.5000
Co3A Co 0.5000 -0.27216(13) 0.5000
O5A O 0.5000 -0.3664(10) 0.5000
O1F O 0.0000 0.0000 0.3311(10)
Co2_2 Co -0.5000 0.13862(12) 0.5000
Co2A_2 Co -0.5000 -0.13862(12) 0.5000
Co2B Co -0.13862(12) -0.5000 0.0000
Co2B_2 Co -0.13862(12) 0.5000 0.0000
Co2C Co 0.13862(12) -0.5000 0.0000
Co2C_2 Co 0.13862(12) 0.5000 0.0000
Co3_2 Co -0.5000 0.27216(13) 0.5000
Co3A_2 Co -0.5000 -0.27216(13) 0.5000
Co3B Co -0.27216(13) -0.5000 0.0000
Co3B_2 Co -0.27216(13) 0.5000 0.0000
Co3C Co 0.27216(13) -0.5000 0.0000
Co3C_2 Co 0.27216(13) 0.5000 0.0000
O2A_2 O 0.5641(4) -0.1549(5) 0.4510(3)
O2D O 0.5641(4) 0.1549(5) 0.5490(3)
O2E O 0.4359(4) -0.1549(5) 0.5490(3)
O2H O 0.5641(4) -0.1549(5) 0.5490(3)
O2I O 0.4359(4) 0.1549(5) 0.5490(3)
O2M_2 O 0.5641(4) 0.1549(5) 0.4510(3)
O3A_2 O 0.5642(5) -0.2581(6) 0.4511(3)
O3D O 0.5642(5) 0.2581(6) 0.5489(3)
O3E O 0.4358(5) -0.2581(6) 0.5489(3)
O3H O 0.5642(5) -0.2581(6) 0.5489(3)
O3I O 0.4358(5) 0.2581(6) 0.5489(3)
O3M_2 O 0.5642(5) 0.2581(6) 0.4511(3)
loop_
_geom_bond_atom_site_label_1
_geom_bond_atom_site_label_2
_geom_bond_site_symmetry_1
_geom_bond_site_symmetry_2
Co1 O1 1_555 1_555
Co2 Co3 1_555 1_555
Co3 O3 1_555 1_555
O2 Co2 1_555 1_555
O3 C15 1_555 1_555
O4 Co2 1_555 1_555
O5 Co3 1_555 1_555
N1 Co1 1_555 1_555
C1 N1 1_555 1_555
C2 O4 1_555 1_555
C3 C1 1_555 1_555
H1 C3 1_555 1_555
C4 C1 1_555 1_555
C5 C4 1_555 1_555
C6 C5 1_555 1_555
H2 C6 1_555 1_555
C7 C6 1_555 1_555
C8 C7 1_555 1_555
H3 C8 1_555 1_555
C9 C7 1_555 1_555
C10 C9 1_555 1_555
H4 C10 1_555 1_555
C11 C10 1_555 1_555
H5 C11 1_555 1_555
C12 C11 1_555 1_555
C13 C12 1_555 1_555
H6 C13 1_555 1_555
C14 C9 1_555 1_555
H7 C14 1_555 1_555
C15 O2 1_555 1_555
O2F C15F 1_555 1_555
O3F C15F 1_555 1_555
N1F Co1 1_555 1_555
C1F C4 1_555 1_555
C3F C1F 1_555 1_555
H1F C3F 1_555 1_555
C6F C5 1_555 1_555
H2F C6F 1_555 1_555
C7F C8 1_555 1_555
C9F C7F 1_555 1_555
C10F C9F 1_555 1_555
H4F C10F 1_555 1_555
C11F C10F 1_555 1_555
H5F C11F 1_555 1_555
C12F C11F 1_555 1_555
C13F C12F 1_555 1_555
H6F C13F 1_555 1_555
C14F C9F 1_555 1_555
H7F C14F 1_555 1_555
C15F C12F 1_555 1_555
O2L C15L 1_555 1_555
O3L C15L 1_555 1_555
C1L N1 1_555 1_555
C3L C3 1_555 1_555
H1L C3L 1_555 1_555
C4J C1L 1_555 1_555
C5J C4J 1_555 1_555
C6L C5J 1_555 1_555
H2L C6L 1_555 1_555
C7L C6L 1_555 1_555
C8J C7L 1_555 1_555
H3J C8J 1_555 1_555
C9L C7L 1_555 1_555
C10L C9L 1_555 1_555
H4L C10L 1_555 1_555
C11L C10L 1_555 1_555
H5L C11L 1_555 1_555
C12L C11L 1_555 1_555
C13L C12L 1_555 1_555
H6L C13L 1_555 1_555
C14L C9L 1_555 1_555
H7L C14L 1_555 1_555
C15L C12L 1_555 1_555
O2J C15J 1_555 1_555
O3J C15J 1_555 1_555
N1G Co1 1_555 1_555
C1J C4J 1_555 1_555
C3J C1J 1_555 1_555
H1J C3J 1_555 1_555
C6J C5J 1_555 1_555
H2J C6J 1_555 1_555
C7J C8J 1_555 1_555
C9J C7J 1_555 1_555
C10J C9J 1_555 1_555
H4J C10J 1_555 1_555
C11J C10J 1_555 1_555
H5J C11J 1_555 1_555
C12J C11J 1_555 1_555
C13J C12J 1_555 1_555
H6J C13J 1_555 1_555
C14J C9J 1_555 1_555
H7J C14J 1_555 1_555
C15J C12J 1_555 1_555
O2K C15K 1_555 1_555
O3K C15K 1_555 1_555
C1K N1F 1_555 1_555
C3K C3F 1_555 1_555
H1K C3K 1_555 1_555
C4K C1K 1_555 1_555
C5K C4K 1_555 1_555
C6K C5K 1_555 1_555
H2K C6K 1_555 1_555
C7K C6K 1_555 1_555
C8K C7K 1_555 1_555
H3K C8K 1_555 1_555
C9K C7K 1_555 1_555
C10K C9K 1_555 1_555
H4K C10K 1_555 1_555
C11K C10K 1_555 1_555
H5K C11K 1_555 1_555
C12K C11K 1_555 1_555
C13K C12K 1_555 1_555
H6K C13K 1_555 1_555
C14K C9K 1_555 1_555
H7K C14K 1_555 1_555
C15K C12K 1_555 1_555
O2G C15G 1_555 1_555
O3G C15G 1_555 1_555
C1G N1G 1_555 1_555
C3G C3J 1_555 1_555
H1G C3G 1_555 1_555
C4A C1G 1_555 1_555
C5A C4A 1_555 1_555
C6G C5A 1_555 1_555
H2G C6G 1_555 1_555
C7G C6G 1_555 1_555
C8A C7G 1_555 1_555
H3A C8A 1_555 1_555
C9G C7G 1_555 1_555
C10G C9G 1_555 1_555
H4G C10G 1_555 1_555
C11G C10G 1_555 1_555
H5G C11G 1_555 1_555
C12G C11G 1_555 1_555
C13G C12G 1_555 1_555
H6G C13G 1_555 1_555
C14G C9G 1_555 1_555
H7G C14G 1_555 1_555
C15G C12G 1_555 1_555
O2M C15M 1_555 1_555
O3M C15M 1_555 1_555
N1A Co1 1_555 1_555
C1M C4K 1_555 1_555
C3M C1M 1_555 1_555
H1M C3M 1_555 1_555
C6M C5K 1_555 1_555
H2M C6M 1_555 1_555
C7M C8K 1_555 1_555
C9M C7M 1_555 1_555
C10M C9M 1_555 1_555
H4M C10M 1_555 1_555
C11M C10M 1_555 1_555
H5M C11M 1_555 1_555
C12M C11M 1_555 1_555
C13M C12M 1_555 1_555
H6M C13M 1_555 1_555
C14M C9M 1_555 1_555
H7M C14M 1_555 1_555
C15M C12M 1_555 1_555
O2A C15A 1_555 1_555
O3A C15A 1_555 1_555
C1A C4A 1_555 1_555
C3A C3M 1_555 1_555
H1A C3A 1_555 1_555
C6A C5A 1_555 1_555
H2A C6A 1_555 1_555
C7A C8A 1_555 1_555
C9A C7A 1_555 1_555
C10A C9A 1_555 1_555
H4A C10A 1_555 1_555
C11A C10A 1_555 1_555
H5A C11A 1_555 1_555
C12A C11A 1_555 1_555
C13A C12A 1_555 1_555
H6A C13A 1_555 1_555
C14A C9A 1_555 1_555
H7A C14A 1_555 1_555
C15A C12A 1_555 1_555
O4A C2 1_555 1_555
Co2A O2L 1_555 1_555
Co3A O3L 1_555 1_555
O5A Co3A 1_555 1_555
O1F Co1 1_555 1_555
Co2_2 O2M 1_555 1_555
Co2A_2 O2A 1_555 1_555
Co2B O2G 1_555 1_555
Co2B_2 O2K 1_555 1_555
Co2C O2J 1_555 1_555
Co2C_2 O2F 1_555 1_555
Co3_2 O3M 1_555 1_555
Co3A_2 O3A 1_555 1_555
Co3B O3G 1_555 1_555
Co3B_2 O3K 1_555 1_555
Co3C O3J 1_555 1_555
Co3C_2 O3F 1_555 1_555
O2A_2 Co2A 1_555 1_555
O2D Co2 1_555 1_555
O2E Co2A 1_555 1_555
O2H Co2A 1_555 1_555
O2I Co2 1_555 1_555
O2M_2 Co2 1_555 1_555
O3A_2 Co3A 1_555 1_555
O3D Co3 1_555 1_555
O3E Co3A 1_555 1_555
O3H Co3A 1_555 1_555
O3I Co3 1_555 1_555
O3M_2 Co3 1_555 1_555
C12 C15 1_555 1_555
C13 C14 1_555 1_555
N1F C1F 1_555 1_555
C6F C7F 1_555 1_555
C13F C14F 1_555 1_555
C1L C3L 1_555 1_555
C13L C14L 1_555 1_555
N1G C1J 1_555 1_555
C6J C7J 1_555 1_555
C13J C14J 1_555 1_555
C1K C3K 1_555 1_555
C13K C14K 1_555 1_555
C1G C3G 1_555 1_555
C13G C14G 1_555 1_555
N1A C1M 1_555 1_555
N1A C1A 1_555 1_555
C6M C7M 1_555 1_555
C13M C14M 1_555 1_555
C1A C3A 1_555 1_555
C6A C7A 1_555 1_555
C13A C14A 1_555 1_555
O4A Co2A 1_555 1_555
Co2A Co3A 1_555 1_555
Co2_2 Co3_2 1_555 1_555
Co2A_2 Co3A_2 1_555 1_555
Co2B Co3B 1_555 1_555
Co2B_2 Co3B_2 1_555 1_555
Co2C Co3C 1_555 1_555
Co2C_2 Co3C_2 1_555 1_555

#END
