
#######################################################################
#
#                 Cambridge Crystallographic Data Centre
#                                CCDC 
#
#######################################################################
#
# If this CIF has been generated from an entry in the Cambridge 
# Structural Database, then it will include bibliographic, chemical, 
# crystal, experimental, refinement or atomic coordinate data resulting 
# from the CCDC's data processing and validation procedures.
#
#######################################################################

data_POJTOY01
_symmetry_cell_setting           triclinic
_symmetry_space_group_name_H-M   'P -1'
_symmetry_Int_Tables_number      2
_space_group_name_Hall           '-P 1'
loop_
_symmetry_equiv_pos_site_id
_symmetry_equiv_pos_as_xyz
1 x,y,z
2 -x,-y,-z
_cell_length_a                   6.8865
_cell_length_b                   10.5579
_cell_length_c                   13.4662
_cell_angle_alpha                109.856
_cell_angle_beta                 88.058
_cell_angle_gamma                103.967
_cell_volume                     892.412
loop_
_atom_site_label
_atom_site_type_symbol
_atom_site_fract_x
_atom_site_fract_y
_atom_site_fract_z
Fe1 Fe 0.4692 0.4968 0.2777
Fe2 Fe 0.9734 0.4956 0.2872
O1 O 0.7250 0.4948 0.2150
O2 O 0.2163 0.5042 0.3580
O3 O 0.8830 0.6169 0.4211
O4 O 0.6094 0.6724 0.3892
O5 O 0.5325 0.3616 0.3434
O6 O 0.8229 0.3159 0.2936
O7 O 0.1047 -0.3454 0.2275
O8 O 0.4030 -0.3875 0.1996
O9 O 0.0432 0.3706 0.1399
O10 O 0.3365 0.3300 0.1573
C1 C 0.9016 0.8623 0.4632
C2 C 1.0999 0.9010 0.4963
C3 C 0.8018 0.9613 0.4670
C4 C 0.7918 0.7085 0.4222
H1 H 1.1713 0.8302 0.4936
H2 H 0.6600 0.9335 0.4433
C5 C 0.5491 0.1247 0.2866
C6 C 0.3480 0.0791 0.2966
C7 C 0.2647 -0.0595 0.2760
C8 C 0.3824 -0.1524 0.2454
C9 C 0.5835 -0.1068 0.2354
C10 C 0.6668 0.0318 0.2561
C11 C 0.6391 0.2745 0.3089
C12 C 0.2924 -0.3022 0.2231
H3 H 0.2637 0.1455 0.3184
H4 H 0.1208 -0.0922 0.2831
H5 H 0.6678 -0.1732 0.2136
H6 H 0.8107 0.0645 0.2489
C13 C 0.0745 0.1373 0.0583
C14 C -0.1226 0.0898 0.0225
C15 C 0.1970 0.0476 0.0358
C16 C 0.1554 0.2867 0.1216
H7 H -0.2103 0.1540 0.0385
H8 H 0.3380 0.0816 0.0614
Fe1A Fe 1.5308 1.5032 0.7223
Fe1_2 Fe 0.4692 -0.5032 0.2777
Fe1A_2 Fe -0.4692 -0.4968 -0.2777
Fe1_3 Fe 0.4692 1.4968 0.2777
Fe1_4 Fe 1.4692 0.4968 0.2777
Fe2_2 Fe -0.0266 0.4956 0.2872
Fe2_3 Fe -0.0266 -0.5044 0.2872
Fe2A Fe 1.0266 1.5044 0.7128
Fe2A_2 Fe 0.0266 -0.4956 -0.2872
Fe2_4 Fe 0.9734 1.4956 0.2872
O1A O 1.2750 1.5052 0.7850
O1_2 O -0.2750 0.4948 0.2150
O2_2 O 1.2163 0.5042 0.3580
O2A O 1.7837 1.4958 0.6420
O3A O 1.1170 1.3831 0.5789
O3_2 O -0.1170 0.6169 0.4211
O4A O 1.3906 1.3276 0.6108
O5_2 O 0.5325 1.3616 0.3434
O5A O 1.4675 1.6384 0.6566
O6_2 O 0.8229 1.3159 0.2936
O6_3 O -0.1771 0.3159 0.2936
O7_2 O 0.1047 0.6546 0.2275
O7_3 O 1.1047 0.6546 0.2275
O8_2 O 0.4030 0.6125 0.1996
O8A O 1.5970 1.3875 0.8004
O9A O -0.0432 -0.3706 -0.1399
O9_2 O 1.0432 0.3706 0.1399
O10A O -0.3365 -0.3300 -0.1573
O10A_2 O 1.6635 1.6700 0.8427
C1A C 1.0984 1.1377 0.5368
C2A C 0.9001 1.0990 0.5037
C3A C 1.1982 1.0387 0.5330
C4A C 1.2082 1.2915 0.5778
H1A H 0.8287 1.1698 0.5064
H2A H 1.3400 1.0665 0.5567
C5_2 C 0.5491 1.1247 0.2866
C6_2 C 0.3480 1.0791 0.2966
C7_2 C 0.2647 0.9405 0.2760
C8_2 C 0.3824 0.8476 0.2454
C9_2 C 0.5835 0.8932 0.2354
C10_2 C 0.6668 1.0318 0.2561
C11_2 C 0.6391 1.2745 0.3089
C12_2 C 0.2924 0.6978 0.2231
H3_2 H 0.2637 1.1455 0.3184
H4_2 H 0.1208 0.9078 0.2831
H5_2 H 0.6678 0.8268 0.2136
H6_2 H 0.8107 1.0645 0.2489
C13A C -0.0745 -0.1373 -0.0583
C14A C 0.1226 -0.0898 -0.0225
C15A C -0.1970 -0.0476 -0.0358
C16A C -0.1554 -0.2867 -0.1216
H7A H 0.2103 -0.1540 -0.0385
H8A H -0.3380 -0.0816 -0.0614
loop_
_geom_bond_atom_site_label_1
_geom_bond_atom_site_label_2
_geom_bond_site_symmetry_1
_geom_bond_site_symmetry_2
Fe1 O1 1_555 1_555
Fe2 O1 1_555 1_555
O2 Fe1 1_555 1_555
O3 Fe2 1_555 1_555
O4 Fe1 1_555 1_555
O5 Fe1 1_555 1_555
O6 Fe2 1_555 1_555
O7 C12 1_555 1_555
O8 C12 1_555 1_555
O9 C16 1_555 1_555
O10 Fe1 1_555 1_555
C1 C2 1_555 1_555
C2 H1 1_555 1_555
C3 C1 1_555 1_555
C4 O3 1_555 1_555
H2 C3 1_555 1_555
C5 C6 1_555 1_555
C6 C7 1_555 1_555
C7 C8 1_555 1_555
C8 C9 1_555 1_555
C9 C10 1_555 1_555
C10 C5 1_555 1_555
C11 O5 1_555 1_555
C12 C8 1_555 1_555
H3 C6 1_555 1_555
H4 C7 1_555 1_555
H5 C9 1_555 1_555
H6 C10 1_555 1_555
C13 C14 1_555 1_555
C14 H7 1_555 1_555
C15 C13 1_555 1_555
C16 O10 1_555 1_555
H8 C15 1_555 1_555
Fe1A O1A 1_555 1_555
Fe1_2 O8 1_555 1_555
Fe1A_2 O10A 1_555 1_555
Fe1_3 O5_2 1_555 1_555
Fe1_4 O2_2 1_555 1_555
Fe2_2 O2 1_555 1_555
Fe2_3 O7 1_555 1_555
Fe2A O1A 1_555 1_555
Fe2A_2 O9A 1_555 1_555
Fe2_4 O6_2 1_555 1_555
O1_2 Fe2_2 1_555 1_555
O2_2 Fe2 1_555 1_555
O2A Fe1A 1_555 1_555
O3A Fe2A 1_555 1_555
O3_2 Fe2_2 1_555 1_555
O4A Fe1A 1_555 1_555
O5_2 C11_2 1_555 1_555
O5A Fe1A 1_555 1_555
O6_2 C11_2 1_555 1_555
O6_3 Fe2_2 1_555 1_555
O7_2 Fe2_2 1_555 1_555
O7_3 Fe2 1_555 1_555
O8_2 Fe1 1_555 1_555
O8A Fe1A 1_555 1_555
O9A C16A 1_555 1_555
O9_2 Fe2 1_555 1_555
O10A C16A 1_555 1_555
O10A_2 Fe1A 1_555 1_555
C1A C2A 1_555 1_555
C2A C3 1_555 1_555
C3A C2 1_555 1_555
C4A O3A 1_555 1_555
H1A C2A 1_555 1_555
H2A C3A 1_555 1_555
C5_2 C6_2 1_555 1_555
C6_2 C7_2 1_555 1_555
C7_2 C8_2 1_555 1_555
C8_2 C9_2 1_555 1_555
C9_2 C10_2 1_555 1_555
C10_2 C5_2 1_555 1_555
C11_2 C5_2 1_555 1_555
C12_2 O7_2 1_555 1_555
H3_2 C6_2 1_555 1_555
H4_2 C7_2 1_555 1_555
H5_2 C9_2 1_555 1_555
H6_2 C10_2 1_555 1_555
C13A C14A 1_555 1_555
C14A C15 1_555 1_555
C15A C14 1_555 1_555
C16A C13A 1_555 1_555
H7A C14A 1_555 1_555
H8A C15A 1_555 1_555
O4 C4 1_555 1_555
O6 C11 1_555 1_555
O9 Fe2_2 1_555 1_555
C1 C4 1_555 1_555
C5 C11 1_555 1_555
C13 C16 1_555 1_555
O4A C4A 1_555 1_555
O8_2 C12_2 1_555 1_555
C1A C3A 1_555 1_555
C1A C4A 1_555 1_555
C8_2 C12_2 1_555 1_555
C13A C15A 1_555 1_555

#END
