
#######################################################################
#
#                 Cambridge Crystallographic Data Centre
#                                CCDC 
#
#######################################################################
#
# If this CIF has been generated from an entry in the Cambridge 
# Structural Database, then it will include bibliographic, chemical, 
# crystal, experimental, refinement or atomic coordinate data resulting 
# from the CCDC's data processing and validation procedures.
#
#######################################################################

data_POKSIT
_symmetry_cell_setting           monoclinic
_symmetry_space_group_name_H-M   'P 21/c'
_symmetry_Int_Tables_number      14
_space_group_name_Hall           '-P 2ybc'
loop_
_symmetry_equiv_pos_site_id
_symmetry_equiv_pos_as_xyz
1 x,y,z
2 -x,1/2+y,1/2-z
3 -x,-y,-z
4 x,1/2-y,1/2+z
_cell_length_a                   6.0408(8)
_cell_length_b                   23.577(3)
_cell_length_c                   13.3379(15)
_cell_angle_alpha                90
_cell_angle_beta                 112.745(5)
_cell_angle_gamma                90
_cell_volume                     1751.91
loop_
_atom_site_label
_atom_site_type_symbol
_atom_site_fract_x
_atom_site_fract_y
_atom_site_fract_z
Tm1 Tm 0.90044(4) 0.328546(10) 0.890271(19)
Cu1 Cu 0.0000 0.5000 0.5000
O1 O 0.6381(9) 0.4949(2) 0.7308(4)
O2 O 0.6147(9) 0.40043(19) 0.8602(4)
H1 H 0.4647 0.3941 0.8371
H2 H 0.6420 0.4178 0.8103
O3 O 0.2907(7) 0.52879(17) 0.6127(4)
O4 O 1.0410(10) 0.3768(2) 1.0525(5)
H3 H 0.9618 0.3868 1.0902
H4 H 1.1528 0.3548 1.0914
O5 O 0.9085(9) 0.3747(2) 0.7474(4)
O6 O 1.0083(9) 0.4387(2) 0.6502(4)
O7 O 0.9726(8) 0.25086(18) 0.8094(4)
O8 O 0.8681(9) 0.17401(17) 0.7044(4)
O9 O 0.6662(7) 0.20657(17) 0.4783(3)
O10 O 0.3123(8) 0.16262(17) 0.4312(4)
N1 N 0.2211(9) 0.44057(19) 0.4865(4)
N2 N 0.5733(10) 0.3604(2) 0.5086(5)
N3 N 0.5272(8) 0.28774(19) 0.7297(4)
N4 N 0.1838(8) 0.24348(19) 0.5401(4)
C1 C 0.3598(13) 0.3578(3) 0.4269(6)
H5 H 0.3279 0.3285 0.3766
C2 C 0.1797(13) 0.3988(3) 0.4151(5)
H6 H 0.0319 0.3963 0.3571
C3 C 0.4348(11) 0.4438(2) 0.5691(5)
C4 C 0.4623(11) 0.4921(2) 0.6459(5)
C5 C 0.6119(10) 0.4043(2) 0.5794(5)
C6 C 0.2982(10) 0.3062(2) 0.6907(5)
H7 H 0.2550 0.3358 0.7255
C7 C 0.1257(10) 0.2816(2) 0.5988(5)
H8 H -0.0342 0.2921 0.5782
C8 C 0.4169(10) 0.2300(2) 0.5724(5)
C9 C 0.5835(11) 0.2480(2) 0.6724(5)
C10 C 0.8286(10) 0.2221(2) 0.7312(4)
C11 C 0.4739(10) 0.1964(2) 0.4888(4)
C12 C 0.8643(10) 0.4073(2) 0.6667(5)
Tm1B Tm -0.90044(4) 0.671454(10) 0.109729(19)
O1B O -0.6381(9) 0.5051(2) 0.2692(4)
O2B O -0.6147(9) 0.59957(19) 0.1398(4)
H1B H -0.4647 0.6059 0.1629
H2B H -0.6420 0.5822 0.1897
O3B O -0.2907(7) 0.47121(17) 0.3873(4)
O4B O -1.0410(10) 0.6232(2) -0.0525(5)
H3B H -0.9618 0.6132 -0.0902
H4B H -1.1528 0.6452 -0.0914
O5B O -0.9085(9) 0.6253(2) 0.2526(4)
O6B O -1.0083(9) 0.5613(2) 0.3498(4)
O7B O -0.9726(8) 0.74914(18) 0.1906(4)
O8B O -0.8681(9) 0.82599(17) 0.2956(4)
O9B O -0.6662(7) 0.79343(17) 0.5217(3)
O10B O -0.3123(8) 0.83738(17) 0.5688(4)
N1B N -0.2211(9) 0.55943(19) 0.5135(4)
N2B N -0.5733(10) 0.6396(2) 0.4914(5)
N3B N -0.5272(8) 0.71226(19) 0.2703(4)
N4B N -0.1838(8) 0.75652(19) 0.4599(4)
C1B C -0.3598(13) 0.6422(3) 0.5731(6)
H5B H -0.3279 0.6715 0.6234
C2B C -0.1797(13) 0.6012(3) 0.5849(5)
H6B H -0.0319 0.6037 0.6429
C3B C -0.4348(11) 0.5562(2) 0.4309(5)
C4B C -0.4623(11) 0.5079(2) 0.3541(5)
C5B C -0.6119(10) 0.5957(2) 0.4206(5)
C6B C -0.2982(10) 0.6938(2) 0.3093(5)
H7B H -0.2550 0.6642 0.2745
C7B C -0.1257(10) 0.7184(2) 0.4012(5)
H8B H 0.0342 0.7079 0.4218
C8B C -0.4169(10) 0.7700(2) 0.4276(5)
C9B C -0.5835(11) 0.7520(2) 0.3276(5)
C10B C -0.8286(10) 0.7779(2) 0.2688(4)
C11B C -0.4739(10) 0.8036(2) 0.5112(4)
C12B C -0.8643(10) 0.5927(2) 0.3333(5)
Tm1A Tm -0.90044(4) 0.828546(10) 0.609729(19)
Tm1A_2 Tm 0.09956(4) 0.828546(10) 0.609729(19)
Tm1C Tm -0.09956(4) 0.171454(10) 0.390271(19)
Tm1C_2 Tm 0.90044(4) 0.171454(10) 0.390271(19)
Cu1_2 Cu -1.0000 0.5000 0.5000
Cu1_3 Cu 1.0000 0.5000 0.5000
O6_2 O 0.0083(9) 0.4387(2) 0.6502(4)
O6B_2 O -0.0083(9) 0.5613(2) 0.3498(4)
O9A O -0.6662(7) 0.70657(17) 0.0217(3)
O9C O 0.6662(7) 0.29343(17) 0.9783(3)
O10A O -1.3123(8) 0.66262(17) 0.0688(4)
O10C O 1.3123(8) 0.33738(17) 0.9312(4)
N4A N -1.1838(8) 0.74348(19) -0.0401(4)
N4C N 1.1838(8) 0.25652(19) 1.0401(4)
O11 O 0.266(8) 0.5002(13) 0.909(3)
O12 O 0.4896(15) 0.0965(4) 0.6755(8)
loop_
_geom_bond_atom_site_label_1
_geom_bond_atom_site_label_2
_geom_bond_site_symmetry_1
_geom_bond_site_symmetry_2
Tm1 O2 1_555 1_555
Cu1 O3 1_555 1_555
O1 C4 1_555 1_555
O2 H1 1_555 1_555
H2 O2 1_555 1_555
O3 C4 1_555 1_555
O4 Tm1 1_555 1_555
H3 O4 1_555 1_555
H4 O4 1_555 1_555
O5 Tm1 1_555 1_555
O6 C12 1_555 1_555
O7 Tm1 1_555 1_555
O8 C10 1_555 1_555
O9 C11 1_555 1_555
O10 C11 1_555 1_555
N1 Cu1 1_555 1_555
N2 C1 1_555 1_555
N3 Tm1 1_555 1_555
N4 C7 1_555 1_555
C1 H5 1_555 1_555
C2 N1 1_555 1_555
H6 C2 1_555 1_555
C3 N1 1_555 1_555
C4 C3 1_555 1_555
C5 N2 1_555 1_555
C6 N3 1_555 1_555
H7 C6 1_555 1_555
C7 C6 1_555 1_555
H8 C7 1_555 1_555
C8 N4 1_555 1_555
C9 N3 1_555 1_555
C10 O7 1_555 1_555
C11 C8 1_555 1_555
C12 O5 1_555 1_555
Tm1B O2B 1_555 1_555
O1B C4B 1_555 1_555
O2B H1B 1_555 1_555
H2B O2B 1_555 1_555
O3B Cu1 1_555 1_555
O4B Tm1B 1_555 1_555
H3B O4B 1_555 1_555
H4B O4B 1_555 1_555
O5B Tm1B 1_555 1_555
O6B C12B 1_555 1_555
O7B Tm1B 1_555 1_555
O8B C10B 1_555 1_555
O9B C11B 1_555 1_555
O10B C11B 1_555 1_555
N1B Cu1 1_555 1_555
N2B C1B 1_555 1_555
N3B Tm1B 1_555 1_555
N4B C7B 1_555 1_555
C1B H5B 1_555 1_555
C2B N1B 1_555 1_555
H6B C2B 1_555 1_555
C3B N1B 1_555 1_555
C4B O3B 1_555 1_555
C5B N2B 1_555 1_555
C6B N3B 1_555 1_555
H7B C6B 1_555 1_555
C7B C6B 1_555 1_555
H8B C7B 1_555 1_555
C8B N4B 1_555 1_555
C9B N3B 1_555 1_555
C10B O7B 1_555 1_555
C11B C8B 1_555 1_555
C12B O5B 1_555 1_555
Tm1A O9B 1_555 1_555
Tm1A_2 O10B 1_555 1_555
Tm1C O10 1_555 1_555
Tm1C_2 O9 1_555 1_555
Cu1_2 O6B 1_555 1_555
Cu1_3 O6 1_555 1_555
O6_2 Cu1 1_555 1_555
O6B_2 Cu1 1_555 1_555
O9A Tm1B 1_555 1_555
O9C Tm1 1_555 1_555
O10A Tm1B 1_555 1_555
O10C Tm1 1_555 1_555
N4A Tm1B 1_555 1_555
N4C Tm1 1_555 1_555
N4 Tm1C 1_555 1_555
C1 C2 1_555 1_555
C3 C5 1_555 1_555
C5 C12 1_555 1_555
C8 C9 1_555 1_555
C9 C10 1_555 1_555
N4B Tm1A_2 1_555 1_555
C1B C2B 1_555 1_555
C3B C4B 1_555 1_555
C3B C5B 1_555 1_555
C5B C12B 1_555 1_555
C8B C9B 1_555 1_555
C9B C10B 1_555 1_555

#END
