
#######################################################################
#
#                 Cambridge Crystallographic Data Centre
#                                CCDC 
#
#######################################################################
#
# If this CIF has been generated from an entry in the Cambridge 
# Structural Database, then it will include bibliographic, chemical, 
# crystal, experimental, refinement or atomic coordinate data resulting 
# from the CCDC's data processing and validation procedures.
#
#######################################################################

data_POMMAH
_symmetry_cell_setting           hexagonal
_symmetry_space_group_name_H-M   'P 6/m c c'
_symmetry_Int_Tables_number      192
_space_group_name_Hall           "-P 6 2'c"
loop_
_symmetry_equiv_pos_site_id
_symmetry_equiv_pos_as_xyz
1 x,y,z
2 x-y,x,z
3 -y,x-y,z
4 -x,-y,z
5 -x+y,-x,z
6 y,-x+y,z
7 x-y,-y,1/2-z
8 -x,-x+y,1/2-z
9 y,x,1/2-z
10 -y,-x,1/2-z
11 -x+y,y,1/2-z
12 x,x-y,1/2-z
13 -x,-y,-z
14 -x+y,-x,-z
15 y,-x+y,-z
16 x,y,-z
17 x-y,x,-z
18 -y,x-y,-z
19 -x+y,y,1/2+z
20 x,x-y,1/2+z
21 -y,-x,1/2+z
22 y,x,1/2+z
23 x-y,-y,1/2+z
24 -x,-x+y,1/2+z
_cell_length_a                   21.9173(4)
_cell_length_b                   21.9173(4)
_cell_length_c                   28.2685(4)
_cell_angle_alpha                90
_cell_angle_beta                 90
_cell_angle_gamma                120
_cell_volume                     11760
loop_
_atom_site_label
_atom_site_type_symbol
_atom_site_fract_x
_atom_site_fract_y
_atom_site_fract_z
In1 In 0.23073(5) 0.64358(5) 0.5000
O1 O 0.3333 0.6667 0.5000
O2 O 0.2031(4) 0.5665(4) 0.4435(2)
O3 O 0.1240(9) 0.6191(8) 0.5000
O4 O 0.2810(5) 0.5276(6) 0.4454(3)
I1 I 0.07657(8) 0.46421(9) 0.19169(5)
Cu1 Cu 0.05067(13) 0.4825(2) 0.28233(8)
C1 C 0.2303(5) 0.5320(7) 0.4283(4)
C2 C 0.1498(7) 0.5028(11) 0.3592(5)
H1 H 0.1376 0.5362 0.3705
C3 C 0.1327(13) 0.4107(13) 0.3079(9)
H2 H 0.1015 0.3753 0.2866
C4 C 0.1988(7) 0.4894(12) 0.3856(6)
N1 N 0.1213(9) 0.4669(8) 0.3178(6)
C5 C 0.2229(15) 0.4468(12) 0.3682(10)
H3 H 0.2614 0.4448 0.3820
C6 C 0.1845(17) 0.4044(16) 0.3265(12)
H4 H 0.1971 0.3724 0.3131
In1B In 0.35642(5) 0.58715(7) 0.5000
O2B O 0.4335(4) 0.6366(6) 0.4435(2)
O3B O 0.3809(8) 0.5049(12) 0.5000
O4B O 0.4724(6) 0.7534(8) 0.4454(3)
I1B I 0.53579(9) 0.61236(12) 0.19169(5)
Cu1B Cu 0.5175(2) 0.56817(24) 0.28233(8)
C1B C 0.4680(7) 0.6983(9) 0.4283(4)
C2B C 0.4972(11) 0.6470(13) 0.3592(5)
H1B H 0.4638 0.6014 0.3705
C3B C 0.5893(13) 0.7220(18) 0.3079(9)
H2B H 0.6247 0.7262 0.2866
C4B C 0.5106(12) 0.7094(14) 0.3856(6)
N1B N 0.5331(8) 0.6544(12) 0.3178(6)
C5B C 0.5532(12) 0.7761(19) 0.3682(10)
H3B H 0.5552 0.8166 0.3820
C6B C 0.5956(16) 0.7801(23) 0.3265(12)
H4B H 0.6276 0.8247 0.3131
In1D In 0.41285(7) 0.76927(5) 0.5000
O2D O 0.3634(6) 0.7969(4) 0.4435(2)
O3D O 0.4951(12) 0.8760(9) 0.5000
O4D O 0.2466(8) 0.7190(5) 0.4454(3)
I1D I 0.38764(12) 0.92343(8) 0.19169(5)
Cu1D Cu 0.43183(24) 0.94933(13) 0.28233(8)
C1D C 0.3017(9) 0.7697(5) 0.4283(4)
C2D C 0.3530(13) 0.8502(7) 0.3592(5)
H1D H 0.3986 0.8624 0.3705
C3D C 0.2780(18) 0.8673(13) 0.3079(9)
H2D H 0.2738 0.8985 0.2866
C4D C 0.2906(14) 0.8012(7) 0.3856(6)
N1D N 0.3456(12) 0.8787(9) 0.3178(6)
C5D C 0.2239(19) 0.7771(15) 0.3682(10)
H3D H 0.1834 0.7386 0.3820
C6D C 0.2199(23) 0.8155(17) 0.3265(12)
H4D H 0.1753 0.8029 0.3131
O2I O 0.4335(4) 0.7969(4) 0.0565(2)
O4I O 0.4724(6) 0.7190(5) 0.0546(3)
I1I I 0.53579(9) 0.92343(8) 0.30831(5)
Cu1I Cu 0.5175(2) 0.94933(13) 0.21767(8)
C1I C 0.4680(7) 0.7697(5) 0.0717(4)
C2I C 0.4972(11) 0.8502(7) 0.1408(5)
H1I H 0.4638 0.8624 0.1295
C3I C 0.5893(13) 0.8673(13) 0.1921(9)
H2I H 0.6247 0.8985 0.2134
C4I C 0.5106(12) 0.8012(7) 0.1144(6)
N1I N 0.5331(8) 0.8787(9) 0.1822(6)
C5I C 0.5532(12) 0.7771(15) 0.1318(10)
H3I H 0.5552 0.7386 0.1180
C6I C 0.5956(16) 0.8155(17) 0.1735(12)
H4I H 0.6276 0.8029 0.1869
O2J O 0.3634(6) 0.5665(4) 0.0565(2)
O4J O 0.2466(8) 0.5276(6) 0.0546(3)
I1J I 0.38764(12) 0.46421(9) 0.30831(5)
Cu1J Cu 0.43183(24) 0.4825(2) 0.21767(8)
C1J C 0.3017(9) 0.5320(7) 0.0717(4)
C2J C 0.3530(13) 0.5028(11) 0.1408(5)
H1J H 0.3986 0.5362 0.1295
C3J C 0.2780(18) 0.4107(13) 0.1921(9)
H2J H 0.2738 0.3753 0.2134
C4J C 0.2906(14) 0.4894(12) 0.1144(6)
N1J N 0.3456(12) 0.4669(8) 0.1822(6)
C5J C 0.2239(19) 0.4468(12) 0.1318(10)
H3J H 0.1834 0.4448 0.1180
C6J C 0.2199(23) 0.4044(16) 0.1735(12)
H4J H 0.1753 0.3724 0.1869
O2K O 0.2031(4) 0.6366(6) 0.0565(2)
O4K O 0.2810(5) 0.7534(8) 0.0546(3)
I1K I 0.07657(8) 0.61236(12) 0.30831(5)
Cu1K Cu 0.05067(13) 0.56817(24) 0.21767(8)
C1K C 0.2303(5) 0.6983(9) 0.0717(4)
C2K C 0.1498(7) 0.6470(13) 0.1408(5)
H1K H 0.1376 0.6014 0.1295
C3K C 0.1327(13) 0.7220(18) 0.1921(9)
H2K H 0.1015 0.7262 0.2134
C4K C 0.1988(7) 0.7094(14) 0.1144(6)
N1K N 0.1213(9) 0.6544(12) 0.1822(6)
C5K C 0.2229(15) 0.7761(19) 0.1318(10)
H3K H 0.2614 0.8166 0.1180
C6K C 0.1845(17) 0.7801(23) 0.1735(12)
H4K H 0.1971 0.8247 0.1869
In1I In 0.35642(5) 0.76927(5) 0.0000
In1J In 0.41285(7) 0.64358(5) 0.0000
In1K In 0.23073(5) 0.58715(7) 0.0000
O2M O 0.3634(6) 0.7969(4) 0.5565(2)
O2O O 0.2031(4) 0.5665(4) 0.5565(2)
O2Q O 0.4335(4) 0.6366(6) 0.5565(2)
O4M O 0.2466(8) 0.7190(5) 0.5546(3)
O4O O 0.2810(5) 0.5276(6) 0.5546(3)
O4Q O 0.4724(6) 0.7534(8) 0.5546(3)
I1A I 0.61236(12) 1.07657(8) 0.19169(5)
I1C I -0.07657(8) 0.53579(9) 0.19169(5)
I1E I 0.46421(9) 0.38764(12) 0.19169(5)
I1F I 0.61236(12) 0.53579(9) 0.30831(5)
I1G I -0.07657(8) 0.38764(12) 0.30831(5)
I1H I 0.46421(9) 1.07657(8) 0.30831(5)
Cu1A Cu 0.56817(24) 1.05067(13) 0.28233(8)
Cu1C Cu -0.05067(13) 0.5175(2) 0.28233(8)
Cu1E Cu 0.4825(2) 0.43183(24) 0.28233(8)
Cu1F Cu 0.56817(24) 0.5175(2) 0.21767(8)
Cu1G Cu -0.05067(13) 0.43183(24) 0.21767(8)
Cu1H Cu 0.4825(2) 1.05067(13) 0.21767(8)
loop_
_geom_bond_atom_site_label_1
_geom_bond_atom_site_label_2
_geom_bond_site_symmetry_1
_geom_bond_site_symmetry_2
In1 O1 1_555 1_555
O1 In1B 1_555 1_555
O2 In1 1_555 1_555
O3 In1 1_555 1_555
O4 C1 1_555 1_555
I1 Cu1 1_555 1_555
Cu1 N1 1_555 1_555
C1 O2 1_555 1_555
C2 H1 1_555 1_555
C3 H2 1_555 1_555
C4 C1 1_555 1_555
N1 C2 1_555 1_555
C5 C4 1_555 1_555
H3 C5 1_555 1_555
C6 C3 1_555 1_555
H4 C6 1_555 1_555
In1B O4 1_555 1_555
O2B In1B 1_555 1_555
O3B In1B 1_555 1_555
O4B C1B 1_555 1_555
I1B Cu1B 1_555 1_555
Cu1B N1B 1_555 1_555
C1B O2B 1_555 1_555
C2B H1B 1_555 1_555
C3B H2B 1_555 1_555
C4B C1B 1_555 1_555
N1B C2B 1_555 1_555
C5B C4B 1_555 1_555
H3B C5B 1_555 1_555
C6B C3B 1_555 1_555
H4B C6B 1_555 1_555
In1D O1 1_555 1_555
O2D In1D 1_555 1_555
O3D In1D 1_555 1_555
O4D In1 1_555 1_555
I1D Cu1D 1_555 1_555
Cu1D N1D 1_555 1_555
C1D O2D 1_555 1_555
C2D H1D 1_555 1_555
C3D H2D 1_555 1_555
C4D C1D 1_555 1_555
N1D C2D 1_555 1_555
C5D C4D 1_555 1_555
H3D C5D 1_555 1_555
C6D C3D 1_555 1_555
H4D C6D 1_555 1_555
O2I C1I 1_555 1_555
O4I C1I 1_555 1_555
I1I Cu1D 1_555 1_555
Cu1I I1D 1_555 1_555
C1I C4I 1_555 1_555
C2I H1I 1_555 1_555
C3I H2I 1_555 1_555
C4I C2I 1_555 1_555
N1I Cu1I 1_555 1_555
C5I C4I 1_555 1_555
H3I C5I 1_555 1_555
C6I C3I 1_555 1_555
H4I C6I 1_555 1_555
O2J C1J 1_555 1_555
O4J C1J 1_555 1_555
I1J Cu1B 1_555 1_555
Cu1J I1B 1_555 1_555
C1J C4J 1_555 1_555
C2J H1J 1_555 1_555
C3J H2J 1_555 1_555
C4J C2J 1_555 1_555
N1J Cu1J 1_555 1_555
C5J C4J 1_555 1_555
H3J C5J 1_555 1_555
C6J C3J 1_555 1_555
H4J C6J 1_555 1_555
O2K C1K 1_555 1_555
O4K C1K 1_555 1_555
I1K Cu1 1_555 1_555
Cu1K I1 1_555 1_555
C1K C4K 1_555 1_555
C2K H1K 1_555 1_555
C3K H2K 1_555 1_555
C4K C2K 1_555 1_555
N1K Cu1K 1_555 1_555
C5K C4K 1_555 1_555
H3K C5K 1_555 1_555
C6K C3K 1_555 1_555
H4K C6K 1_555 1_555
In1I O2I 1_555 1_555
In1J O4I 1_555 1_555
In1K O4J 1_555 1_555
O2M In1D 1_555 1_555
O2O In1 1_555 1_555
O2Q In1B 1_555 1_555
O4M In1 1_555 1_555
O4O In1B 1_555 1_555
O4Q In1D 1_555 1_555
I1A Cu1I 1_555 1_555
I1C Cu1K 1_555 1_555
I1E Cu1J 1_555 1_555
I1F Cu1B 1_555 1_555
I1G Cu1 1_555 1_555
I1H Cu1D 1_555 1_555
Cu1A I1I 1_555 1_555
Cu1C I1K 1_555 1_555
Cu1E I1J 1_555 1_555
Cu1F I1B 1_555 1_555
Cu1G I1 1_555 1_555
Cu1H I1D 1_555 1_555
C2 C4 1_555 1_555
C3 N1 1_555 1_555
C5 C6 1_555 1_555
O4B In1D 1_555 1_555
C2B C4B 1_555 1_555
C3B N1B 1_555 1_555
C5B C6B 1_555 1_555
O4D C1D 1_555 1_555
C2D C4D 1_555 1_555
C3D N1D 1_555 1_555
C5D C6D 1_555 1_555
I1I Cu1I 1_555 1_555
C2I N1I 1_555 1_555
C3I N1I 1_555 1_555
C5I C6I 1_555 1_555
O2J In1J 1_555 1_555
I1J Cu1J 1_555 1_555
C2J N1J 1_555 1_555
C3J N1J 1_555 1_555
C5J C6J 1_555 1_555
O2K In1K 1_555 1_555
O4K In1I 1_555 1_555
I1K Cu1K 1_555 1_555
C2K N1K 1_555 1_555
C3K N1K 1_555 1_555
C5K C6K 1_555 1_555
I1A Cu1A 1_555 1_555
I1A Cu1H 1_555 1_555
I1C Cu1C 1_555 1_555
I1C Cu1G 1_555 1_555
I1E Cu1E 1_555 1_555
I1E Cu1F 1_555 1_555
I1F Cu1E 1_555 1_555
I1F Cu1F 1_555 1_555
I1G Cu1C 1_555 1_555
I1G Cu1G 1_555 1_555
I1H Cu1A 1_555 1_555
I1H Cu1H 1_555 1_555

#END
