
#######################################################################
#
#                 Cambridge Crystallographic Data Centre
#                                CCDC 
#
#######################################################################
#
# If this CIF has been generated from an entry in the Cambridge 
# Structural Database, then it will include bibliographic, chemical, 
# crystal, experimental, refinement or atomic coordinate data resulting 
# from the CCDC's data processing and validation procedures.
#
#######################################################################

data_POSFOU
_symmetry_cell_setting           tetragonal
_symmetry_space_group_name_H-M   'P -4 n 2'
_symmetry_Int_Tables_number      118
_space_group_name_Hall           'P -4 -2n'
loop_
_symmetry_equiv_pos_site_id
_symmetry_equiv_pos_as_xyz
1 x,y,z
2 -x,-y,z
3 y,-x,-z
4 -y,x,-z
5 1/2+x,1/2-y,1/2+z
6 1/2-x,1/2+y,1/2+z
7 1/2+y,1/2+x,1/2-z
8 1/2-y,1/2-x,1/2-z
_cell_length_a                   10.1459(3)
_cell_length_b                   10.1459(3)
_cell_length_c                   23.8634(17)
_cell_angle_alpha                90
_cell_angle_beta                 90
_cell_angle_gamma                90
_cell_volume                     2456.48
loop_
_atom_site_label
_atom_site_type_symbol
_atom_site_fract_x
_atom_site_fract_y
_atom_site_fract_z
Cd1 Cd 1.0000 1.0000 0.0000
Cd2 Cd 0.0000 0.5000 0.2500
C1 C 0.4147(5) 0.7220(5) 0.10798(18)
C2 C 0.4240(5) 0.7853(6) 0.0579(2)
H1 H 0.3489 0.7959 0.0360
C3 C 0.5441(5) 0.8344(7) 0.0390(2)
H2 H 0.5479 0.8809 0.0054
C4 C 0.6576(4) 0.8144(5) 0.06974(15)
C5 C 0.6482(5) 0.7440(8) 0.1192(2)
H3 H 0.7240 0.7258 0.1397
C6 C 0.5275(6) 0.7004(8) 0.1385(3)
H4 H 0.5224 0.6560 0.1725
C7 C 0.2859(4) 0.6798(5) 0.12991(17)
C8 C 0.2506(5) 0.6217(5) 0.18001(19)
H5 H 0.3093 0.5967 0.2080
C9 C 0.0712(4) 0.6545(5) 0.13579(18)
H6 H -0.0176 0.6566 0.1263
C10 C 0.7848(4) 0.8733(4) 0.05084(17)
N1 N 0.1169(4) 0.6063(4) 0.18263(14)
N2 N 0.1680(4) 0.7005(4) 0.10324(14)
H7 H 0.1581 0.7369 0.0710
O1 O 0.7976(3) 0.9008(3) -0.00020(11)
O2 O 0.8744(3) 0.8962(4) 0.08512(11)
O3 O 0.1700(3) 0.3300(3) 0.2500
C1A C -0.4147(5) 0.2780(5) 0.10798(18)
C2A C -0.4240(5) 0.2147(6) 0.0579(2)
H1A H -0.3489 0.2041 0.0360
C3A C -0.5441(5) 0.1656(7) 0.0390(2)
H2A H -0.5479 0.1191 0.0054
C4A C -0.6576(4) 0.1856(5) 0.06974(15)
C5A C -0.6482(5) 0.2560(8) 0.1192(2)
H3A H -0.7240 0.2742 0.1397
C6A C -0.5275(6) 0.2996(8) 0.1385(3)
H4A H -0.5224 0.3440 0.1725
C7A C -0.2859(4) 0.3202(5) 0.12991(17)
C8A C -0.2506(5) 0.3783(5) 0.18001(19)
H5A H -0.3093 0.4033 0.2080
C9A C -0.0712(4) 0.3455(5) 0.13579(18)
H6A H 0.0176 0.3434 0.1263
C10A C -0.7848(4) 0.1267(4) 0.05084(17)
N1A N -0.1169(4) 0.3937(4) 0.18263(14)
N2A N -0.1680(4) 0.2995(4) 0.10324(14)
H7A H -0.1581 0.2631 0.0710
O1A O -0.7976(3) 0.0992(3) -0.00020(11)
O2A O -0.8744(3) 0.1038(4) 0.08512(11)
O3A O -0.1700(3) 0.6700(3) 0.2500
C1B C 0.7220(5) 1.5853(5) -0.10798(18)
C2B C 0.7853(6) 1.5760(5) -0.0579(2)
H1B H 0.7959 1.6511 -0.0360
C3B C 0.8344(7) 1.4559(5) -0.0390(2)
H2B H 0.8809 1.4521 -0.0054
C4B C 0.8144(5) 1.3424(4) -0.06974(15)
C5B C 0.7440(8) 1.3518(5) -0.1192(2)
H3B H 0.7258 1.2760 -0.1397
C6B C 0.7004(8) 1.4725(6) -0.1385(3)
H4B H 0.6560 1.4776 -0.1725
C7B C 0.6798(5) 1.7141(4) -0.12991(17)
C8B C 0.6217(5) 1.7494(5) -0.18001(19)
H5B H 0.5967 1.6907 -0.2080
C9B C 0.6545(5) 1.9288(4) -0.13579(18)
H6B H 0.6566 2.0176 -0.1263
C10B C 0.8733(4) 1.2152(4) -0.05084(17)
N1B N 0.6063(4) 1.8831(4) -0.18263(14)
N2B N 0.7005(4) 1.8320(4) -0.10324(14)
H7B H 0.7369 1.8419 -0.0710
O1B O 0.9008(3) 1.2024(3) 0.00020(11)
O2B O 0.8962(4) 1.1256(3) -0.08512(11)
C1C C 1.2780(5) 0.4147(5) -0.10798(18)
C2C C 1.2147(6) 0.4240(5) -0.0579(2)
H1C H 1.2041 0.3489 -0.0360
C3C C 1.1656(7) 0.5441(5) -0.0390(2)
H2C H 1.1191 0.5479 -0.0054
C4C C 1.1856(5) 0.6576(4) -0.06974(15)
C5C C 1.2560(8) 0.6482(5) -0.1192(2)
H3C H 1.2742 0.7240 -0.1397
C6C C 1.2996(8) 0.5275(6) -0.1385(3)
H4C H 1.3440 0.5224 -0.1725
C7C C 1.3202(5) 0.2859(4) -0.12991(17)
C8C C 1.3783(5) 0.2506(5) -0.18001(19)
H5C H 1.4033 0.3093 -0.2080
C9C C 1.3455(5) 0.0712(4) -0.13579(18)
H6C H 1.3434 -0.0176 -0.1263
C10C C 1.1267(4) 0.7848(4) -0.05084(17)
N1C N 1.3937(4) 0.1169(4) -0.18263(14)
N2C N 1.2995(4) 0.1680(4) -0.10324(14)
H7C H 1.2631 0.1581 -0.0710
O1C O 1.0992(3) 0.7976(3) 0.00020(11)
O2C O 1.1038(4) 0.8744(3) -0.08512(11)
Cd1_2 Cd -1.0000 0.0000 0.0000
Cd2B Cd 0.5000 2.0000 -0.2500
Cd2B_2 Cd 1.5000 0.0000 -0.2500
N1F N 0.1063(4) 0.6169(4) 0.31737(14)
N1G N -0.1063(4) 0.3831(4) 0.31737(14)
O1A_2 O 1.2024(3) 1.0992(3) -0.00020(11)
O2A_2 O 1.1256(3) 1.1038(4) 0.08512(11)
O4 O 0.8763(5) 0.9256(5) 0.20227(16)
H8 H 0.8189 0.8690 0.1992
H9 H 0.9531 0.9005 0.2014
loop_
_geom_bond_atom_site_label_1
_geom_bond_atom_site_label_2
_geom_bond_site_symmetry_1
_geom_bond_site_symmetry_2
Cd1 O1 1_555 1_555
Cd2 N1 1_555 1_555
C1 C2 1_555 1_555
C2 H1 1_555 1_555
C3 C2 1_555 1_555
H2 C3 1_555 1_555
C4 C3 1_555 1_555
C5 C4 1_555 1_555
H3 C5 1_555 1_555
C6 C1 1_555 1_555
H4 C6 1_555 1_555
C7 C1 1_555 1_555
C8 C7 1_555 1_555
H5 C8 1_555 1_555
C9 H6 1_555 1_555
C10 C4 1_555 1_555
N1 C8 1_555 1_555
N2 C7 1_555 1_555
H7 N2 1_555 1_555
O1 C10 1_555 1_555
O2 Cd1 1_555 1_555
O3 Cd2 1_555 1_555
O4 H8 1_555 1_555
H9 O4 1_555 1_555
C1A C2A 1_555 1_555
C2A H1A 1_555 1_555
C3A C2A 1_555 1_555
H2A C3A 1_555 1_555
C4A C3A 1_555 1_555
C5A C4A 1_555 1_555
H3A C5A 1_555 1_555
C6A C1A 1_555 1_555
H4A C6A 1_555 1_555
C7A C1A 1_555 1_555
C8A C7A 1_555 1_555
H5A C8A 1_555 1_555
C9A H6A 1_555 1_555
C10A C4A 1_555 1_555
N1A Cd2 1_555 1_555
N2A C7A 1_555 1_555
H7A N2A 1_555 1_555
O1A C10A 1_555 1_555
O2A C10A 1_555 1_555
O3A Cd2 1_555 1_555
C1B C2B 1_555 1_555
C2B H1B 1_555 1_555
C3B C2B 1_555 1_555
H2B C3B 1_555 1_555
C4B C3B 1_555 1_555
C5B C4B 1_555 1_555
H3B C5B 1_555 1_555
C6B C1B 1_555 1_555
H4B C6B 1_555 1_555
C7B C1B 1_555 1_555
C8B C7B 1_555 1_555
H5B C8B 1_555 1_555
C9B H6B 1_555 1_555
C10B C4B 1_555 1_555
N1B C8B 1_555 1_555
N2B C7B 1_555 1_555
H7B N2B 1_555 1_555
O1B Cd1 1_555 1_555
O2B Cd1 1_555 1_555
C1C C2C 1_555 1_555
C2C H1C 1_555 1_555
C3C C2C 1_555 1_555
H2C C3C 1_555 1_555
C4C C3C 1_555 1_555
C5C C4C 1_555 1_555
H3C C5C 1_555 1_555
C6C C1C 1_555 1_555
H4C C6C 1_555 1_555
C7C C1C 1_555 1_555
C8C C7C 1_555 1_555
H5C C8C 1_555 1_555
C9C H6C 1_555 1_555
C10C C4C 1_555 1_555
N1C C8C 1_555 1_555
N2C C7C 1_555 1_555
H7C N2C 1_555 1_555
O1C Cd1 1_555 1_555
O2C Cd1 1_555 1_555
Cd1_2 O1A 1_555 1_555
Cd2B N1B 1_555 1_555
Cd2B_2 N1C 1_555 1_555
N1F Cd2 1_555 1_555
N1G Cd2 1_555 1_555
O1A_2 Cd1 1_555 1_555
O2A_2 Cd1 1_555 1_555
C5 C6 1_555 1_555
C9 N1 1_555 1_555
C9 N2 1_555 1_555
C10 O2 1_555 1_555
C5A C6A 1_555 1_555
C8A N1A 1_555 1_555
C9A N1A 1_555 1_555
C9A N2A 1_555 1_555
O2A Cd1_2 1_555 1_555
C5B C6B 1_555 1_555
C9B N1B 1_555 1_555
C9B N2B 1_555 1_555
C10B O1B 1_555 1_555
C10B O2B 1_555 1_555
C5C C6C 1_555 1_555
C9C N1C 1_555 1_555
C9C N2C 1_555 1_555
C10C O1C 1_555 1_555
C10C O2C 1_555 1_555

#END
