
#######################################################################
#
#                 Cambridge Crystallographic Data Centre
#                                CCDC 
#
#######################################################################
#
# If this CIF has been generated from an entry in the Cambridge 
# Structural Database, then it will include bibliographic, chemical, 
# crystal, experimental, refinement or atomic coordinate data resulting 
# from the CCDC's data processing and validation procedures.
#
#######################################################################

data_POXHER
_symmetry_cell_setting           cubic
_symmetry_space_group_name_H-M   'P 41 3 2'
_symmetry_Int_Tables_number      213
_space_group_name_Hall           'P 4bd 2ab 3'
loop_
_symmetry_equiv_pos_site_id
_symmetry_equiv_pos_as_xyz
1 x,y,z
2 1/2-x,-y,1/2+z
3 -x,1/2+y,1/2-z
4 1/2+x,1/2-y,-z
5 z,x,y
6 1/2+z,1/2-x,-y
7 1/2-z,-x,1/2+y
8 -z,1/2+x,1/2-y
9 y,z,x
10 -y,1/2+z,1/2-x
11 1/2+y,1/2-z,-x
12 1/2-y,-z,1/2+x
13 3/4+y,1/4+x,1/4-z
14 3/4-y,3/4-x,3/4-z
15 1/4+y,1/4-x,3/4+z
16 1/4-y,3/4+x,1/4+z
17 3/4+x,1/4+z,1/4-y
18 1/4-x,3/4+z,1/4+y
19 3/4-x,3/4-z,3/4-y
20 1/4+x,1/4-z,3/4+y
21 3/4+z,1/4+y,1/4-x
22 1/4+z,1/4-y,3/4+x
23 1/4-z,3/4+y,1/4+x
24 3/4-z,3/4-y,3/4-x
_cell_length_a                   33.8846(1)
_cell_length_b                   33.8846(1)
_cell_length_c                   33.8846(1)
_cell_angle_alpha                90
_cell_angle_beta                 90
_cell_angle_gamma                90
_cell_volume                     38905.1
loop_
_atom_site_label
_atom_site_type_symbol
_atom_site_fract_x
_atom_site_fract_y
_atom_site_fract_z
Co1 Co 0.89615(3) 0.12447(3) 1.01996(3)
Co2 Co 0.89025(3) 0.14025(3) 1.1250
Co3 Co 0.89085(3) 0.40521(3) 1.03688(3)
Co4 Co 0.96490(5) 0.46490(5) 1.03510(5)
N1 N 0.90377(18) 0.34954(18) 1.04863(19)
N2 N 0.93848(19) 0.34407(17) 1.0698(2)
N3 N 0.89812(19) 0.18205(17) 1.08422(18)
N4 N 0.90397(17) 0.17671(16) 1.04501(18)
N5 N 0.90170(17) 0.08900(17) 1.09972(19)
N6 N 0.90662(18) 0.08322(17) 1.05933(19)
N7 N 0.97565(18) -0.06445(16) 1.11614(19)
N8 N 0.9407(2) -0.0768(2) 1.1039(4)
H1 H 0.9341 -0.1012 1.1024
C1 C 0.8508(4) 0.3084(3) 1.0182(4)
H2 H 0.8300 0.3220 1.0319
H3 H 0.8448 0.2808 1.0169
H4 H 0.8531 0.3188 0.9919
C2 C 0.8897(2) 0.3144(2) 1.0402(3)
C3 C 0.9132(3) 0.2842(2) 1.0555(2)
C4 C 0.9436(3) 0.3044(2) 1.0736(3)
C5 C 0.9804(3) 0.2879(3) 1.0928(4)
H5 H 0.9901 0.2662 1.0774
H6 H 0.9742 0.2789 1.1189
H7 H 1.0002 0.3081 1.0943
C6 C 0.8952(4) 0.2352(2) 1.1327(3)
H8 H 0.8760 0.2195 1.1464
H9 H 0.8866 0.2622 1.1322
H10 H 0.9201 0.2335 1.1462
C7 C 0.8996(3) 0.2207(2) 1.0922(2)
C8 C 0.9083(2) 0.2418(2) 1.0587(2)
C9 C 0.9093(3) 0.2128(2) 1.0284(2)
C10 C 0.9173(4) 0.2169(3) 0.9860(3)
H11 H 0.9319 0.1944 0.9770
H12 H 0.9323 0.2405 0.9815
H13 H 0.8927 0.2185 0.9720
C11 C 0.9092(4) 0.0520(3) 1.1625(3)
H14 H 0.9329 0.0622 1.1740
H15 H 0.9062 0.0247 1.1694
H16 H 0.8869 0.0666 1.1721
C12 C 0.9113(2) 0.0558(2) 1.1189(2)
C13 C 0.9237(2) 0.0273(2) 1.0915(2)
C14 C 0.9198(2) 0.0459(2) 1.0562(2)
C15 C 0.9265(4) 0.0282(3) 1.0147(3)
H17 H 0.9052 0.0359 0.9976
H18 H 0.9273 -0.0001 1.0165
H19 H 0.9510 0.0377 1.0042
C16 C 1.0073(3) -0.0009(3) 1.1289(5)
H20 H 1.0289 -0.0179 1.1358
H21 H 0.9987 0.0132 1.1519
H22 H 1.0157 0.0175 1.1091
C17 C 0.9739(2) -0.02520(19) 1.1132(2)
C18 C 0.9374(2) -0.0131(2) 1.0999(3)
C19 C 0.9174(3) -0.0476(3) 1.0944(4)
C20 C 0.8790(4) -0.0538(4) 1.0727(6)
H23 H 0.8720 -0.0812 1.0734
H24 H 0.8819 -0.0455 1.0457
H25 H 0.8586 -0.0385 1.0850
C21 C 0.9130(6) 0.4355(6) 0.9657(3)
C22 C 0.9072(5) 0.4391(4) 0.9207(3)
C23 C 0.9374(5) 0.4551(5) 0.8981(4)
H26 H 0.9607 0.4635 0.9098
C24 C 0.9319(6) 0.4582(5) 0.8574(4)
H27 H 0.9522 0.4689 0.8424
C25 C 0.8975(5) 0.4462(5) 0.8379(4)
C26 C 0.8684(5) 0.4305(5) 0.8617(3)
H28 H 0.8450 0.4221 0.8500
C27 C 0.8724(5) 0.4266(5) 0.9031(3)
H29 H 0.8521 0.4159 0.9181
C28 C 0.8880(5) 0.4520(4) 0.7991(3)
C29 C 0.8981(5) 0.4234(4) 0.7719(3)
H30 H 0.9063 0.3993 0.7822
C30 C 0.8974(5) 0.4264(4) 0.7312(3)
H31 H 0.9048 0.4052 0.7154
C31 C 0.8854(5) 0.4616(4) 0.7145(4)
C32 C 0.8748(5) 0.4917(4) 0.7392(3)
H32 H 0.8665 0.5159 0.7293
C33 C 0.8768(5) 0.4850(4) 0.7794(3)
H33 H 0.8695 0.5062 0.7952
C34 C 0.8894(2) 0.4716(3) 0.6721(3)
O1 O 0.8908(3) 0.4159(3) 0.9820(2)
O2 O 0.9443(4) 0.4562(4) 0.9831(3)
O3 O 0.8777(3) 0.4999(2) 0.65686(16)
O4 O 0.9061(4) 0.4490(4) 0.6518(3)
O5 O 0.93250(12) 0.43250(12) 1.06750(12)
Co1D Co 1.01996(3) -0.10385(3) 1.12447(3)
Co2D Co 1.1250 -0.10975(3) 1.14025(3)
Co3D Co 1.03688(3) -0.10915(3) 1.40521(3)
Co4B Co 1.03510(5) -0.03510(5) 1.46490(5)
N1D N 1.04863(19) -0.09623(18) 1.34954(18)
N2D N 1.0698(2) -0.06152(19) 1.34407(17)
N3D N 1.08422(18) -0.10188(19) 1.18205(17)
N4D N 1.04501(18) -0.09603(17) 1.17671(16)
N5D N 1.09972(19) -0.09830(17) 1.08900(17)
N6D N 1.05933(19) -0.09338(18) 1.08322(17)
N7D N 1.11614(19) -0.02435(18) 0.93555(16)
N8D N 1.1039(4) -0.0593(2) 0.9232(2)
H1D H 1.1024 -0.0659 0.8988
C1D C 1.0182(4) -0.1492(4) 1.3084(3)
H2D H 1.0319 -0.1700 1.3220
H3D H 1.0169 -0.1552 1.2808
H4D H 0.9919 -0.1469 1.3188
C2D C 1.0402(3) -0.1103(2) 1.3144(2)
C3D C 1.0555(2) -0.0868(3) 1.2842(2)
C4D C 1.0736(3) -0.0564(3) 1.3044(2)
C5D C 1.0928(4) -0.0196(3) 1.2879(3)
H5D H 1.0774 -0.0099 1.2662
H6D H 1.1189 -0.0258 1.2789
H7D H 1.0943 0.0002 1.3081
C6D C 1.1327(3) -0.1048(4) 1.2352(2)
H8D H 1.1464 -0.1240 1.2195
H9D H 1.1322 -0.1134 1.2622
H10D H 1.1462 -0.0799 1.2335
C7D C 1.0922(2) -0.1004(3) 1.2207(2)
C8D C 1.0587(2) -0.0917(2) 1.2418(2)
C9D C 1.0284(2) -0.0907(3) 1.2128(2)
C10D C 0.9860(3) -0.0827(4) 1.2169(3)
H11D H 0.9770 -0.0681 1.1944
H12D H 0.9815 -0.0677 1.2405
H13D H 0.9720 -0.1073 1.2185
C11D C 1.1625(3) -0.0908(4) 1.0520(3)
H14D H 1.1740 -0.0671 1.0622
H15D H 1.1694 -0.0938 1.0247
H16D H 1.1721 -0.1131 1.0666
C12D C 1.1189(2) -0.0887(2) 1.0558(2)
C13D C 1.0915(2) -0.0763(2) 1.0273(2)
C14D C 1.0562(2) -0.0802(2) 1.0459(2)
C15D C 1.0147(3) -0.0735(4) 1.0282(3)
H17D H 0.9976 -0.0948 1.0359
H18D H 1.0165 -0.0727 0.9999
H19D H 1.0042 -0.0490 1.0377
C16D C 1.1289(5) 0.0073(3) 0.9991(3)
H20D H 1.1358 0.0289 0.9821
H21D H 1.1519 -0.0013 1.0132
H22D H 1.1091 0.0157 1.0175
C17D C 1.1132(2) -0.0261(2) 0.97480(19)
C18D C 1.0999(3) -0.0626(2) 0.9869(2)
C19D C 1.0944(4) -0.0826(3) 0.9524(3)
C20D C 1.0727(6) -0.1210(4) 0.9462(4)
H23D H 1.0734 -0.1280 0.9188
H24D H 1.0457 -0.1181 0.9545
H25D H 1.0850 -0.1414 0.9615
C21D C 0.9657(3) -0.0870(6) 1.4355(6)
C22D C 0.9207(3) -0.0928(5) 1.4391(4)
C23D C 0.8981(4) -0.0626(5) 1.4551(5)
H26D H 0.9098 -0.0393 1.4635
C24D C 0.8574(4) -0.0681(6) 1.4582(5)
H27D H 0.8424 -0.0478 1.4689
C25D C 0.8379(4) -0.1025(5) 1.4462(5)
C26D C 0.8617(3) -0.1316(5) 1.4305(5)
H28D H 0.8500 -0.1550 1.4221
C27D C 0.9031(3) -0.1276(5) 1.4266(5)
H29D H 0.9181 -0.1479 1.4159
C28D C 0.7991(3) -0.1120(5) 1.4520(4)
C29D C 0.7719(3) -0.1019(5) 1.4234(4)
H30D H 0.7822 -0.0937 1.3993
C30D C 0.7312(3) -0.1026(5) 1.4264(4)
H31D H 0.7154 -0.0952 1.4052
C31D C 0.7145(4) -0.1146(5) 1.4616(4)
C32D C 0.7392(3) -0.1252(5) 1.4917(4)
H32D H 0.7293 -0.1335 1.5159
C33D C 0.7794(3) -0.1232(5) 1.4850(4)
H33D H 0.7952 -0.1305 1.5062
C34D C 0.6721(3) -0.1106(2) 1.4716(3)
O1D O 0.9820(2) -0.1092(3) 1.4159(3)
O2D O 0.9831(3) -0.0557(4) 1.4562(4)
O3D O 0.65686(16) -0.1223(3) 1.4999(2)
O4D O 0.6518(3) -0.0939(4) 1.4490(4)
O5B O 1.06750(12) -0.06750(12) 1.43250(12)
Co1F Co 0.48004(3) 0.10385(3) 0.62447(3)
Co2F Co 0.3750 0.10975(3) 0.64025(3)
Co3F Co 0.46312(3) 0.10915(3) 0.90521(3)
N1F N 0.45137(19) 0.09623(18) 0.84954(18)
N2F N 0.4302(2) 0.06152(19) 0.84407(17)
N3F N 0.41578(18) 0.10188(19) 0.68205(17)
N4F N 0.45499(18) 0.09603(17) 0.67671(16)
N5F N 0.40028(19) 0.09830(17) 0.58900(17)
N6F N 0.44067(19) 0.09338(18) 0.58322(17)
N7F N 0.38386(19) 0.02435(18) 0.43555(16)
N8F N 0.3961(4) 0.0593(2) 0.4232(2)
H1F H 0.3976 0.0659 0.3988
C1F C 0.4818(4) 0.1492(4) 0.8084(3)
H2F H 0.4681 0.1700 0.8220
H3F H 0.4831 0.1552 0.7808
H4F H 0.5081 0.1469 0.8188
C2F C 0.4598(3) 0.1103(2) 0.8144(2)
C3F C 0.4445(2) 0.0868(3) 0.7842(2)
C4F C 0.4264(3) 0.0564(3) 0.8044(2)
C5F C 0.4072(4) 0.0196(3) 0.7879(3)
H5F H 0.4226 0.0099 0.7662
H6F H 0.3811 0.0258 0.7789
H7F H 0.4057 -0.0002 0.8081
C6F C 0.3673(3) 0.1048(4) 0.7352(2)
H8F H 0.3536 0.1240 0.7195
H9F H 0.3678 0.1134 0.7622
H10F H 0.3538 0.0799 0.7335
C7F C 0.4078(2) 0.1004(3) 0.7207(2)
C8F C 0.4413(2) 0.0917(2) 0.7418(2)
C9F C 0.4716(2) 0.0907(3) 0.7128(2)
C10F C 0.5140(3) 0.0827(4) 0.7169(3)
H11F H 0.5230 0.0681 0.6944
H12F H 0.5185 0.0677 0.7405
H13F H 0.5280 0.1073 0.7185
C11F C 0.3375(3) 0.0908(4) 0.5520(3)
H14F H 0.3260 0.0671 0.5622
H15F H 0.3306 0.0938 0.5247
H16F H 0.3279 0.1131 0.5666
C12F C 0.3811(2) 0.0887(2) 0.5558(2)
C13F C 0.4085(2) 0.0763(2) 0.5273(2)
C14F C 0.4438(2) 0.0802(2) 0.5459(2)
C15F C 0.4853(3) 0.0735(4) 0.5282(3)
H17F H 0.5024 0.0948 0.5359
H18F H 0.4835 0.0727 0.4999
H19F H 0.4958 0.0490 0.5377
C16F C 0.3711(5) -0.0073(3) 0.4991(3)
H20F H 0.3642 -0.0289 0.4821
H21F H 0.3481 0.0013 0.5132
H22F H 0.3909 -0.0157 0.5175
C17F C 0.3868(2) 0.0261(2) 0.47480(19)
C18F C 0.4001(3) 0.0626(2) 0.4869(2)
C19F C 0.4056(4) 0.0826(3) 0.4524(3)
C20F C 0.4273(6) 0.1210(4) 0.4462(4)
H23F H 0.4266 0.1280 0.4188
H24F H 0.4543 0.1181 0.4545
H25F H 0.4150 0.1414 0.4615
C21F C 0.5343(3) 0.0870(6) 0.9355(6)
C22F C 0.5793(3) 0.0928(5) 0.9391(4)
C23F C 0.6019(4) 0.0626(5) 0.9551(5)
H26F H 0.5902 0.0393 0.9635
C24F C 0.6426(4) 0.0681(6) 0.9582(5)
H27F H 0.6576 0.0478 0.9689
C25F C 0.6621(4) 0.1025(5) 0.9462(5)
C26F C 0.6383(3) 0.1316(5) 0.9305(5)
H28F H 0.6500 0.1550 0.9221
C27F C 0.5969(3) 0.1276(5) 0.9266(5)
H29F H 0.5819 0.1479 0.9159
C28F C 0.7009(3) 0.1120(5) 0.9520(4)
C29F C 0.7281(3) 0.1019(5) 0.9234(4)
H30F H 0.7178 0.0937 0.8993
C30F C 0.7688(3) 0.1026(5) 0.9264(4)
H31F H 0.7846 0.0952 0.9052
C31F C 0.7855(4) 0.1146(5) 0.9616(4)
C32F C 0.7608(3) 0.1252(5) 0.9917(4)
H32F H 0.7707 0.1335 1.0159
C33F C 0.7206(3) 0.1232(5) 0.9850(4)
H33F H 0.7048 0.1305 1.0062
C34F C 0.8279(3) 0.1106(2) 0.9716(3)
O1F O 0.5180(2) 0.1092(3) 0.9159(3)
O2F O 0.5169(3) 0.0557(4) 0.9562(4)
O3F O 0.84314(16) 0.1223(3) 0.9999(2)
O4F O 0.8482(3) 0.0939(4) 0.9490(4)
Co1G Co 0.98004(3) 0.39615(3) 1.37553(3)
Co3G Co 0.96312(3) 0.39085(3) 1.09479(3)
N1G N 0.95137(19) 0.40377(18) 1.15046(18)
N2G N 0.9302(2) 0.43848(19) 1.15593(17)
N3G N 0.91578(18) 0.39812(19) 1.31795(17)
N4G N 0.95499(18) 0.40397(17) 1.32329(16)
N5G N 0.90028(19) 0.40170(17) 1.41100(17)
N6G N 0.94067(19) 0.40662(18) 1.41678(17)
N7G N 0.88386(19) 0.47565(18) 1.56445(16)
N8G N 0.8961(4) 0.4407(2) 1.5768(2)
H1G H 0.8976 0.4341 1.6012
C1G C 0.9818(4) 0.3508(4) 1.1916(3)
H2G H 0.9681 0.3300 1.1780
H3G H 0.9831 0.3448 1.2192
H4G H 1.0081 0.3531 1.1812
C2G C 0.9598(3) 0.3897(2) 1.1856(2)
C3G C 0.9445(2) 0.4132(3) 1.2158(2)
C4G C 0.9264(3) 0.4436(3) 1.1956(2)
C5G C 0.9072(4) 0.4804(3) 1.2121(3)
H5G H 0.9226 0.4901 1.2338
H6G H 0.8811 0.4742 1.2211
H7G H 0.9057 0.5002 1.1919
C6G C 0.8673(3) 0.3952(4) 1.2648(2)
H8G H 0.8536 0.3760 1.2805
H9G H 0.8678 0.3866 1.2378
H10G H 0.8538 0.4201 1.2665
C7G C 0.9078(2) 0.3996(3) 1.2793(2)
C8G C 0.9413(2) 0.4083(2) 1.2582(2)
C9G C 0.9716(2) 0.4093(3) 1.2872(2)
C10G C 1.0140(3) 0.4173(4) 1.2831(3)
H11G H 1.0230 0.4319 1.3056
H12G H 1.0185 0.4323 1.2595
H13G H 1.0280 0.3927 1.2815
C11G C 0.8375(3) 0.4092(4) 1.4480(3)
H14G H 0.8260 0.4329 1.4378
H15G H 0.8306 0.4062 1.4753
H16G H 0.8279 0.3869 1.4334
C12G C 0.8811(2) 0.4113(2) 1.4442(2)
C13G C 0.9085(2) 0.4237(2) 1.4727(2)
C14G C 0.9438(2) 0.4198(2) 1.4541(2)
C15G C 0.9853(3) 0.4265(4) 1.4718(3)
H17G H 1.0024 0.4052 1.4641
H18G H 0.9835 0.4273 1.5001
H19G H 0.9958 0.4510 1.4623
C16G C 0.8711(5) 0.5073(3) 1.5009(3)
H20G H 0.8642 0.5289 1.5179
H21G H 0.8481 0.4987 1.4868
H22G H 0.8909 0.5157 1.4825
C17G C 0.8868(2) 0.4739(2) 1.52520(19)
C18G C 0.9001(3) 0.4374(2) 1.5131(2)
C19G C 0.9056(4) 0.4174(3) 1.5476(3)
C20G C 0.9273(6) 0.3790(4) 1.5538(4)
H23G H 0.9266 0.3720 1.5812
H24G H 0.9543 0.3819 1.5455
H25G H 0.9150 0.3586 1.5385
C21G C 1.0343(3) 0.4130(6) 1.0645(6)
C22G C 1.0793(3) 0.4072(5) 1.0609(4)
C23G C 1.1019(4) 0.4374(5) 1.0449(5)
H26G H 1.0902 0.4607 1.0365
C24G C 1.1426(4) 0.4319(6) 1.0418(5)
H27G H 1.1576 0.4522 1.0311
C25G C 1.1621(4) 0.3975(5) 1.0538(5)
C26G C 1.1383(3) 0.3684(5) 1.0695(5)
H28G H 1.1500 0.3450 1.0779
C27G C 1.0969(3) 0.3724(5) 1.0734(5)
H29G H 1.0819 0.3521 1.0841
C28G C 1.2009(3) 0.3880(5) 1.0480(4)
C29G C 1.2281(3) 0.3981(5) 1.0766(4)
H30G H 1.2178 0.4063 1.1007
C30G C 1.2688(3) 0.3974(5) 1.0736(4)
H31G H 1.2846 0.4048 1.0948
C31G C 1.2855(4) 0.3854(5) 1.0384(4)
C32G C 1.2608(3) 0.3748(5) 1.0083(4)
H32G H 1.2707 0.3665 0.9841
C33G C 1.2206(3) 0.3768(5) 1.0150(4)
H33G H 1.2048 0.3695 0.9938
C34G C 1.3279(3) 0.3894(2) 1.0284(3)
O1G O 1.0180(2) 0.3908(3) 1.0841(3)
O2G O 1.0169(3) 0.4443(4) 1.0438(4)
O3G O 1.34314(16) 0.3777(3) 1.0001(2)
O4G O 1.3482(3) 0.4061(4) 1.0510(4)
Co1H Co 1.12447(3) 0.01996(3) 0.89615(3)
Co3H Co 1.40521(3) 0.03688(3) 0.89085(3)
N1H N 1.34954(18) 0.04863(19) 0.90377(18)
N2H N 1.34407(17) 0.0698(2) 0.93848(19)
N3H N 1.18205(17) 0.08422(18) 0.89812(19)
N4H N 1.17671(16) 0.04501(18) 0.90397(17)
N5H N 1.08900(17) 0.09972(19) 0.90170(17)
N6H N 1.08322(17) 0.05933(19) 0.90662(18)
N7H N 0.93555(16) 0.11614(19) 0.97565(18)
N8H N 0.9232(2) 0.1039(4) 0.9407(2)
H1H H 0.8988 0.1024 0.9341
C1H C 1.3084(3) 0.0182(4) 0.8508(4)
H2H H 1.3220 0.0319 0.8300
H3H H 1.2808 0.0169 0.8448
H4H H 1.3188 -0.0081 0.8531
C2H C 1.3144(2) 0.0402(3) 0.8897(2)
C3H C 1.2842(2) 0.0555(2) 0.9132(3)
C4H C 1.3044(2) 0.0736(3) 0.9436(3)
C5H C 1.2879(3) 0.0928(4) 0.9804(3)
H5H H 1.2662 0.0774 0.9901
H6H H 1.2789 0.1189 0.9742
H7H H 1.3081 0.0943 1.0002
C6H C 1.2352(2) 0.1327(3) 0.8952(4)
H8H H 1.2195 0.1464 0.8760
H9H H 1.2622 0.1322 0.8866
H10H H 1.2335 0.1462 0.9201
C7H C 1.2207(2) 0.0922(2) 0.8996(3)
C8H C 1.2418(2) 0.0587(2) 0.9083(2)
C9H C 1.2128(2) 0.0284(2) 0.9093(3)
C10H C 1.2169(3) -0.0140(3) 0.9173(4)
H11H H 1.1944 -0.0230 0.9319
H12H H 1.2405 -0.0185 0.9323
H13H H 1.2185 -0.0280 0.8927
C11H C 1.0520(3) 0.1625(3) 0.9092(4)
H14H H 1.0622 0.1740 0.9329
H15H H 1.0247 0.1694 0.9062
H16H H 1.0666 0.1721 0.8869
C12H C 1.0558(2) 0.1189(2) 0.9113(2)
C13H C 1.0273(2) 0.0915(2) 0.9237(2)
C14H C 1.0459(2) 0.0562(2) 0.9198(2)
C15H C 1.0282(3) 0.0147(3) 0.9265(4)
H17H H 1.0359 -0.0024 0.9052
H18H H 0.9999 0.0165 0.9273
H19H H 1.0377 0.0042 0.9510
C16H C 0.9991(3) 0.1289(5) 1.0073(3)
H20H H 0.9821 0.1358 1.0289
H21H H 1.0132 0.1519 0.9987
H22H H 1.0175 0.1091 1.0157
C17H C 0.97480(19) 0.1132(2) 0.9739(2)
C18H C 0.9869(2) 0.0999(3) 0.9374(2)
C19H C 0.9524(3) 0.0944(4) 0.9174(3)
C20H C 0.9462(4) 0.0727(6) 0.8790(4)
H23H H 0.9188 0.0734 0.8720
H24H H 0.9545 0.0457 0.8819
H25H H 0.9615 0.0850 0.8586
C21H C 1.4355(6) -0.0343(3) 0.9130(6)
C22H C 1.4391(4) -0.0793(3) 0.9072(5)
C23H C 1.4551(5) -0.1019(4) 0.9374(5)
H26H H 1.4635 -0.0902 0.9607
C24H C 1.4582(5) -0.1426(4) 0.9319(6)
H27H H 1.4689 -0.1576 0.9522
C25H C 1.4462(5) -0.1621(4) 0.8975(5)
C26H C 1.4305(5) -0.1383(3) 0.8684(5)
H28H H 1.4221 -0.1500 0.8450
C27H C 1.4266(5) -0.0969(3) 0.8724(5)
H29H H 1.4159 -0.0819 0.8521
C28H C 1.4520(4) -0.2009(3) 0.8880(5)
C29H C 1.4234(4) -0.2281(3) 0.8981(5)
H30H H 1.3993 -0.2178 0.9063
C30H C 1.4264(4) -0.2688(3) 0.8974(5)
H31H H 1.4052 -0.2846 0.9048
C31H C 1.4616(4) -0.2855(4) 0.8854(5)
C32H C 1.4917(4) -0.2608(3) 0.8748(5)
H32H H 1.5159 -0.2707 0.8665
C33H C 1.4850(4) -0.2206(3) 0.8768(5)
H33H H 1.5062 -0.2048 0.8695
C34H C 1.4716(3) -0.3279(3) 0.8894(2)
O1H O 1.4159(3) -0.0180(2) 0.8908(3)
O2H O 1.4562(4) -0.0169(3) 0.9443(4)
O3H O 1.4999(2) -0.34314(16) 0.8777(3)
O4H O 1.4490(4) -0.3482(3) 0.9061(4)
Co1I Co 0.87553(3) 0.51996(3) 0.60385(3)
Co3I Co 0.59479(3) 0.53688(3) 0.60915(3)
N1I N 0.65046(18) 0.54863(19) 0.59623(18)
N2I N 0.65593(17) 0.5698(2) 0.56152(19)
N3I N 0.81795(17) 0.58422(18) 0.60188(19)
N4I N 0.82329(16) 0.54501(18) 0.59603(17)
N5I N 0.91100(17) 0.59972(19) 0.59830(17)
N6I N 0.91678(17) 0.55933(19) 0.59338(18)
N7I N 1.06445(16) 0.61614(19) 0.52435(18)
N8I N 1.0768(2) 0.6039(4) 0.5593(2)
H1I H 1.1012 0.6024 0.5659
C1I C 0.6916(3) 0.5182(4) 0.6492(4)
H2I H 0.6780 0.5319 0.6700
H3I H 0.7192 0.5169 0.6552
H4I H 0.6812 0.4919 0.6469
C2I C 0.6856(2) 0.5402(3) 0.6103(2)
C3I C 0.7158(2) 0.5555(2) 0.5868(3)
C4I C 0.6956(2) 0.5736(3) 0.5564(3)
C5I C 0.7121(3) 0.5928(4) 0.5196(3)
H5I H 0.7338 0.5774 0.5099
H6I H 0.7211 0.6189 0.5258
H7I H 0.6919 0.5943 0.4998
C6I C 0.7648(2) 0.6327(3) 0.6048(4)
H8I H 0.7805 0.6464 0.6240
H9I H 0.7378 0.6322 0.6134
H10I H 0.7665 0.6462 0.5799
C7I C 0.7793(2) 0.5922(2) 0.6004(3)
C8I C 0.7582(2) 0.5587(2) 0.5917(2)
C9I C 0.7872(2) 0.5284(2) 0.5907(3)
C10I C 0.7831(3) 0.4860(3) 0.5827(4)
H11I H 0.8056 0.4770 0.5681
H12I H 0.7595 0.4815 0.5677
H13I H 0.7815 0.4720 0.6073
C11I C 0.9480(3) 0.6625(3) 0.5908(4)
H14I H 0.9378 0.6740 0.5671
H15I H 0.9753 0.6694 0.5938
H16I H 0.9334 0.6721 0.6131
C12I C 0.9442(2) 0.6189(2) 0.5887(2)
C13I C 0.9727(2) 0.5915(2) 0.5763(2)
C14I C 0.9541(2) 0.5562(2) 0.5802(2)
C15I C 0.9718(3) 0.5147(3) 0.5735(4)
H17I H 0.9641 0.4976 0.5948
H18I H 1.0001 0.5165 0.5727
H19I H 0.9623 0.5042 0.5490
C16I C 1.0009(3) 0.6289(5) 0.4927(3)
H20I H 1.0179 0.6358 0.4711
H21I H 0.9868 0.6519 0.5013
H22I H 0.9825 0.6091 0.4843
C17I C 1.02520(19) 0.6132(2) 0.5261(2)
C18I C 1.0131(2) 0.5999(3) 0.5626(2)
C19I C 1.0476(3) 0.5944(4) 0.5826(3)
C20I C 1.0538(4) 0.5727(6) 0.6210(4)
H23I H 1.0812 0.5734 0.6280
H24I H 1.0455 0.5457 0.6181
H25I H 1.0385 0.5850 0.6414
C21I C 0.5645(6) 0.4657(3) 0.5870(6)
C22I C 0.5609(4) 0.4207(3) 0.5928(5)
C23I C 0.5449(5) 0.3981(4) 0.5626(5)
H26I H 0.5365 0.4098 0.5393
C24I C 0.5418(5) 0.3574(4) 0.5681(6)
H27I H 0.5311 0.3424 0.5478
C25I C 0.5538(5) 0.3379(4) 0.6025(5)
C26I C 0.5695(5) 0.3617(3) 0.6316(5)
H28I H 0.5779 0.3500 0.6550
C27I C 0.5734(5) 0.4031(3) 0.6276(5)
H29I H 0.5841 0.4181 0.6479
C28I C 0.5480(4) 0.2991(3) 0.6120(5)
C29I C 0.5766(4) 0.2719(3) 0.6019(5)
H30I H 0.6007 0.2822 0.5937
C30I C 0.5736(4) 0.2312(3) 0.6026(5)
H31I H 0.5948 0.2154 0.5952
C31I C 0.5384(4) 0.2145(4) 0.6146(5)
C32I C 0.5083(4) 0.2392(3) 0.6252(5)
H32I H 0.4841 0.2293 0.6335
C33I C 0.5150(4) 0.2794(3) 0.6232(5)
H33I H 0.4938 0.2952 0.6305
C34I C 0.5284(3) 0.1721(3) 0.6106(2)
O1I O 0.5841(3) 0.4820(2) 0.6092(3)
O2I O 0.5438(4) 0.4831(3) 0.5557(4)
O3I O 0.5001(2) 0.15686(16) 0.6223(3)
O4I O 0.5510(4) 0.1518(3) 0.5939(4)
Co1A Co 0.60385(3) -0.12447(3) 1.51996(3)
Co1B Co 1.10385(3) 0.62447(3) 0.48004(3)
Co1C Co 1.39615(3) 0.37553(3) 0.98004(3)
Co1E Co 1.51996(3) -0.39615(3) 0.87553(3)
Co1I_2 Co 0.87553(3) 0.51996(3) 1.60385(3)
Co1K Co 0.37553(3) -0.01996(3) 0.39615(3)
Co2G Co 0.8750 0.39025(3) 1.35975(3)
Co2H Co 1.14025(3) 0.1250 0.89025(3)
Co2I Co 0.85975(3) 0.6250 0.60975(3)
Co3A Co 0.60915(3) 0.59479(3) 0.53688(3)
Co3B Co 1.10915(3) -0.09479(3) 1.46312(3)
Co3C Co 1.39085(3) 0.09479(3) 0.96312(3)
Co3H_2 Co 0.40521(3) 0.03688(3) 0.89085(3)
Co3J Co 0.90521(3) 0.46312(3) 1.10915(3)
Co3K Co 1.09479(3) -0.03688(3) 1.39085(3)
Co4A Co 0.53510(5) 0.53510(5) 0.53510(5)
Co4C Co 0.46490(5) 0.03510(5) 0.96490(5)
Co4C_2 Co 1.46490(5) 0.03510(5) 0.96490(5)
N2B N 1.06152(19) -0.15593(17) 1.4302(2)
N2C N 0.43848(19) 0.15593(17) 0.9302(2)
N2E N 0.5698(2) 0.56152(19) 0.65593(17)
N2F_2 N 1.4302(2) 0.06152(19) 0.84407(17)
N2J N 0.84407(17) 0.4302(2) 1.06152(19)
N3L N 0.93205(17) 0.14812(19) 1.16578(18)
N3U N 0.33422(18) 0.06795(17) 0.64812(19)
N3V N 1.16578(18) -0.06795(17) 1.14812(19)
N5L N 0.83900(17) 0.15170(17) 1.15028(19)
N5U N 0.34972(19) 0.16100(17) 0.65170(17)
N5V N 1.15028(19) -0.16100(17) 1.15170(17)
N7A N 0.52435(18) 0.06445(16) 0.61614(19)
N7B N 1.02435(18) 0.43555(16) 1.38386(19)
N7G_2 N 0.88386(19) 0.47565(18) 0.56445(16)
O2B O 1.0557(4) -0.0438(4) 1.5169(3)
O2J O 0.9562(4) 0.5169(3) 1.0557(4)
O2K O 1.0438(4) 0.0169(3) 1.4443(4)
O3B O 1.1223(3) -0.0001(2) 0.84314(16)
O3J O 0.9999(2) -0.15686(16) 1.1223(3)
O3K O 1.0001(2) 0.34314(16) 1.3777(3)
O5A O 0.56750(12) 0.56750(12) 0.56750(12)
O5C O 0.43250(12) 0.06750(12) 0.93250(12)
O5C_2 O 1.43250(12) 0.06750(12) 0.93250(12)
loop_
_geom_bond_atom_site_label_1
_geom_bond_atom_site_label_2
_geom_bond_site_symmetry_1
_geom_bond_site_symmetry_2
Co1 N4 1_555 1_555
Co2 N3 1_555 1_555
Co3 N1 1_555 1_555
Co4 O2 1_555 1_555
N1 N2 1_555 1_555
N2 C4 1_555 1_555
N3 N4 1_555 1_555
N4 C9 1_555 1_555
N5 Co2 1_555 1_555
N6 Co1 1_555 1_555
N7 N8 1_555 1_555
N8 H1 1_555 1_555
C1 H2 1_555 1_555
H3 C1 1_555 1_555
H4 C1 1_555 1_555
C2 N1 1_555 1_555
C3 C2 1_555 1_555
C4 C3 1_555 1_555
C5 C4 1_555 1_555
H5 C5 1_555 1_555
H6 C5 1_555 1_555
H7 C5 1_555 1_555
C6 H8 1_555 1_555
H9 C6 1_555 1_555
H10 C6 1_555 1_555
C7 N3 1_555 1_555
C8 C3 1_555 1_555
C9 C8 1_555 1_555
C10 C9 1_555 1_555
H11 C10 1_555 1_555
H12 C10 1_555 1_555
H13 C10 1_555 1_555
C11 H14 1_555 1_555
H15 C11 1_555 1_555
H16 C11 1_555 1_555
C12 N5 1_555 1_555
C13 C12 1_555 1_555
C14 N6 1_555 1_555
C15 C14 1_555 1_555
H17 C15 1_555 1_555
H18 C15 1_555 1_555
H19 C15 1_555 1_555
C16 H20 1_555 1_555
H21 C16 1_555 1_555
H22 C16 1_555 1_555
C17 N7 1_555 1_555
C18 C13 1_555 1_555
C19 N8 1_555 1_555
C20 C19 1_555 1_555
H23 C20 1_555 1_555
H24 C20 1_555 1_555
H25 C20 1_555 1_555
C21 C22 1_555 1_555
C22 C23 1_555 1_555
C23 H26 1_555 1_555
C24 C23 1_555 1_555
H27 C24 1_555 1_555
C25 C24 1_555 1_555
C26 C25 1_555 1_555
H28 C26 1_555 1_555
C27 C22 1_555 1_555
H29 C27 1_555 1_555
C28 C25 1_555 1_555
C29 C28 1_555 1_555
H30 C29 1_555 1_555
C30 C29 1_555 1_555
H31 C30 1_555 1_555
C31 C30 1_555 1_555
C32 C31 1_555 1_555
H32 C32 1_555 1_555
C33 C28 1_555 1_555
H33 C33 1_555 1_555
C34 C31 1_555 1_555
O1 Co3 1_555 1_555
O2 C21 1_555 1_555
O3 C34 1_555 1_555
O4 C34 1_555 1_555
O5 Co3 1_555 1_555
Co1D N7 1_555 1_555
Co2D N3D 1_555 1_555
Co3D N1D 1_555 1_555
Co4B O2D 1_555 1_555
N1D N2D 1_555 1_555
N2D C4D 1_555 1_555
N3D N4D 1_555 1_555
N4D Co1D 1_555 1_555
N5D Co2D 1_555 1_555
N6D Co1D 1_555 1_555
N7D N8D 1_555 1_555
N8D H1D 1_555 1_555
C1D H2D 1_555 1_555
H3D C1D 1_555 1_555
H4D C1D 1_555 1_555
C2D N1D 1_555 1_555
C3D C2D 1_555 1_555
C4D C3D 1_555 1_555
C5D C4D 1_555 1_555
H5D C5D 1_555 1_555
H6D C5D 1_555 1_555
H7D C5D 1_555 1_555
C6D H8D 1_555 1_555
H9D C6D 1_555 1_555
H10D C6D 1_555 1_555
C7D N3D 1_555 1_555
C8D C3D 1_555 1_555
C9D N4D 1_555 1_555
C10D C9D 1_555 1_555
H11D C10D 1_555 1_555
H12D C10D 1_555 1_555
H13D C10D 1_555 1_555
C11D H14D 1_555 1_555
H15D C11D 1_555 1_555
H16D C11D 1_555 1_555
C12D N5D 1_555 1_555
C13D C12D 1_555 1_555
C14D N6D 1_555 1_555
C15D C14D 1_555 1_555
H17D C15D 1_555 1_555
H18D C15D 1_555 1_555
H19D C15D 1_555 1_555
C16D H20D 1_555 1_555
H21D C16D 1_555 1_555
H22D C16D 1_555 1_555
C17D N7D 1_555 1_555
C18D C13D 1_555 1_555
C19D N8D 1_555 1_555
C20D C19D 1_555 1_555
H23D C20D 1_555 1_555
H24D C20D 1_555 1_555
H25D C20D 1_555 1_555
C21D C22D 1_555 1_555
C22D C23D 1_555 1_555
C23D H26D 1_555 1_555
C24D C23D 1_555 1_555
H27D C24D 1_555 1_555
C25D C24D 1_555 1_555
C26D C25D 1_555 1_555
H28D C26D 1_555 1_555
C27D C22D 1_555 1_555
H29D C27D 1_555 1_555
C28D C25D 1_555 1_555
C29D C28D 1_555 1_555
H30D C29D 1_555 1_555
C30D C29D 1_555 1_555
H31D C30D 1_555 1_555
C31D C30D 1_555 1_555
C32D C31D 1_555 1_555
H32D C32D 1_555 1_555
C33D C28D 1_555 1_555
H33D C33D 1_555 1_555
C34D C31D 1_555 1_555
O1D Co3D 1_555 1_555
O2D C21D 1_555 1_555
O3D C34D 1_555 1_555
O4D C34D 1_555 1_555
O5B Co3D 1_555 1_555
Co1F N4F 1_555 1_555
Co2F N3F 1_555 1_555
Co3F N1F 1_555 1_555
N1F N2F 1_555 1_555
N2F C4F 1_555 1_555
N3F N4F 1_555 1_555
N4F C9F 1_555 1_555
N5F Co2F 1_555 1_555
N6F Co1F 1_555 1_555
N7F N8F 1_555 1_555
N8F H1F 1_555 1_555
C1F H2F 1_555 1_555
H3F C1F 1_555 1_555
H4F C1F 1_555 1_555
C2F N1F 1_555 1_555
C3F C2F 1_555 1_555
C4F C3F 1_555 1_555
C5F C4F 1_555 1_555
H5F C5F 1_555 1_555
H6F C5F 1_555 1_555
H7F C5F 1_555 1_555
C6F H8F 1_555 1_555
H9F C6F 1_555 1_555
H10F C6F 1_555 1_555
C7F N3F 1_555 1_555
C8F C3F 1_555 1_555
C9F C8F 1_555 1_555
C10F C9F 1_555 1_555
H11F C10F 1_555 1_555
H12F C10F 1_555 1_555
H13F C10F 1_555 1_555
C11F H14F 1_555 1_555
H15F C11F 1_555 1_555
H16F C11F 1_555 1_555
C12F N5F 1_555 1_555
C13F C12F 1_555 1_555
C14F N6F 1_555 1_555
C15F C14F 1_555 1_555
H17F C15F 1_555 1_555
H18F C15F 1_555 1_555
H19F C15F 1_555 1_555
C16F H20F 1_555 1_555
H21F C16F 1_555 1_555
H22F C16F 1_555 1_555
C17F N7F 1_555 1_555
C18F C13F 1_555 1_555
C19F N8F 1_555 1_555
C20F C19F 1_555 1_555
H23F C20F 1_555 1_555
H24F C20F 1_555 1_555
H25F C20F 1_555 1_555
C21F C22F 1_555 1_555
C22F C23F 1_555 1_555
C23F H26F 1_555 1_555
C24F C23F 1_555 1_555
H27F C24F 1_555 1_555
C25F C24F 1_555 1_555
C26F C25F 1_555 1_555
H28F C26F 1_555 1_555
C27F C22F 1_555 1_555
H29F C27F 1_555 1_555
C28F C25F 1_555 1_555
C29F C28F 1_555 1_555
H30F C29F 1_555 1_555
C30F C29F 1_555 1_555
H31F C30F 1_555 1_555
C31F C30F 1_555 1_555
C32F C31F 1_555 1_555
H32F C32F 1_555 1_555
C33F C28F 1_555 1_555
H33F C33F 1_555 1_555
C34F C31F 1_555 1_555
O1F Co3F 1_555 1_555
O2F C21F 1_555 1_555
O3F Co1 1_555 1_555
O4F C34F 1_555 1_555
Co1G N4G 1_555 1_555
Co3G N2 1_555 1_555
N1G Co3G 1_555 1_555
N2G N1G 1_555 1_555
N3G N4G 1_555 1_555
N4G C9G 1_555 1_555
N5G N6G 1_555 1_555
N6G Co1G 1_555 1_555
N7G N8G 1_555 1_555
N8G H1G 1_555 1_555
C1G H2G 1_555 1_555
H3G C1G 1_555 1_555
H4G C1G 1_555 1_555
C2G N1G 1_555 1_555
C3G C2G 1_555 1_555
C4G N2G 1_555 1_555
C5G C4G 1_555 1_555
H5G C5G 1_555 1_555
H6G C5G 1_555 1_555
H7G C5G 1_555 1_555
C6G H8G 1_555 1_555
H9G C6G 1_555 1_555
H10G C6G 1_555 1_555
C7G N3G 1_555 1_555
C8G C3G 1_555 1_555
C9G C8G 1_555 1_555
C10G C9G 1_555 1_555
H11G C10G 1_555 1_555
H12G C10G 1_555 1_555
H13G C10G 1_555 1_555
C11G H14G 1_555 1_555
H15G C11G 1_555 1_555
H16G C11G 1_555 1_555
C12G N5G 1_555 1_555
C13G C12G 1_555 1_555
C14G N6G 1_555 1_555
C15G C14G 1_555 1_555
H17G C15G 1_555 1_555
H18G C15G 1_555 1_555
H19G C15G 1_555 1_555
C16G H20G 1_555 1_555
H21G C16G 1_555 1_555
H22G C16G 1_555 1_555
C17G N7G 1_555 1_555
C18G C13G 1_555 1_555
C19G N8G 1_555 1_555
C20G C19G 1_555 1_555
H23G C20G 1_555 1_555
H24G C20G 1_555 1_555
H25G C20G 1_555 1_555
C21G C22G 1_555 1_555
C22G C23G 1_555 1_555
C23G H26G 1_555 1_555
C24G C23G 1_555 1_555
H27G C24G 1_555 1_555
C25G C24G 1_555 1_555
C26G C25G 1_555 1_555
H28G C26G 1_555 1_555
C27G C22G 1_555 1_555
H29G C27G 1_555 1_555
C28G C25G 1_555 1_555
C29G C28G 1_555 1_555
H30G C29G 1_555 1_555
C30G C29G 1_555 1_555
H31G C30G 1_555 1_555
C31G C30G 1_555 1_555
C32G C31G 1_555 1_555
H32G C32G 1_555 1_555
C33G C28G 1_555 1_555
H33G C33G 1_555 1_555
C34G C31G 1_555 1_555
O1G Co3G 1_555 1_555
O2G Co4 1_555 1_555
O3G C34G 1_555 1_555
O4G C34G 1_555 1_555
Co1H N7D 1_555 1_555
Co3H N1H 1_555 1_555
N1H N2H 1_555 1_555
N2H C4H 1_555 1_555
N3H N4H 1_555 1_555
N4H Co1H 1_555 1_555
N5H N6H 1_555 1_555
N6H Co1H 1_555 1_555
N7H Co1 1_555 1_555
N8H N7H 1_555 1_555
H1H N8H 1_555 1_555
C1H H2H 1_555 1_555
H3H C1H 1_555 1_555
H4H C1H 1_555 1_555
C2H N1H 1_555 1_555
C3H C2H 1_555 1_555
C4H C3H 1_555 1_555
C5H C4H 1_555 1_555
H5H C5H 1_555 1_555
H6H C5H 1_555 1_555
H7H C5H 1_555 1_555
C6H H8H 1_555 1_555
H9H C6H 1_555 1_555
H10H C6H 1_555 1_555
C7H N3H 1_555 1_555
C8H C3H 1_555 1_555
C9H N4H 1_555 1_555
C10H C9H 1_555 1_555
H11H C10H 1_555 1_555
H12H C10H 1_555 1_555
H13H C10H 1_555 1_555
C11H H14H 1_555 1_555
H15H C11H 1_555 1_555
H16H C11H 1_555 1_555
C12H N5H 1_555 1_555
C13H C12H 1_555 1_555
C14H N6H 1_555 1_555
C15H C14H 1_555 1_555
H17H C15H 1_555 1_555
H18H C15H 1_555 1_555
H19H C15H 1_555 1_555
C16H H20H 1_555 1_555
H21H C16H 1_555 1_555
H22H C16H 1_555 1_555
C17H N7H 1_555 1_555
C18H C13H 1_555 1_555
C19H N8H 1_555 1_555
C20H C19H 1_555 1_555
H23H C20H 1_555 1_555
H24H C20H 1_555 1_555
H25H C20H 1_555 1_555
C21H C22H 1_555 1_555
C22H C23H 1_555 1_555
C23H H26H 1_555 1_555
C24H C23H 1_555 1_555
H27H C24H 1_555 1_555
C25H C24H 1_555 1_555
C26H C25H 1_555 1_555
H28H C26H 1_555 1_555
C27H C22H 1_555 1_555
H29H C27H 1_555 1_555
C28H C25H 1_555 1_555
C29H C28H 1_555 1_555
H30H C29H 1_555 1_555
C30H C29H 1_555 1_555
H31H C30H 1_555 1_555
C31H C30H 1_555 1_555
C32H C31H 1_555 1_555
H32H C32H 1_555 1_555
C33H C28H 1_555 1_555
H33H C33H 1_555 1_555
C34H C31H 1_555 1_555
O1H Co3H 1_555 1_555
O2H C21H 1_555 1_555
O3H C34H 1_555 1_555
O4H C34H 1_555 1_555
Co1I O3 1_555 1_555
Co3I N1I 1_555 1_555
N1I N2I 1_555 1_555
N2I C4I 1_555 1_555
N3I N4I 1_555 1_555
N4I Co1I 1_555 1_555
N5I N6I 1_555 1_555
N6I Co1I 1_555 1_555
N7I N8I 1_555 1_555
N8I H1I 1_555 1_555
C1I H2I 1_555 1_555
H3I C1I 1_555 1_555
H4I C1I 1_555 1_555
C2I N1I 1_555 1_555
C3I C2I 1_555 1_555
C4I C3I 1_555 1_555
C5I C4I 1_555 1_555
H5I C5I 1_555 1_555
H6I C5I 1_555 1_555
H7I C5I 1_555 1_555
C6I H8I 1_555 1_555
H9I C6I 1_555 1_555
H10I C6I 1_555 1_555
C7I N3I 1_555 1_555
C8I C3I 1_555 1_555
C9I N4I 1_555 1_555
C10I C9I 1_555 1_555
H11I C10I 1_555 1_555
H12I C10I 1_555 1_555
H13I C10I 1_555 1_555
C11I H14I 1_555 1_555
H15I C11I 1_555 1_555
H16I C11I 1_555 1_555
C12I N5I 1_555 1_555
C13I C12I 1_555 1_555
C14I N6I 1_555 1_555
C15I C14I 1_555 1_555
H17I C15I 1_555 1_555
H18I C15I 1_555 1_555
H19I C15I 1_555 1_555
C16I H20I 1_555 1_555
H21I C16I 1_555 1_555
H22I C16I 1_555 1_555
C17I N7I 1_555 1_555
C18I C13I 1_555 1_555
C19I N8I 1_555 1_555
C20I C19I 1_555 1_555
H23I C20I 1_555 1_555
H24I C20I 1_555 1_555
H25I C20I 1_555 1_555
C21I C22I 1_555 1_555
C22I C23I 1_555 1_555
C23I H26I 1_555 1_555
C24I C23I 1_555 1_555
H27I C24I 1_555 1_555
C25I C24I 1_555 1_555
C26I C25I 1_555 1_555
H28I C26I 1_555 1_555
C27I C22I 1_555 1_555
H29I C27I 1_555 1_555
C28I C25I 1_555 1_555
C29I C28I 1_555 1_555
H30I C29I 1_555 1_555
C30I C29I 1_555 1_555
H31I C30I 1_555 1_555
C31I C30I 1_555 1_555
C32I C31I 1_555 1_555
H32I C32I 1_555 1_555
C33I C28I 1_555 1_555
H33I C33I 1_555 1_555
C34I C31I 1_555 1_555
O1I Co3I 1_555 1_555
O2I C21I 1_555 1_555
O3I Co1F 1_555 1_555
O4I C34I 1_555 1_555
Co1A O3D 1_555 1_555
Co1B N7I 1_555 1_555
Co1C O3G 1_555 1_555
Co1E O3H 1_555 1_555
Co1I_2 N7G 1_555 1_555
Co1K N7F 1_555 1_555
Co2G N3G 1_555 1_555
Co2H N3H 1_555 1_555
Co2I N3I 1_555 1_555
Co3A N2I 1_555 1_555
Co3B O5B 1_555 1_555
Co3C N2H 1_555 1_555
Co3H_2 N2F 1_555 1_555
Co3J O5 1_555 1_555
Co3K N2D 1_555 1_555
Co4A O2I 1_555 1_555
Co4C O2F 1_555 1_555
Co4C_2 O2H 1_555 1_555
N2B Co3D 1_555 1_555
N2C Co3F 1_555 1_555
N2E Co3I 1_555 1_555
N2F_2 Co3H 1_555 1_555
N2J Co3 1_555 1_555
N3L Co2 1_555 1_555
N3U Co2F 1_555 1_555
N3V Co2D 1_555 1_555
N5L Co2 1_555 1_555
N5U Co2F 1_555 1_555
N5V Co2D 1_555 1_555
N7A Co1F 1_555 1_555
N7B Co1G 1_555 1_555
N7G_2 Co1I 1_555 1_555
O2B Co4B 1_555 1_555
O2J Co4 1_555 1_555
O2K Co4B 1_555 1_555
O3B Co1H 1_555 1_555
O3J Co1D 1_555 1_555
O3K Co1G 1_555 1_555
O5A Co3I 1_555 1_555
O5C Co3F 1_555 1_555
O5C_2 Co3H 1_555 1_555
Co4 O5 1_555 1_555
N5 N6 1_555 1_555
C1 C2 1_555 1_555
C6 C7 1_555 1_555
C7 C8 1_555 1_555
C11 C12 1_555 1_555
C13 C14 1_555 1_555
C16 C17 1_555 1_555
C17 C18 1_555 1_555
C18 C19 1_555 1_555
C21 O1 1_555 1_555
C26 C27 1_555 1_555
C32 C33 1_555 1_555
O5 Co3G 1_555 1_555
Co4B O5B 1_555 1_555
N5D N6D 1_555 1_555
C1D C2D 1_555 1_555
C6D C7D 1_555 1_555
C7D C8D 1_555 1_555
C8D C9D 1_555 1_555
C11D C12D 1_555 1_555
C13D C14D 1_555 1_555
C16D C17D 1_555 1_555
C17D C18D 1_555 1_555
C18D C19D 1_555 1_555
C21D O1D 1_555 1_555
C26D C27D 1_555 1_555
C32D C33D 1_555 1_555
O5B Co3K 1_555 1_555
N5F N6F 1_555 1_555
C1F C2F 1_555 1_555
C6F C7F 1_555 1_555
C7F C8F 1_555 1_555
C11F C12F 1_555 1_555
C13F C14F 1_555 1_555
C16F C17F 1_555 1_555
C17F C18F 1_555 1_555
C18F C19F 1_555 1_555
C21F O1F 1_555 1_555
C26F C27F 1_555 1_555
C32F C33F 1_555 1_555
C34F O3F 1_555 1_555
N2G Co3J 1_555 1_555
N5G Co2G 1_555 1_555
C1G C2G 1_555 1_555
C3G C4G 1_555 1_555
C6G C7G 1_555 1_555
C7G C8G 1_555 1_555
C11G C12G 1_555 1_555
C13G C14G 1_555 1_555
C16G C17G 1_555 1_555
C17G C18G 1_555 1_555
C18G C19G 1_555 1_555
C21G O1G 1_555 1_555
C21G O2G 1_555 1_555
C26G C27G 1_555 1_555
C32G C33G 1_555 1_555
N5H Co2H 1_555 1_555
C1H C2H 1_555 1_555
C6H C7H 1_555 1_555
C7H C8H 1_555 1_555
C8H C9H 1_555 1_555
C11H C12H 1_555 1_555
C13H C14H 1_555 1_555
C16H C17H 1_555 1_555
C17H C18H 1_555 1_555
C18H C19H 1_555 1_555
C21H O1H 1_555 1_555
C26H C27H 1_555 1_555
C32H C33H 1_555 1_555
N5I Co2I 1_555 1_555
C1I C2I 1_555 1_555
C6I C7I 1_555 1_555
C7I C8I 1_555 1_555
C8I C9I 1_555 1_555
C11I C12I 1_555 1_555
C13I C14I 1_555 1_555
C16I C17I 1_555 1_555
C17I C18I 1_555 1_555
C18I C19I 1_555 1_555
C21I O1I 1_555 1_555
C26I C27I 1_555 1_555
C32I C33I 1_555 1_555
C34I O3I 1_555 1_555
Co3A O5A 1_555 1_555
Co3C O5C_2 1_555 1_555
Co3H_2 O5C 1_555 1_555
Co4A O5A 1_555 1_555
Co4C O5C 1_555 1_555
Co4C_2 O5C_2 1_555 1_555

#END
