
#######################################################################
#
#                 Cambridge Crystallographic Data Centre
#                                CCDC 
#
#######################################################################
#
# If this CIF has been generated from an entry in the Cambridge 
# Structural Database, then it will include bibliographic, chemical, 
# crystal, experimental, refinement or atomic coordinate data resulting 
# from the CCDC's data processing and validation procedures.
#
#######################################################################

data_POXHOA
_symmetry_cell_setting           monoclinic
_symmetry_space_group_name_H-M   'P 21/c'
_symmetry_Int_Tables_number      14
_space_group_name_Hall           '-P 2ybc'
loop_
_symmetry_equiv_pos_site_id
_symmetry_equiv_pos_as_xyz
1 x,y,z
2 -x,1/2+y,1/2-z
3 -x,-y,-z
4 x,1/2-y,1/2+z
_cell_length_a                   9.67980(10)
_cell_length_b                   22.2733(3)
_cell_length_c                   9.12620(10)
_cell_angle_alpha                90
_cell_angle_beta                 117.8720(10)
_cell_angle_gamma                90
_cell_volume                     1739.36
loop_
_atom_site_label
_atom_site_type_symbol
_atom_site_fract_x
_atom_site_fract_y
_atom_site_fract_z
Ag1 Ag 0.31981(5) 0.148129(17) 0.98741(6)
Dy1 Dy -0.35499(2) -0.008330(9) 0.38102(2)
C1 C -0.2452(5) 0.0258(2) 0.7761(5)
C2 C -0.1193(5) 0.0625(2) 0.9125(5)
C3 C -0.1382(6) 0.0825(2) 1.0459(6)
H1 H -0.2265 0.0717 1.0553
C4 C -0.0263(6) 0.1184(2) 1.1640(6)
H2 H -0.0367 0.1317 1.2550
C5 C 0.1017(6) 0.1344(2) 1.1450(6)
H3 H 0.1764 0.1595 1.2236
C6 C 0.0134(5) 0.0795(2) 0.9046(6)
H4 H 0.0279 0.0657 0.8167
C7 C 0.4365(5) 0.2750(2) 0.9807(6)
H5 H 0.3606 0.2835 1.0130
C8 C 0.5189(5) 0.3225(2) 0.9603(5)
C9 C 0.6329(6) 0.3095(2) 0.9136(7)
H6 H 0.6903 0.3400 0.8982
C10 C 0.6592(7) 0.2501(3) 0.8904(7)
H7 H 0.7367 0.2401 0.8617
C11 C 0.5705(6) 0.2059(2) 0.9099(7)
H8 H 0.5871 0.1663 0.8903
C12 C 0.4829(5) 0.3851(2) 0.9902(5)
C13 C -0.0082(5) 0.0345(2) 0.4915(5)
C14 C 0.4791(5) 0.0332(2) 1.0016(5)
N1 N 0.1235(5) 0.11533(18) 1.0185(5)
N2 N 0.4606(5) 0.21771(18) 0.9562(5)
O1 O -0.2120(4) 0.00136(14) 0.6729(4)
O2 O -0.3731(4) 0.02445(15) 0.7776(4)
O3 O 0.3921(4) 0.39251(13) 1.0518(4)
O4 O 0.5463(4) 0.42719(14) 0.9522(4)
O5 O 0.3844(4) 0.05640(14) 0.8663(4)
O6 O 0.5425(4) 0.05906(13) 1.1393(4)
O7 O -0.1435(3) 0.05554(14) 0.4215(4)
O8 O 0.1173(3) 0.06372(13) 0.5495(4)
Ag1B Ag 0.68019(5) -0.148129(17) 1.01259(6)
Ag1B_2 Ag -1.31981(5) -0.148129(17) 0.01259(6)
Ag1A Ag -0.31981(5) -0.351871(17) 0.51259(6)
Dy1B Dy -0.64501(2) 0.008330(9) 0.61898(2)
Dy1A Dy 0.35499(2) 0.491670(9) 1.11898(2)
Dy1C Dy 0.64501(2) 0.508330(9) 0.88102(2)
Dy1B_2 Dy 0.35499(2) 0.008330(9) 0.61898(2)
Dy1_2 Dy 0.64501(2) -0.008330(9) 1.38102(2)
C1B C -0.7548(5) -0.0258(2) 0.2239(5)
C2B C -0.8807(5) -0.0625(2) 0.0875(5)
C3B C -0.8618(6) -0.0825(2) -0.0459(6)
H1B H -0.7735 -0.0717 -0.0553
C4B C -0.9737(6) -0.1184(2) -0.1640(6)
H2B H -0.9633 -0.1317 -0.2550
C5B C -1.1017(6) -0.1344(2) -0.1450(6)
H3B H -1.1764 -0.1595 -0.2236
C6B C -1.0134(5) -0.0795(2) 0.0954(6)
H4B H -1.0279 -0.0657 0.1833
C7A C -0.4365(5) -0.2250(2) 0.5193(6)
H5A H -0.3606 -0.2165 0.4870
C8A C -0.5189(5) -0.1775(2) 0.5397(5)
C9A C -0.6329(6) -0.1905(2) 0.5864(7)
H6A H -0.6903 -0.1600 0.6018
C10A C -0.6592(7) -0.2499(3) 0.6096(7)
H7A H -0.7367 -0.2599 0.6383
C11A C -0.5705(6) -0.2941(2) 0.5901(7)
H8A H -0.5871 -0.3337 0.6097
C12A C -0.4829(5) -0.1149(2) 0.5098(5)
C13B C 0.0082(5) -0.0345(2) 0.5085(5)
C14B C 0.5209(5) -0.0332(2) 0.9984(5)
N1B N -1.1235(5) -0.11533(18) -0.0185(5)
N1B_2 N 0.8765(5) -0.11533(18) 0.9815(5)
N2A N -0.4606(5) -0.28229(18) 0.5438(5)
N2B N 0.5394(5) -0.21771(18) 1.0438(5)
O1B O -0.7880(4) -0.00136(14) 0.3271(4)
O2B O -0.6269(4) -0.02445(15) 0.2224(4)
O3A O -0.3921(4) -0.10749(13) 0.4482(4)
O3C O -0.6079(4) 0.10749(13) 0.5518(4)
O4A O -0.5463(4) -0.07281(14) 0.5478(4)
O4C O -0.4537(4) 0.07281(14) 0.4522(4)
O5B O 0.6156(4) -0.05640(14) 1.1337(4)
O5B_2 O -0.3844(4) -0.05640(14) 0.1337(4)
O5_2 O -0.6156(4) 0.05640(14) 0.8663(4)
O6B O 0.4575(4) -0.05906(13) 0.8607(4)
O6_2 O -0.4575(4) 0.05906(13) 0.1393(4)
O6B_2 O -0.5425(4) -0.05906(13) 0.8607(4)
O7B O 0.1435(3) -0.05554(14) 0.5785(4)
O7B_2 O -0.8565(3) -0.05554(14) 0.5785(4)
O8B O -0.1173(3) -0.06372(13) 0.4505(4)
O8_2 O -0.8827(3) 0.06372(13) 0.5495(4)
O9 O 0.1103(6) 0.1958(2) 0.5559(6)
H9 H 0.0501 0.1936 0.5971
H10 H 0.1893 0.1755 0.6126
O10 O 0.9887(8) 0.2661(3) 0.2754(7)
H11 H 0.9727 0.3014 0.2947
H12 H 1.0251 0.2470 0.3644
loop_
_geom_bond_atom_site_label_1
_geom_bond_atom_site_label_2
_geom_bond_site_symmetry_1
_geom_bond_site_symmetry_2
Ag1 N1 1_555 1_555
Dy1 O1 1_555 1_555
C1 C2 1_555 1_555
C2 C3 1_555 1_555
C3 H1 1_555 1_555
C4 C3 1_555 1_555
H2 C4 1_555 1_555
C5 C4 1_555 1_555
H3 C5 1_555 1_555
C6 C2 1_555 1_555
H4 C6 1_555 1_555
C7 H5 1_555 1_555
C8 C7 1_555 1_555
C9 C8 1_555 1_555
H6 C9 1_555 1_555
C10 C9 1_555 1_555
H7 C10 1_555 1_555
C11 C10 1_555 1_555
H8 C11 1_555 1_555
C12 C8 1_555 1_555
C13 O7 1_555 1_555
C14 O5 1_555 1_555
N1 C5 1_555 1_555
N2 Ag1 1_555 1_555
O1 C1 1_555 1_555
O2 C1 1_555 1_555
O3 C12 1_555 1_555
O4 C12 1_555 1_555
O5 Ag1 1_555 1_555
O6 C14 1_555 1_555
O7 Dy1 1_555 1_555
O8 C13 1_555 1_555
O9 H9 1_555 1_555
H10 O9 1_555 1_555
O10 H11 1_555 1_555
H12 O10 1_555 1_555
Ag1B N1B_2 1_555 1_555
Ag1B_2 N1B 1_555 1_555
Ag1A N2A 1_555 1_555
Dy1B O2 1_555 1_555
Dy1A O3 1_555 1_555
Dy1C O4 1_555 1_555
Dy1B_2 O5 1_555 1_555
Dy1_2 O6 1_555 1_555
C1B C2B 1_555 1_555
C2B C3B 1_555 1_555
C3B H1B 1_555 1_555
C4B C3B 1_555 1_555
H2B C4B 1_555 1_555
C5B C4B 1_555 1_555
H3B C5B 1_555 1_555
C6B C2B 1_555 1_555
H4B C6B 1_555 1_555
C7A H5A 1_555 1_555
C8A C7A 1_555 1_555
C9A C8A 1_555 1_555
H6A C9A 1_555 1_555
C10A C9A 1_555 1_555
H7A C10A 1_555 1_555
C11A C10A 1_555 1_555
H8A C11A 1_555 1_555
C12A C8A 1_555 1_555
C13B C13 1_555 1_555
C14B C14 1_555 1_555
N1B C5B 1_555 1_555
N2A C7A 1_555 1_555
N2B Ag1B 1_555 1_555
O1B Dy1B 1_555 1_555
O2B Dy1 1_555 1_555
O3A Dy1 1_555 1_555
O3C Dy1B 1_555 1_555
O4A Dy1B 1_555 1_555
O4C Dy1 1_555 1_555
O5B Ag1B 1_555 1_555
O5B_2 Dy1 1_555 1_555
O5_2 Dy1B 1_555 1_555
O6B Dy1B_2 1_555 1_555
O6_2 Dy1 1_555 1_555
O6B_2 Dy1B 1_555 1_555
O7B Dy1B_2 1_555 1_555
O7B_2 Dy1B 1_555 1_555
O8B Dy1 1_555 1_555
O8_2 Dy1B 1_555 1_555
C6 N1 1_555 1_555
C7 N2 1_555 1_555
C11 N2 1_555 1_555
O8 Dy1B_2 1_555 1_555
Dy1_2 O5B 1_555 1_555
C1B O1B 1_555 1_555
C1B O2B 1_555 1_555
C6B N1B 1_555 1_555
C11A N2A 1_555 1_555
C12A O3A 1_555 1_555
C12A O4A 1_555 1_555
C13B O7B 1_555 1_555
C13B O8B 1_555 1_555
C14B O5B 1_555 1_555
C14B O6B 1_555 1_555

#END
