
#######################################################################
#
#                 Cambridge Crystallographic Data Centre
#                                CCDC 
#
#######################################################################
#
# If this CIF has been generated from an entry in the Cambridge 
# Structural Database, then it will include bibliographic, chemical, 
# crystal, experimental, refinement or atomic coordinate data resulting 
# from the CCDC's data processing and validation procedures.
#
#######################################################################

data_POXHIU
_symmetry_cell_setting           monoclinic
_symmetry_space_group_name_H-M   'P 21/c'
_symmetry_Int_Tables_number      14
_space_group_name_Hall           '-P 2ybc'
loop_
_symmetry_equiv_pos_site_id
_symmetry_equiv_pos_as_xyz
1 x,y,z
2 -x,1/2+y,1/2-z
3 -x,-y,-z
4 x,1/2-y,1/2+z
_cell_length_a                   9.66390(10)
_cell_length_b                   22.2590(3)
_cell_length_c                   9.11370(10)
_cell_angle_alpha                90
_cell_angle_beta                 117.9600(10)
_cell_angle_gamma                90
_cell_volume                     1731.6
loop_
_atom_site_label
_atom_site_type_symbol
_atom_site_fract_x
_atom_site_fract_y
_atom_site_fract_z
Ag1 Ag 0.32016(4) 0.148317(16) 0.98823(5)
Ho1 Ho -0.354600(17) -0.008270(8) 0.38078(2)
C1 C -0.2461(4) 0.02564(17) 0.7756(4)
C2 C -0.1197(4) 0.06230(17) 0.9119(5)
C3 C -0.1391(4) 0.08213(19) 1.0451(5)
H1 H -0.2272 0.0711 1.0548
C4 C -0.0260(5) 0.1186(2) 1.1635(5)
H2 H -0.0368 0.1322 1.2540
C5 C 0.1017(5) 0.1341(2) 1.1452(5)
H3 H 0.1768 0.1589 1.2247
C6 C 0.0139(4) 0.07920(18) 0.9050(5)
H4 H 0.0289 0.0650 0.8175
C7 C 0.4373(4) 0.27551(18) 0.9816(5)
H5 H 0.3620 0.2841 1.0149
C8 C 0.5189(4) 0.32280(18) 0.9606(5)
C9 C 0.6331(5) 0.3095(2) 0.9137(5)
H6 H 0.6905 0.3401 0.8982
C10 C 0.6601(5) 0.2502(2) 0.8903(6)
H7 H 0.7375 0.2402 0.8613
C11 C 0.5710(5) 0.2063(2) 0.9106(6)
H8 H 0.5878 0.1666 0.8916
C12 C 0.4832(4) 0.38580(17) 0.9892(4)
C13 C -0.0075(4) 0.03441(18) 0.4919(4)
C14 C 0.4800(4) 0.03317(18) 1.0022(5)
N1 N 0.1240(4) 0.11524(16) 1.0181(4)
N2 N 0.4605(4) 0.21802(15) 0.9567(4)
O1 O -0.2126(3) 0.00088(12) 0.6720(3)
O2 O -0.3745(3) 0.02387(13) 0.7765(3)
O3 O 0.3924(3) 0.39332(12) 1.0508(3)
O4 O 0.5483(3) 0.42736(12) 0.9518(3)
O5 O 0.3851(3) 0.05654(12) 0.8660(3)
O6 O 0.5431(3) 0.05905(12) 1.1395(3)
O7 O -0.1437(3) 0.05561(12) 0.4219(3)
O8 O 0.1174(3) 0.06381(12) 0.5493(3)
Ag1B Ag 0.67984(4) -0.148317(16) 1.01177(5)
Ag1B_2 Ag -1.32016(4) -0.148317(16) 0.01177(5)
Ag1A Ag -0.32016(4) -0.351683(16) 0.51177(5)
Ho1B Ho -0.645400(17) 0.008270(8) 0.61922(2)
Ho1A Ho 0.354600(17) 0.491730(8) 1.11922(2)
Ho1C Ho 0.645400(17) 0.508270(8) 0.88078(2)
Ho1B_2 Ho 0.354600(17) 0.008270(8) 0.61922(2)
Ho1_2 Ho 0.645400(17) -0.008270(8) 1.38078(2)
C1B C -0.7539(4) -0.02564(17) 0.2244(4)
C2B C -0.8803(4) -0.06230(17) 0.0881(5)
C3B C -0.8609(4) -0.08213(19) -0.0451(5)
H1B H -0.7728 -0.0711 -0.0548
C4B C -0.9740(5) -0.1186(2) -0.1635(5)
H2B H -0.9632 -0.1322 -0.2540
C5B C -1.1017(5) -0.1341(2) -0.1452(5)
H3B H -1.1768 -0.1589 -0.2247
C6B C -1.0139(4) -0.07920(18) 0.0950(5)
H4B H -1.0289 -0.0650 0.1825
C7A C -0.4373(4) -0.22449(18) 0.5184(5)
H5A H -0.3620 -0.2159 0.4851
C8A C -0.5189(4) -0.17720(18) 0.5394(5)
C9A C -0.6331(5) -0.1905(2) 0.5863(5)
H6A H -0.6905 -0.1599 0.6018
C10A C -0.6601(5) -0.2498(2) 0.6097(6)
H7A H -0.7375 -0.2598 0.6387
C11A C -0.5710(5) -0.2937(2) 0.5894(6)
H8A H -0.5878 -0.3334 0.6084
C12A C -0.4832(4) -0.11420(17) 0.5108(4)
C13B C 0.0075(4) -0.03441(18) 0.5081(4)
C14B C 0.5200(4) -0.03317(18) 0.9978(5)
N1B N -1.1240(4) -0.11524(16) -0.0181(4)
N1B_2 N 0.8760(4) -0.11524(16) 0.9819(4)
N2A N -0.4605(4) -0.28198(15) 0.5433(4)
N2B N 0.5395(4) -0.21802(15) 1.0433(4)
O1B O -0.7874(3) -0.00088(12) 0.3280(3)
O2B O -0.6255(3) -0.02387(13) 0.2235(3)
O3A O -0.3924(3) -0.10668(12) 0.4492(3)
O3C O -0.6076(3) 0.10668(12) 0.5508(3)
O4A O -0.5483(3) -0.07264(12) 0.5482(3)
O4C O -0.4517(3) 0.07264(12) 0.4518(3)
O5B O 0.6149(3) -0.05654(12) 1.1340(3)
O5B_2 O -0.3851(3) -0.05654(12) 0.1340(3)
O5_2 O -0.6149(3) 0.05654(12) 0.8660(3)
O6B O 0.4569(3) -0.05905(12) 0.8605(3)
O6_2 O -0.4569(3) 0.05905(12) 0.1395(3)
O6B_2 O -0.5431(3) -0.05905(12) 0.8605(3)
O7B O 0.1437(3) -0.05561(12) 0.5781(3)
O7B_2 O -0.8563(3) -0.05561(12) 0.5781(3)
O8B O -0.1174(3) -0.06381(12) 0.4507(3)
O8_2 O -0.8826(3) 0.06381(12) 0.5493(3)
O9 O 0.1119(5) 0.19558(18) 0.5560(5)
H9 H 0.0517 0.1933 0.5972
H10 H 0.1909 0.1752 0.6128
O10 O 0.9891(6) 0.2661(2) 0.2747(6)
H11 H 0.9730 0.3014 0.2940
H12 H 1.0254 0.2470 0.3638
loop_
_geom_bond_atom_site_label_1
_geom_bond_atom_site_label_2
_geom_bond_site_symmetry_1
_geom_bond_site_symmetry_2
Ag1 N1 1_555 1_555
Ho1 O1 1_555 1_555
C1 C2 1_555 1_555
C2 C3 1_555 1_555
C3 H1 1_555 1_555
C4 C3 1_555 1_555
H2 C4 1_555 1_555
C5 C4 1_555 1_555
H3 C5 1_555 1_555
C6 C2 1_555 1_555
H4 C6 1_555 1_555
C7 H5 1_555 1_555
C8 C7 1_555 1_555
C9 C8 1_555 1_555
H6 C9 1_555 1_555
C10 C9 1_555 1_555
H7 C10 1_555 1_555
C11 C10 1_555 1_555
H8 C11 1_555 1_555
C12 C8 1_555 1_555
C13 O7 1_555 1_555
C14 O5 1_555 1_555
N1 C5 1_555 1_555
N2 Ag1 1_555 1_555
O1 C1 1_555 1_555
O2 C1 1_555 1_555
O3 C12 1_555 1_555
O4 C12 1_555 1_555
O5 Ag1 1_555 1_555
O6 C14 1_555 1_555
O7 Ho1 1_555 1_555
O8 C13 1_555 1_555
O9 H9 1_555 1_555
H10 O9 1_555 1_555
O10 H11 1_555 1_555
H12 O10 1_555 1_555
Ag1B N1B_2 1_555 1_555
Ag1B_2 N1B 1_555 1_555
Ag1A N2A 1_555 1_555
Ho1B O2 1_555 1_555
Ho1A O3 1_555 1_555
Ho1C O4 1_555 1_555
Ho1B_2 O5 1_555 1_555
Ho1_2 O6 1_555 1_555
C1B C2B 1_555 1_555
C2B C3B 1_555 1_555
C3B H1B 1_555 1_555
C4B C3B 1_555 1_555
H2B C4B 1_555 1_555
C5B C4B 1_555 1_555
H3B C5B 1_555 1_555
C6B C2B 1_555 1_555
H4B C6B 1_555 1_555
C7A H5A 1_555 1_555
C8A C7A 1_555 1_555
C9A C8A 1_555 1_555
H6A C9A 1_555 1_555
C10A C9A 1_555 1_555
H7A C10A 1_555 1_555
C11A C10A 1_555 1_555
H8A C11A 1_555 1_555
C12A C8A 1_555 1_555
C13B C13 1_555 1_555
C14B C14 1_555 1_555
N1B C5B 1_555 1_555
N2A C7A 1_555 1_555
N2B Ag1B 1_555 1_555
O1B Ho1B 1_555 1_555
O2B Ho1 1_555 1_555
O3A Ho1 1_555 1_555
O3C Ho1B 1_555 1_555
O4A Ho1B 1_555 1_555
O4C Ho1 1_555 1_555
O5B Ag1B 1_555 1_555
O5B_2 Ho1 1_555 1_555
O5_2 Ho1B 1_555 1_555
O6B Ho1B_2 1_555 1_555
O6_2 Ho1 1_555 1_555
O6B_2 Ho1B 1_555 1_555
O7B Ho1B_2 1_555 1_555
O7B_2 Ho1B 1_555 1_555
O8B Ho1 1_555 1_555
O8_2 Ho1B 1_555 1_555
C6 N1 1_555 1_555
C7 N2 1_555 1_555
C11 N2 1_555 1_555
O8 Ho1B_2 1_555 1_555
Ho1_2 O5B 1_555 1_555
C1B O1B 1_555 1_555
C1B O2B 1_555 1_555
C6B N1B 1_555 1_555
C11A N2A 1_555 1_555
C12A O3A 1_555 1_555
C12A O4A 1_555 1_555
C13B O7B 1_555 1_555
C13B O8B 1_555 1_555
C14B O5B 1_555 1_555
C14B O6B 1_555 1_555

#END
