
#######################################################################
#
#                 Cambridge Crystallographic Data Centre
#                                CCDC 
#
#######################################################################
#
# If this CIF has been generated from an entry in the Cambridge 
# Structural Database, then it will include bibliographic, chemical, 
# crystal, experimental, refinement or atomic coordinate data resulting 
# from the CCDC's data processing and validation procedures.
#
#######################################################################

data_POXLEV
_symmetry_cell_setting           monoclinic
_symmetry_space_group_name_H-M   'C 2/c'
_symmetry_Int_Tables_number      15
_space_group_name_Hall           '-C 2yn'
loop_
_symmetry_equiv_pos_site_id
_symmetry_equiv_pos_as_xyz
1 x,y,z
2 -x,y,1/2-z
3 1/2+x,1/2+y,z
4 1/2-x,1/2+y,1/2-z
5 -x,-y,-z
6 x,-y,1/2+z
7 1/2-x,1/2-y,-z
8 1/2+x,1/2-y,1/2+z
_cell_length_a                   11.5931(2)
_cell_length_b                   18.0521(3)
_cell_length_c                   9.1948(2)
_cell_angle_alpha                90
_cell_angle_beta                 114.4570(10)
_cell_angle_gamma                90
_cell_volume                     1751.62
loop_
_atom_site_label
_atom_site_type_symbol
_atom_site_fract_x
_atom_site_fract_y
_atom_site_fract_z
O1 O 0.8095(3) 0.52883(16) 0.7669(4)
O2 O 0.8376(3) 0.56528(17) 1.0110(3)
O3 O 1.0967(3) 0.37727(16) 0.6728(4)
O4 O 1.0627(3) 0.41967(16) 0.4337(4)
C1 C 1.1081(4) 0.3725(2) 0.5442(5)
C2 C 1.1812(4) 0.3087(2) 0.5209(5)
C3 C 1.2485(5) 0.2625(2) 0.6481(5)
H1 H 1.2472 0.2707 0.7473
C4 C 0.7698(3) 0.5539(2) 0.8648(4)
C5 C 0.6309(3) 0.5689(2) 0.8052(5)
C6 C 1.1826(5) 0.2957(2) 0.3725(5)
H2 H 1.1368 0.3264 0.2866
C7 C 0.5557(4) 0.5721(3) 0.6427(5)
H3 H 0.5930 0.5733 0.5706
C8 C 0.5757(4) 0.5733(3) 0.9129(5)
H4 H 0.6261 0.5772 1.0218
Th1 Th 1.0000 0.481313(8) 0.7500
O1A O 0.1905(3) 0.52883(16) 0.7331(4)
O2A O 0.1624(3) 0.56528(17) 0.4890(3)
C4A C 0.2302(3) 0.5539(2) 0.6352(4)
C5A C 0.3691(3) 0.5689(2) 0.6948(5)
C7A C 0.4443(4) 0.5721(3) 0.8573(5)
H3A H 0.4070 0.5733 0.9294
C8A C 0.4243(4) 0.5733(3) 0.5871(5)
H4A H 0.3739 0.5772 0.4782
O3F O 1.4033(3) 0.12273(16) 0.3272(4)
C1F C 1.3919(4) 0.1275(2) 0.4558(5)
C2F C 1.3188(4) 0.1913(2) 0.4791(5)
C3F C 1.2515(5) 0.2375(2) 0.3519(5)
H1F H 1.2528 0.2293 0.2527
C6F C 1.3174(5) 0.2043(2) 0.6275(5)
H2F H 1.3632 0.1736 0.7134
O4F O 1.4373(3) 0.08033(16) 0.5663(4)
O1A_2 O 1.1905(3) 0.52883(16) 0.7331(4)
O2D O 1.1624(3) 0.43472(17) 0.9890(3)
O2E O 0.8376(3) 0.43472(17) 0.5110(3)
O3A O 0.9033(3) 0.37727(16) 0.8272(4)
O4D O 0.9373(3) 0.58033(16) 0.5663(4)
O4E O 1.0627(3) 0.58033(16) 0.9337(4)
Th1_2 Th 0.0000 0.481313(8) 0.7500
Th1B Th 1.5000 -0.018687(8) 0.7500
Th1D Th 0.0000 0.518687(8) 0.2500
Th1D_2 Th 1.0000 0.518687(8) 0.2500
Th1D_3 Th 1.0000 0.518687(8) 1.2500
Th1F Th 1.5000 0.018687(8) 0.2500
loop_
_geom_bond_atom_site_label_1
_geom_bond_atom_site_label_2
_geom_bond_site_symmetry_1
_geom_bond_site_symmetry_2
O1 C4 1_555 1_555
O2 C4 1_555 1_555
O3 C1 1_555 1_555
O4 C1 1_555 1_555
C1 C2 1_555 1_555
C2 C3 1_555 1_555
C3 H1 1_555 1_555
C4 C5 1_555 1_555
C5 C7 1_555 1_555
C6 C2 1_555 1_555
H2 C6 1_555 1_555
C7 H3 1_555 1_555
C8 C5 1_555 1_555
H4 C8 1_555 1_555
Th1 O1 1_555 1_555
O1A C4A 1_555 1_555
O2A C4A 1_555 1_555
C4A C5A 1_555 1_555
C5A C7A 1_555 1_555
C7A C8 1_555 1_555
H3A C7A 1_555 1_555
C8A C7 1_555 1_555
H4A C8A 1_555 1_555
O3F C1F 1_555 1_555
C1F C2F 1_555 1_555
C2F C3F 1_555 1_555
C3F C6 1_555 1_555
H1F C3F 1_555 1_555
C6F C3 1_555 1_555
H2F C6F 1_555 1_555
O4F C1F 1_555 1_555
O1A_2 Th1 1_555 1_555
O2D Th1 1_555 1_555
O2E Th1 1_555 1_555
O3A Th1 1_555 1_555
O4D Th1 1_555 1_555
O4E Th1 1_555 1_555
Th1_2 O1A 1_555 1_555
Th1B O4F 1_555 1_555
Th1D O2A 1_555 1_555
Th1D_2 O4 1_555 1_555
Th1D_3 O2 1_555 1_555
Th1F O3F 1_555 1_555
O3 Th1 1_555 1_555
C5A C8A 1_555 1_555
C2F C6F 1_555 1_555

#END
