
#######################################################################
#
#                 Cambridge Crystallographic Data Centre
#                                CCDC 
#
#######################################################################
#
# If this CIF has been generated from an entry in the Cambridge 
# Structural Database, then it will include bibliographic, chemical, 
# crystal, experimental, refinement or atomic coordinate data resulting 
# from the CCDC's data processing and validation procedures.
#
#######################################################################

data_PUFNUB
_symmetry_cell_setting           tetragonal
_symmetry_space_group_name_H-M   'P 4/m c c'
_symmetry_Int_Tables_number      124
_space_group_name_Hall           '-P 4 2c'
loop_
_symmetry_equiv_pos_site_id
_symmetry_equiv_pos_as_xyz
1 x,y,z
2 -x,-y,z
3 -y,x,z
4 y,-x,z
5 -x,y,1/2-z
6 x,-y,1/2-z
7 y,x,1/2-z
8 -y,-x,1/2-z
9 -x,-y,-z
10 x,y,-z
11 y,-x,-z
12 -y,x,-z
13 x,-y,1/2+z
14 -x,y,1/2+z
15 -y,-x,1/2+z
16 y,x,1/2+z
_cell_length_a                   15.3683(12)
_cell_length_b                   15.3683(12)
_cell_length_c                   9.895(2)
_cell_angle_alpha                90
_cell_angle_beta                 90
_cell_angle_gamma                90
_cell_volume                     2337.05
loop_
_atom_site_label
_atom_site_type_symbol
_atom_site_fract_x
_atom_site_fract_y
_atom_site_fract_z
Sm1 Sm 0.0000 0.0000 0.2500
S1 S 0.18079(6) 0.02778(7) 0.0000
O1 O 0.12862(15) 0.03213(14) 0.1217(3)
O2 O 0.24849(18) 0.09052(18) 0.0000
N1 N 0.3696(2) -0.4690(2) 0.0000
C1 C 0.2343(2) -0.0750(2) 0.0000
C2 C 0.25741(19) -0.11224(19) -0.1223(3)
H1 H 0.2403 -0.0871 -0.2036
C3 C 0.30617(19) -0.18713(19) -0.1207(3)
H2 H 0.3226 -0.2124 -0.2022
C4 C 0.3316(2) -0.2261(2) 0.0000
C5 C 0.3832(2) -0.3099(3) 0.0000
C6 C 0.3350(2) -0.3864(3) 0.0000
C7 C 0.2418(3) -0.3926(3) 0.0000
H3 H 0.2023 -0.3467 0.0000
C8 C 0.2226(3) -0.4789(3) 0.0000
H4 H 0.1669 -0.5026 0.0000
C9 C 0.3017(3) -0.5273(3) 0.0000
S1B S -0.02778(7) -0.81921(6) 0.0000
O1B O -0.03213(14) -0.87138(15) 0.1217(3)
O2B O -0.09052(18) -0.75151(18) 0.0000
N1B N 0.4690(2) -0.6304(2) 0.0000
C1B C 0.0750(2) -0.7657(2) 0.0000
C2B C 0.11224(19) -0.74259(19) -0.1223(3)
H1B H 0.0871 -0.7597 -0.2036
C3B C 0.18713(19) -0.69383(19) -0.1207(3)
H2B H 0.2124 -0.6774 -0.2022
C4B C 0.2261(2) -0.6684(2) 0.0000
C5B C 0.3099(3) -0.6168(2) 0.0000
C6B C 0.3864(3) -0.6650(2) 0.0000
C7B C 0.3926(3) -0.7582(3) 0.0000
H3B H 0.3467 -0.7977 0.0000
C8B C 0.4789(3) -0.7774(3) 0.0000
H4B H 0.5026 -0.8331 0.0000
C9B C 0.5273(3) -0.6983(3) 0.0000
S1C S 1.02778(7) -0.18079(6) 0.0000
O1C O 1.03213(14) -0.12862(15) 0.1217(3)
O2C O 1.09052(18) -0.24849(18) 0.0000
N1C N 0.5310(2) -0.3696(2) 0.0000
C1C C 0.9250(2) -0.2343(2) 0.0000
C2C C 0.88776(19) -0.25741(19) -0.1223(3)
H1C H 0.9129 -0.2403 -0.2036
C3C C 0.81287(19) -0.30617(19) -0.1207(3)
H2C H 0.7876 -0.3226 -0.2022
C4C C 0.7739(2) -0.3316(2) 0.0000
C5C C 0.6901(3) -0.3832(2) 0.0000
C6C C 0.6136(3) -0.3350(2) 0.0000
C7C C 0.6074(3) -0.2418(3) 0.0000
H3C H 0.6533 -0.2023 0.0000
C8C C 0.5211(3) -0.2226(3) 0.0000
H4C H 0.4974 -0.1669 0.0000
C9C C 0.4727(3) -0.3017(3) 0.0000
O1I O 0.12862(15) 0.03213(14) -0.1217(3)
C2I C 0.25741(19) -0.11224(19) 0.1223(3)
H1I H 0.2403 -0.0871 0.2036
C3I C 0.30617(19) -0.18713(19) 0.1207(3)
H2I H 0.3226 -0.2124 0.2022
O1J O 1.03213(14) -0.12862(15) -0.1217(3)
C2J C 0.88776(19) -0.25741(19) 0.1223(3)
H1J H 0.9129 -0.2403 0.2036
C3J C 0.81287(19) -0.30617(19) 0.1207(3)
H2J H 0.7876 -0.3226 0.2022
O1K O -0.03213(14) -0.87138(15) -0.1217(3)
C2K C 0.11224(19) -0.74259(19) 0.1223(3)
H1K H 0.0871 -0.7597 0.2036
C3K C 0.18713(19) -0.69383(19) 0.1207(3)
H2K H 0.2124 -0.6774 0.2022
S1A S 0.81921(6) -1.02778(7) 0.0000
O1A O 0.87138(15) -1.03213(14) 0.1217(3)
O2A O 0.75151(18) -1.09052(18) 0.0000
N1A N 0.6304(2) -0.5310(2) 0.0000
C1A C 0.7657(2) -0.9250(2) 0.0000
C2A C 0.74259(19) -0.88776(19) -0.1223(3)
H1A H 0.7597 -0.9129 -0.2036
C3A C 0.69383(19) -0.81287(19) -0.1207(3)
H2A H 0.6774 -0.7876 -0.2022
C4A C 0.6684(2) -0.7739(2) 0.0000
C5A C 0.6168(2) -0.6901(3) 0.0000
C6A C 0.6650(2) -0.6136(3) 0.0000
C7A C 0.7582(3) -0.6074(3) 0.0000
H3A H 0.7977 -0.6533 0.0000
C8A C 0.7774(3) -0.5211(3) 0.0000
H4A H 0.8331 -0.4974 0.0000
C9A C 0.6983(3) -0.4727(3) 0.0000
O1H O 0.87138(15) -1.03213(14) -0.1217(3)
C2H C 0.74259(19) -0.88776(19) 0.1223(3)
H1H H 0.7597 -0.9129 0.2036
C3H C 0.69383(19) -0.81287(19) 0.1207(3)
H2H H 0.6774 -0.7876 0.2022
Sm1_2 Sm 0.0000 -1.0000 0.2500
Sm1_3 Sm 1.0000 -1.0000 0.2500
Sm1_4 Sm 1.0000 0.0000 0.2500
Sm1H Sm 0.0000 -1.0000 -0.2500
Sm1H_2 Sm 0.0000 0.0000 -0.2500
Sm1H_3 Sm 1.0000 -1.0000 -0.2500
Sm1H_4 Sm 1.0000 0.0000 -0.2500
O1A_2 O -0.12862(15) -0.03213(14) 0.1217(3)
O1B_2 O -0.03213(14) 0.12862(15) 0.1217(3)
O1C_2 O 0.03213(14) -0.12862(15) 0.1217(3)
O1D O -0.12862(15) 0.03213(14) 0.3783(3)
O1E O 0.12862(15) -0.03213(14) 0.3783(3)
O1F O 0.03213(14) 0.12862(15) 0.3783(3)
O1G O -0.03213(14) -0.12862(15) 0.3783(3)
O3 O 0.5000 -0.5000 0.2500
loop_
_geom_bond_atom_site_label_1
_geom_bond_atom_site_label_2
_geom_bond_site_symmetry_1
_geom_bond_site_symmetry_2
Sm1 O1 1_555 1_555
S1 O1 1_555 1_555
O2 S1 1_555 1_555
N1 C6 1_555 1_555
C1 S1 1_555 1_555
C2 C1 1_555 1_555
H1 C2 1_555 1_555
C3 C2 1_555 1_555
H2 C3 1_555 1_555
C4 C3 1_555 1_555
C5 C4 1_555 1_555
C6 C5 1_555 1_555
C7 C6 1_555 1_555
H3 C7 1_555 1_555
C8 C7 1_555 1_555
H4 C8 1_555 1_555
C9 N1 1_555 1_555
S1B O1B 1_555 1_555
O1B Sm1_2 1_555 1_555
O2B S1B 1_555 1_555
N1B C6B 1_555 1_555
C1B S1B 1_555 1_555
C2B C1B 1_555 1_555
H1B C2B 1_555 1_555
C3B C2B 1_555 1_555
H2B C3B 1_555 1_555
C4B C3B 1_555 1_555
C5B C9 1_555 1_555
C6B C5B 1_555 1_555
C7B C6B 1_555 1_555
H3B C7B 1_555 1_555
C8B C7B 1_555 1_555
H4B C8B 1_555 1_555
C9B N1B 1_555 1_555
S1C O1C 1_555 1_555
O1C Sm1_4 1_555 1_555
O2C S1C 1_555 1_555
N1C C6C 1_555 1_555
C1C S1C 1_555 1_555
C2C C1C 1_555 1_555
H1C C2C 1_555 1_555
C3C C2C 1_555 1_555
H2C C3C 1_555 1_555
C4C C3C 1_555 1_555
C5C C4C 1_555 1_555
C6C C5C 1_555 1_555
C7C C6C 1_555 1_555
H3C C7C 1_555 1_555
C8C C7C 1_555 1_555
H4C C8C 1_555 1_555
C9C C5 1_555 1_555
O1I S1 1_555 1_555
C2I C1 1_555 1_555
H1I C2I 1_555 1_555
C3I C4 1_555 1_555
H2I C3I 1_555 1_555
O1J S1C 1_555 1_555
C2J C1C 1_555 1_555
H1J C2J 1_555 1_555
C3J C4C 1_555 1_555
H2J C3J 1_555 1_555
O1K S1B 1_555 1_555
C2K C1B 1_555 1_555
H1K C2K 1_555 1_555
C3K C4B 1_555 1_555
H2K C3K 1_555 1_555
S1A O1A 1_555 1_555
O1A Sm1_3 1_555 1_555
O2A S1A 1_555 1_555
N1A C6A 1_555 1_555
C1A S1A 1_555 1_555
C2A C1A 1_555 1_555
H1A C2A 1_555 1_555
C3A C2A 1_555 1_555
H2A C3A 1_555 1_555
C4A C3A 1_555 1_555
C5A C9B 1_555 1_555
C6A C5A 1_555 1_555
C7A C6A 1_555 1_555
H3A C7A 1_555 1_555
C8A C7A 1_555 1_555
H4A C8A 1_555 1_555
C9A C5C 1_555 1_555
O1H S1A 1_555 1_555
C2H C1A 1_555 1_555
H1H C2H 1_555 1_555
C3H C4A 1_555 1_555
H2H C3H 1_555 1_555
Sm1H O1K 1_555 1_555
Sm1H_2 O1I 1_555 1_555
Sm1H_3 O1H 1_555 1_555
Sm1H_4 O1J 1_555 1_555
O1A_2 Sm1 1_555 1_555
O1B_2 Sm1 1_555 1_555
O1C_2 Sm1 1_555 1_555
O1D Sm1 1_555 1_555
O1E Sm1 1_555 1_555
O1F Sm1 1_555 1_555
O1G Sm1 1_555 1_555
C8 C9 1_555 1_555
C4B C5B 1_555 1_555
C8B C9B 1_555 1_555
N1C C9C 1_555 1_555
C8C C9C 1_555 1_555
C2I C3I 1_555 1_555
C2J C3J 1_555 1_555
C2K C3K 1_555 1_555
N1A C9A 1_555 1_555
C4A C5A 1_555 1_555
C8A C9A 1_555 1_555
C2H C3H 1_555 1_555

#END
