
#######################################################################
#
#                 Cambridge Crystallographic Data Centre
#                                CCDC 
#
#######################################################################
#
# If this CIF has been generated from an entry in the Cambridge 
# Structural Database, then it will include bibliographic, chemical, 
# crystal, experimental, refinement or atomic coordinate data resulting 
# from the CCDC's data processing and validation procedures.
#
#######################################################################

data_PUGPEO
_symmetry_cell_setting           monoclinic
_symmetry_space_group_name_H-M   'C 2/c'
_symmetry_Int_Tables_number      15
_space_group_name_Hall           '-C 2yn'
loop_
_symmetry_equiv_pos_site_id
_symmetry_equiv_pos_as_xyz
1 x,y,z
2 -x,y,1/2-z
3 1/2+x,1/2+y,z
4 1/2-x,1/2+y,1/2-z
5 -x,-y,-z
6 x,-y,1/2+z
7 1/2-x,1/2-y,-z
8 1/2+x,1/2-y,1/2+z
_cell_length_a                   32.632(2)
_cell_length_b                   17.2264(9)
_cell_length_c                   10.1532(5)
_cell_angle_alpha                90
_cell_angle_beta                 93.448(5)
_cell_angle_gamma                90
_cell_volume                     5697.11
loop_
_atom_site_label
_atom_site_type_symbol
_atom_site_fract_x
_atom_site_fract_y
_atom_site_fract_z
Eu1 Eu 0.308259(10) 0.20956(2) 0.00171(3)
O1 O 0.28392(15) 0.1139(3) 0.1513(6)
O2 O 0.23208(15) 0.1900(3) 0.0938(5)
O3 O 0.26336(15) -0.1392(3) 0.3550(6)
O4 O 0.20130(17) -0.1934(4) 0.3368(6)
O5 O 0.37601(18) 0.2738(4) 0.0333(8)
O6 O 0.36372(19) 0.1948(4) 0.1895(6)
O7 O 0.34900(18) 0.0942(4) -0.0420(6)
O8 O 0.33350(19) 0.2352(5) -0.2163(7)
C1 C 0.2455(2) 0.1253(6) 0.1369(8)
C2 C 0.2176(2) 0.0606(5) 0.1685(8)
C3 C 0.2333(2) -0.0046(5) 0.2317(7)
H1 H 0.2611 -0.0071 0.2578
C4 C 0.2080(2) -0.0661(5) 0.2564(8)
C5 C 0.2259(3) -0.1376(6) 0.3234(8)
C6 C 0.1673(2) -0.0637(5) 0.2174(8)
H2 H 0.1508 -0.1061 0.2342
C7 C 0.1499(2) -0.0003(5) 0.1539(9)
C8 C 0.1771(2) 0.0620(5) 0.1272(9)
H3 H 0.1669 0.1048 0.0801
C9 C 0.1059(2) 0.0048(5) 0.1107(10)
C10 C 0.0791(3) -0.0448(9) 0.155(2)
H4 H 0.0879 -0.0816 0.2176
C11 C 0.0375(3) -0.0432(10) 0.110(2)
H5 H 0.0198 -0.0785 0.1468
C12 C 0.0224(2) 0.0028(6) 0.0232(13)
C13 C 0.0492(3) 0.0567(9) 0.002(2)
H6 H 0.0396 0.1004 -0.0438
C14 C 0.0893(3) 0.0552(6) 0.0411(16)
H7 H 0.1056 0.0954 0.0130
N1 N 0.3867(3) 0.2461(6) 0.1459(10)
O9 O 0.4166(3) 0.2703(5) 0.2115(11)
O1D O -0.28392(15) -0.1139(3) -0.1513(6)
O2D O -0.23208(15) -0.1900(3) -0.0938(5)
O3D O -0.26336(15) 0.1392(3) -0.3550(6)
O4D O -0.20130(17) 0.1934(4) -0.3368(6)
C1D C -0.2455(2) -0.1253(6) -0.1369(8)
C2D C -0.2176(2) -0.0606(5) -0.1685(8)
C3D C -0.2333(2) 0.0046(5) -0.2317(7)
H1D H -0.2611 0.0071 -0.2578
C4D C -0.2080(2) 0.0661(5) -0.2564(8)
C5D C -0.2259(3) 0.1376(6) -0.3234(8)
C6D C -0.1673(2) 0.0637(5) -0.2174(8)
H2D H -0.1508 0.1061 -0.2342
C7D C -0.1499(2) 0.0003(5) -0.1539(9)
C8D C -0.1771(2) -0.0620(5) -0.1272(9)
H3D H -0.1669 -0.1048 -0.0801
C9D C -0.1059(2) -0.0048(5) -0.1107(10)
C10D C -0.0791(3) 0.0448(9) -0.155(2)
H4D H -0.0879 0.0816 -0.2176
C11D C -0.0375(3) 0.0432(10) -0.110(2)
H5D H -0.0198 0.0785 -0.1468
C12D C -0.0224(2) -0.0028(6) -0.0232(13)
C13D C -0.0492(3) -0.0567(9) -0.002(2)
H6D H -0.0396 -0.1004 0.0438
C14D C -0.0893(3) -0.0552(6) -0.0411(16)
H7D H -0.1056 -0.0954 -0.0130
Eu1A Eu -0.308259(10) 0.20956(2) -0.50171(3)
O5A O -0.37601(18) 0.2738(4) -0.5333(8)
O6A O -0.36372(19) 0.1948(4) -0.6895(6)
O7A O -0.34900(18) 0.0942(4) -0.4580(6)
O8A O -0.33350(19) 0.2352(5) -0.2837(7)
N1A N -0.3867(3) 0.2461(6) -0.6459(10)
O9A O -0.4166(3) 0.2703(5) -0.7115(11)
Eu1B Eu -0.191741(10) -0.29044(2) 0.00171(3)
Eu1C Eu 0.191741(10) -0.29044(2) 0.49829(3)
Eu1D Eu -0.308259(10) -0.20956(2) -0.00171(3)
Eu1E Eu 0.308259(10) -0.20956(2) 0.50171(3)
Eu1F Eu 0.191741(10) 0.29044(2) -0.00171(3)
Eu1G Eu -0.191741(10) 0.29044(2) -0.49829(3)
O1A O -0.28392(15) 0.1139(3) -0.6513(6)
O2A O -0.23208(15) 0.1900(3) -0.5938(5)
O2F O 0.26792(15) 0.3100(3) -0.0938(5)
O2G O -0.26792(15) 0.3100(3) -0.4062(5)
O3E O 0.26336(15) 0.1392(3) -0.1450(6)
O4B O -0.29870(17) 0.3066(4) -0.6632(6)
O4C O 0.29870(17) 0.3066(4) 0.1632(6)
loop_
_geom_bond_atom_site_label_1
_geom_bond_atom_site_label_2
_geom_bond_site_symmetry_1
_geom_bond_site_symmetry_2
Eu1 O1 1_555 1_555
O1 C1 1_555 1_555
O2 Eu1 1_555 1_555
O3 C5 1_555 1_555
O4 C5 1_555 1_555
O5 Eu1 1_555 1_555
O6 Eu1 1_555 1_555
O7 Eu1 1_555 1_555
O8 Eu1 1_555 1_555
C1 O2 1_555 1_555
C2 C1 1_555 1_555
C3 C2 1_555 1_555
H1 C3 1_555 1_555
C4 C3 1_555 1_555
C5 C4 1_555 1_555
C6 C4 1_555 1_555
H2 C6 1_555 1_555
C7 C6 1_555 1_555
C8 C2 1_555 1_555
H3 C8 1_555 1_555
C9 C7 1_555 1_555
C10 C9 1_555 1_555
H4 C10 1_555 1_555
C11 C10 1_555 1_555
H5 C11 1_555 1_555
C12 C11 1_555 1_555
C13 C12 1_555 1_555
H6 C13 1_555 1_555
C14 C9 1_555 1_555
H7 C14 1_555 1_555
N1 O5 1_555 1_555
O9 N1 1_555 1_555
O1D C1D 1_555 1_555
O2D C1D 1_555 1_555
O3D C5D 1_555 1_555
O4D C5D 1_555 1_555
C1D C2D 1_555 1_555
C2D C3D 1_555 1_555
C3D H1D 1_555 1_555
C4D C3D 1_555 1_555
C5D C4D 1_555 1_555
C6D C4D 1_555 1_555
H2D C6D 1_555 1_555
C7D C6D 1_555 1_555
C8D C2D 1_555 1_555
H3D C8D 1_555 1_555
C9D C7D 1_555 1_555
C10D C9D 1_555 1_555
H4D C10D 1_555 1_555
C11D C10D 1_555 1_555
H5D C11D 1_555 1_555
C12D C12 1_555 1_555
C13D C12D 1_555 1_555
H6D C13D 1_555 1_555
C14D C9D 1_555 1_555
H7D C14D 1_555 1_555
Eu1A O3D 1_555 1_555
O5A Eu1A 1_555 1_555
O6A Eu1A 1_555 1_555
O7A Eu1A 1_555 1_555
O8A Eu1A 1_555 1_555
N1A O5A 1_555 1_555
O9A N1A 1_555 1_555
Eu1B O2D 1_555 1_555
Eu1C O4 1_555 1_555
Eu1D O1D 1_555 1_555
Eu1E O3 1_555 1_555
Eu1F O2 1_555 1_555
Eu1G O4D 1_555 1_555
O1A Eu1A 1_555 1_555
O2A Eu1A 1_555 1_555
O2F Eu1 1_555 1_555
O2G Eu1A 1_555 1_555
O3E Eu1 1_555 1_555
O4B Eu1A 1_555 1_555
O4C Eu1 1_555 1_555
O6 N1 1_555 1_555
C7 C8 1_555 1_555
C13 C14 1_555 1_555
O2D Eu1D 1_555 1_555
C7D C8D 1_555 1_555
C11D C12D 1_555 1_555
C13D C14D 1_555 1_555
O6A N1A 1_555 1_555
Eu1F O2F 1_555 1_555
Eu1G O2A 1_555 1_555
Eu1G O2G 1_555 1_555

#END
