
#######################################################################
#
#                 Cambridge Crystallographic Data Centre
#                                CCDC 
#
#######################################################################
#
# If this CIF has been generated from an entry in the Cambridge 
# Structural Database, then it will include bibliographic, chemical, 
# crystal, experimental, refinement or atomic coordinate data resulting 
# from the CCDC's data processing and validation procedures.
#
#######################################################################

data_PUGSER
_symmetry_cell_setting           monoclinic
_symmetry_space_group_name_H-M   'P 21/n'
_symmetry_Int_Tables_number      14
_space_group_name_Hall           '-P 2yn'
loop_
_symmetry_equiv_pos_site_id
_symmetry_equiv_pos_as_xyz
1 x,y,z
2 1/2-x,1/2+y,1/2-z
3 -x,-y,-z
4 1/2+x,1/2-y,1/2+z
_cell_length_a                   10.316(2)
_cell_length_b                   26.096(5)
_cell_length_c                   27.889(6)
_cell_angle_alpha                90
_cell_angle_beta                 93.78(3)
_cell_angle_gamma                90
_cell_volume                     7491.56
loop_
_atom_site_label
_atom_site_type_symbol
_atom_site_fract_x
_atom_site_fract_y
_atom_site_fract_z
C1 C 0.6916(4) 0.23837(17) 0.56686(16)
C2 C 0.5615(4) 0.23512(18) 0.53805(16)
C3 C 0.4490(4) 0.23582(18) 0.56169(16)
H1 H 0.4532 0.2343 0.5954
C4 C 0.3302(4) 0.23866(19) 0.53638(16)
C5 C 0.3238(4) 0.2370(2) 0.48736(17)
H2 H 0.2423 0.2379 0.4702
C6 C 0.4382(4) 0.2339(2) 0.46178(17)
C7 C 0.5555(4) 0.2338(2) 0.48882(18)
H3 H 0.6331 0.2327 0.4730
C8 C 0.2076(4) 0.24317(18) 0.56328(17)
C9 C 0.4326(5) 0.2335(2) 0.40852(18)
C10 C 0.3321(6) 0.2563(2) 0.3810(2)
H4 H 0.2658 0.2730 0.3965
C11 C 0.3263(6) 0.2552(2) 0.3317(2)
H5 H 0.2563 0.2710 0.3141
C12 C 0.4221(5) 0.2311(2) 0.30737(17)
C13 C 0.5236(6) 0.2095(3) 0.3347(2)
H6 H 0.5933 0.1950 0.3194
C14 C 0.5244(6) 0.2089(3) 0.3845(2)
H7 H 0.5907 0.1910 0.4021
C15 C 0.4188(6) 0.2302(2) 0.2537(2)
C16 C 0.9444(6) 0.3965(3) 0.5564(3)
C17 C 0.9359(11) 0.4429(3) 0.5240(4)
H8 H 0.8473 0.4556 0.5215
H9 H 0.9616 0.4336 0.4923
H10 H 0.9934 0.4695 0.5374
C18 C 1.2416(4) 0.35767(16) 0.69099(16)
C19 C 1.3648(4) 0.38504(17) 0.70301(17)
C20 C 1.4800(4) 0.36201(17) 0.69177(18)
H11 H 1.4800 0.3285 0.6793
C21 C 1.5966(4) 0.38932(17) 0.69922(18)
C22 C 1.5961(5) 0.43732(18) 0.72015(19)
H12 H 1.6752 0.4548 0.7259
C23 C 1.4825(4) 0.46052(18) 0.7329(2)
C24 C 1.3657(5) 0.43415(18) 0.72238(19)
H13 H 1.2866 0.4499 0.7285
C25 C 1.7172(4) 0.36382(17) 0.68335(18)
C26 C 1.4840(5) 0.51203(19) 0.75317(19)
C27 C 1.5903(5) 0.5300(2) 0.7818(2)
H14 H 1.6639 0.5092 0.7876
C28 C 1.5874(5) 0.5788(2) 0.8019(2)
H15 H 1.6587 0.5900 0.8219
C29 C 1.4838(4) 0.61073(18) 0.79336(19)
C30 C 1.3804(5) 0.5938(2) 0.7649(2)
H16 H 1.3077 0.6152 0.7591
C31 C 1.3810(5) 0.5464(2) 0.7447(2)
H17 H 1.3093 0.5364 0.7243
C32 C 1.4862(5) 0.66425(17) 0.81442(17)
O1 O 0.9663(2) 0.29017(9) 0.63349(9)
O2 O 0.7876(3) 0.25198(13) 0.54321(12)
O3 O 0.6923(3) 0.23041(11) 0.61069(10)
O4 O 0.2189(3) 0.23664(13) 0.60716(11)
O5 O 0.1040(3) 0.25442(14) 0.53831(12)
O6 O 0.3240(4) 0.25164(15) 0.23129(13)
O7 O 0.5116(4) 0.2106(2) 0.23539(15)
O8 O 1.1364(3) 0.38278(11) 0.68729(12)
O9 O 1.2501(3) 0.30901(12) 0.68551(12)
O10 O 1.7075(3) 0.32153(12) 0.66388(14)
O11 O 1.8241(3) 0.38851(13) 0.69155(13)
O12 O 1.5846(3) 0.67914(12) 0.83884(12)
O13 O 1.3843(3) 0.69181(12) 0.80522(12)
O14 O 0.9588(4) 0.40381(15) 0.59969(17)
O15 O 0.9404(4) 0.35356(17) 0.53615(15)
Zn1 Zn 1.11818(4) 0.258192(17) 0.665610(17)
Zn2 Zn 0.82389(4) 0.253038(17) 0.661049(17)
Zn3 Zn 0.96788(5) 0.35923(2) 0.65913(2)
Zn4 Zn 0.95220(5) 0.28501(2) 0.565654(18)
O4_2 O 1.2189(3) 0.23664(13) 0.60716(11)
O5_2 O 1.1040(3) 0.25442(14) 0.53831(12)
O6C O 0.8240(4) 0.24836(15) 0.73129(13)
O7C O 1.0116(4) 0.2894(2) 0.73539(15)
O10_2 O 0.7075(3) 0.32153(12) 0.66388(14)
O11_2 O 0.8241(3) 0.38851(13) 0.69155(13)
O12A O 0.9154(3) 0.17914(12) 0.66116(12)
O13A O 1.1157(3) 0.19181(12) 0.69478(12)
Zn1_2 Zn 0.11818(4) 0.258192(17) 0.665610(17)
Zn1A Zn 1.38182(4) 0.758192(17) 0.834390(17)
Zn1C Zn 0.61818(4) 0.241808(17) 0.165610(17)
Zn2_2 Zn 1.82389(4) 0.253038(17) 0.661049(17)
Zn2A Zn 1.67611(4) 0.753038(17) 0.838951(17)
Zn2C Zn 0.32389(4) 0.246962(17) 0.161049(17)
Zn3_2 Zn 1.96788(5) 0.35923(2) 0.65913(2)
Zn4_2 Zn -0.04780(5) 0.28501(2) 0.565654(18)
C33 C 0.7965(16) 0.5306(6) 0.6418(6)
H18 H 0.7818 0.4946 0.6482
H19 H 0.7453 0.5407 0.6129
H20 H 0.7709 0.5509 0.6687
C34 C 1.0319(15) 0.5044(6) 0.6716(6)
H21 H 0.9866 0.4962 0.7000
H22 H 1.1104 0.5234 0.6809
H23 H 1.0545 0.4729 0.6557
N1 N 0.9377(15) 0.5392(6) 0.6349(6)
H24 H 0.9568 0.5729 0.6398
H25 H 0.9539 0.5314 0.6041
loop_
_geom_bond_atom_site_label_1
_geom_bond_atom_site_label_2
_geom_bond_site_symmetry_1
_geom_bond_site_symmetry_2
C1 C2 1_555 1_555
C2 C3 1_555 1_555
C3 H1 1_555 1_555
C4 C3 1_555 1_555
C5 C4 1_555 1_555
H2 C5 1_555 1_555
C6 C5 1_555 1_555
C7 C2 1_555 1_555
H3 C7 1_555 1_555
C8 C4 1_555 1_555
C9 C6 1_555 1_555
C10 C9 1_555 1_555
H4 C10 1_555 1_555
C11 C10 1_555 1_555
H5 C11 1_555 1_555
C12 C11 1_555 1_555
C13 C12 1_555 1_555
H6 C13 1_555 1_555
C14 C9 1_555 1_555
H7 C14 1_555 1_555
C15 C12 1_555 1_555
C16 C17 1_555 1_555
C17 H8 1_555 1_555
H9 C17 1_555 1_555
H10 C17 1_555 1_555
C18 C19 1_555 1_555
C19 C20 1_555 1_555
C20 H11 1_555 1_555
C21 C20 1_555 1_555
C22 C21 1_555 1_555
H12 C22 1_555 1_555
C23 C22 1_555 1_555
C24 C19 1_555 1_555
H13 C24 1_555 1_555
C25 C21 1_555 1_555
C26 C23 1_555 1_555
C27 C26 1_555 1_555
H14 C27 1_555 1_555
C28 C27 1_555 1_555
H15 C28 1_555 1_555
C29 C28 1_555 1_555
C30 C29 1_555 1_555
H16 C30 1_555 1_555
C31 C26 1_555 1_555
H17 C31 1_555 1_555
C32 C29 1_555 1_555
O1 Zn1 1_555 1_555
O2 C1 1_555 1_555
O3 C1 1_555 1_555
O4 C8 1_555 1_555
O5 C8 1_555 1_555
O6 C15 1_555 1_555
O7 C15 1_555 1_555
O8 C18 1_555 1_555
O9 C18 1_555 1_555
O10 C25 1_555 1_555
O11 C25 1_555 1_555
O12 C32 1_555 1_555
O13 C32 1_555 1_555
O14 C16 1_555 1_555
O15 C16 1_555 1_555
Zn1 O9 1_555 1_555
Zn2 O1 1_555 1_555
Zn3 O1 1_555 1_555
Zn4 O1 1_555 1_555
C33 H18 1_555 1_555
H19 C33 1_555 1_555
H20 C33 1_555 1_555
C34 H21 1_555 1_555
H22 C34 1_555 1_555
H23 C34 1_555 1_555
N1 C33 1_555 1_555
H24 N1 1_555 1_555
H25 N1 1_555 1_555
O4_2 Zn1 1_555 1_555
O5_2 Zn4 1_555 1_555
O6C Zn2 1_555 1_555
O7C Zn1 1_555 1_555
O10_2 Zn2 1_555 1_555
O11_2 Zn3 1_555 1_555
O12A Zn2 1_555 1_555
O13A Zn1 1_555 1_555
Zn1_2 O4 1_555 1_555
Zn1A O13 1_555 1_555
Zn1C O7 1_555 1_555
Zn2_2 O10 1_555 1_555
Zn2A O12 1_555 1_555
Zn2C O6 1_555 1_555
Zn3_2 O11 1_555 1_555
Zn4_2 O5 1_555 1_555
C6 C7 1_555 1_555
C13 C14 1_555 1_555
C23 C24 1_555 1_555
C30 C31 1_555 1_555
O2 Zn4 1_555 1_555
O3 Zn2 1_555 1_555
O8 Zn3 1_555 1_555
O14 Zn3 1_555 1_555
O15 Zn4 1_555 1_555
C34 N1 1_555 1_555

#END
