
#######################################################################
#
#                 Cambridge Crystallographic Data Centre
#                                CCDC 
#
#######################################################################
#
# If this CIF has been generated from an entry in the Cambridge 
# Structural Database, then it will include bibliographic, chemical, 
# crystal, experimental, refinement or atomic coordinate data resulting 
# from the CCDC's data processing and validation procedures.
#
#######################################################################

data_PUGSIV
_symmetry_cell_setting           monoclinic
_symmetry_space_group_name_H-M   'P 21/n'
_symmetry_Int_Tables_number      14
_space_group_name_Hall           '-P 2yn'
loop_
_symmetry_equiv_pos_site_id
_symmetry_equiv_pos_as_xyz
1 x,y,z
2 1/2-x,1/2+y,1/2-z
3 -x,-y,-z
4 1/2+x,1/2-y,1/2+z
_cell_length_a                   10.306(2)
_cell_length_b                   27.776(6)
_cell_length_c                   26.232(5)
_cell_angle_alpha                90
_cell_angle_beta                 91.84(3)
_cell_angle_gamma                90
_cell_volume                     7505.29
loop_
_atom_site_label
_atom_site_type_symbol
_atom_site_fract_x
_atom_site_fract_y
_atom_site_fract_z
C1 C 0.3097(3) 0.69610(11) 0.37021(12)
C2 C 0.4348(3) 0.70841(12) 0.39815(13)
C3 C 0.5500(3) 0.69719(13) 0.37461(12)
H1 H 0.5479 0.6842 0.3419
C4 C 0.6677(3) 0.70533(13) 0.39994(13)
C5 C 0.6714(3) 0.72535(14) 0.44854(13)
H2 H 0.7511 0.7310 0.4651
C6 C 0.5568(3) 0.73718(15) 0.47291(13)
C7 C 0.4386(3) 0.72776(13) 0.44713(13)
H3 H 0.3612 0.7345 0.4630
C8 C 0.7899(3) 0.68888(13) 0.37543(13)
C9 C 0.5612(3) 0.75801(15) 0.52504(14)
C10 C 0.6619(4) 0.7475(2) 0.55901(16)
H4 H 0.7289 0.7277 0.5487
C11 C 0.6657(4) 0.76559(19) 0.60783(16)
H5 H 0.7349 0.7578 0.6299
C12 C 0.5688(4) 0.79508(15) 0.62442(14)
C13 C 0.4669(4) 0.80610(17) 0.59089(16)
H6 H 0.4008 0.8263 0.6011
C14 C 0.4632(4) 0.78711(18) 0.54225(16)
H7 H 0.3928 0.7941 0.5205
C15 C 0.5726(3) 0.81453(14) 0.67795(13)
C16 C -0.2231(3) 0.56723(11) 0.25418(12)
C17 C -0.3483(3) 0.53958(11) 0.24951(12)
C18 C -0.4641(3) 0.56407(11) 0.25231(13)
H8 H -0.4643 0.5975 0.2547
C19 C -0.5804(3) 0.53892(11) 0.25155(13)
C20 C -0.5799(3) 0.48911(11) 0.24635(14)
H9 H -0.6582 0.4724 0.2454
C21 C -0.4631(3) 0.46359(12) 0.24248(15)
C22 C -0.3475(3) 0.48999(12) 0.24518(14)
H10 H -0.2685 0.4739 0.2440
C23 C -0.7051(3) 0.56575(11) 0.25889(13)
C24 C -0.4643(3) 0.41082(12) 0.23673(16)
C25 C -0.5666(4) 0.38767(15) 0.2113(2)
H11 H -0.6351 0.4056 0.1972
C26 C -0.5673(4) 0.33776(15) 0.2066(2)
H12 H -0.6369 0.3228 0.1896
C27 C -0.4683(4) 0.31025(13) 0.22630(17)
C28 C -0.3656(4) 0.33315(14) 0.2508(2)
H13 H -0.2968 0.3150 0.2642
C29 C -0.3629(4) 0.38242(14) 0.2559(2)
H14 H -0.2921 0.3970 0.2725
C30 C -0.4720(4) 0.25666(13) 0.22077(17)
C31 C 0.0327(4) 0.56008(14) 0.41080(15)
C32 C 0.0152(4) 0.52890(15) 0.45724(15)
C33 C 0.0128(6) 0.48039(19) 0.45325(19)
H15 H 0.0245 0.4660 0.4217
C34 C 0.0070(6) 0.54809(18) 0.50430(17)
H16 H 0.0149 0.5812 0.5083
O1 O 0.04229(17) 0.63662(7) 0.30456(7)
O2 O 0.2099(2) 0.69135(9) 0.39667(9)
O3 O 0.3158(2) 0.69061(9) 0.32303(9)
O4 O 0.7784(2) 0.66732(11) 0.33416(11)
O5 O 0.8961(2) 0.69725(9) 0.39923(10)
O6 O 0.6728(2) 0.80427(10) 0.70500(10)
O7 O 0.4787(3) 0.83823(10) 0.69270(10)
O8 O -0.2298(2) 0.61148(8) 0.24523(9)
O9 O -0.1221(2) 0.54424(8) 0.26697(10)
O10 O -0.7017(2) 0.61004(8) 0.25430(10)
O11 O -0.8044(2) 0.54094(8) 0.26968(9)
O12 O -0.5677(3) 0.23804(11) 0.19919(15)
O13 O -0.3778(3) 0.23345(9) 0.24053(12)
O14 O 0.0416(3) 0.60414(10) 0.41799(10)
O15 O 0.0359(3) 0.53896(10) 0.36828(10)
Zn1 Zn 0.18552(3) 0.668494(12) 0.272614(13)
Zn2 Zn -0.10807(3) 0.663264(12) 0.266623(13)
Zn3 Zn 0.04443(3) 0.662907(13) 0.372541(14)
Zn4 Zn 0.04077(3) 0.567871(12) 0.299933(13)
C31B C -0.0327(4) 0.43992(14) 0.58920(15)
C32B C -0.0152(4) 0.47110(15) 0.54276(15)
C33B C -0.0128(6) 0.51961(19) 0.54675(19)
H15B H -0.0245 0.5340 0.5783
C34B C -0.0070(6) 0.45191(18) 0.49570(17)
H16B H -0.0149 0.4188 0.4917
O14B O -0.0416(3) 0.39586(10) 0.58201(10)
O15B O -0.0359(3) 0.46104(10) 0.63172(10)
C1B C -0.3097(3) 0.30390(11) 0.62979(12)
C2B C -0.4348(3) 0.29159(12) 0.60185(13)
C3B C -0.5500(3) 0.30281(13) 0.62539(12)
H1B H -0.5479 0.3158 0.6581
C4B C -0.6677(3) 0.29467(13) 0.60006(13)
C5B C -0.6714(3) 0.27465(14) 0.55146(13)
H2B H -0.7511 0.2690 0.5349
C6B C -0.5568(3) 0.26282(15) 0.52709(13)
C7B C -0.4386(3) 0.27224(13) 0.55287(13)
H3B H -0.3612 0.2655 0.5370
C8B C -0.7899(3) 0.31112(13) 0.62457(13)
C9B C -0.5612(3) 0.24199(15) 0.47496(14)
C10B C -0.6619(4) 0.2525(2) 0.44099(16)
H4B H -0.7289 0.2723 0.4513
C11B C -0.6657(4) 0.23441(19) 0.39217(16)
H5B H -0.7349 0.2422 0.3701
C12B C -0.5688(4) 0.20492(15) 0.37558(14)
C13B C -0.4669(4) 0.19390(17) 0.40911(16)
H6B H -0.4008 0.1737 0.3989
C14B C -0.4632(4) 0.21289(18) 0.45775(16)
H7B H -0.3928 0.2059 0.4795
C15B C -0.5726(3) 0.18547(14) 0.32205(13)
C16B C 0.2231(3) 0.43277(11) 0.74582(12)
C17B C 0.3483(3) 0.46042(11) 0.75049(12)
C18B C 0.4641(3) 0.43593(11) 0.74769(13)
H8B H 0.4643 0.4025 0.7453
C19B C 0.5804(3) 0.46108(11) 0.74845(13)
C20B C 0.5799(3) 0.51089(11) 0.75365(14)
H9B H 0.6582 0.5276 0.7546
C21B C 0.4631(3) 0.53641(12) 0.75752(15)
C22B C 0.3475(3) 0.51001(12) 0.75482(14)
H10B H 0.2685 0.5261 0.7560
C23B C 0.7051(3) 0.43425(11) 0.74111(13)
C24B C 0.4643(3) 0.58918(12) 0.76327(16)
C25B C 0.5666(4) 0.61233(15) 0.7887(2)
H11B H 0.6351 0.5944 0.8028
C26B C 0.5673(4) 0.66224(15) 0.7934(2)
H12B H 0.6369 0.6772 0.8104
C27B C 0.4683(4) 0.68975(13) 0.77370(17)
C28B C 0.3656(4) 0.66685(14) 0.7492(2)
H13B H 0.2968 0.6850 0.7358
C29B C 0.3629(4) 0.61758(14) 0.7441(2)
H14B H 0.2921 0.6030 0.7275
C30B C 0.4720(4) 0.74334(13) 0.77923(17)
O1B O -0.04229(17) 0.36338(7) 0.69544(7)
O2B O -0.2099(2) 0.30865(9) 0.60333(9)
O3B O -0.3158(2) 0.30939(9) 0.67697(9)
O4B O -0.7784(2) 0.33268(11) 0.66584(11)
O5B O -0.8961(2) 0.30275(9) 0.60077(10)
O6B O -0.6728(2) 0.19573(10) 0.29500(10)
O7B O -0.4787(3) 0.16177(10) 0.30730(10)
O8B O 0.2298(2) 0.38852(8) 0.75477(9)
O9B O 0.1221(2) 0.45576(8) 0.73303(10)
O10B O 0.7017(2) 0.38996(8) 0.74570(10)
O11B O 0.8044(2) 0.45906(8) 0.73032(9)
O12B O 0.5677(3) 0.76196(11) 0.80081(15)
O13B O 0.3778(3) 0.76655(9) 0.75947(12)
Zn1B Zn -0.18552(3) 0.331506(12) 0.727386(13)
Zn2B Zn 0.10807(3) 0.336736(12) 0.733377(13)
Zn3B Zn -0.04443(3) 0.337093(13) 0.627459(14)
Zn4B Zn -0.04077(3) 0.432129(12) 0.700067(13)
O4_2 O -0.2216(2) 0.66732(11) 0.33416(11)
O4B_2 O 0.2216(2) 0.33268(11) 0.66584(11)
O5_2 O -0.1039(2) 0.69725(9) 0.39923(10)
O5B_2 O 0.1039(2) 0.30275(9) 0.60077(10)
O6A O -0.1728(2) 0.30427(10) 0.79500(10)
O6C O 0.1728(2) 0.69573(10) 0.20500(10)
O7A O 0.0213(3) 0.33823(10) 0.80730(10)
O7C O -0.0213(3) 0.66177(10) 0.19270(10)
O10_2 O 0.2983(2) 0.61004(8) 0.25430(10)
O10B_2 O -0.2983(2) 0.38996(8) 0.74570(10)
O11_2 O 0.1956(2) 0.54094(8) 0.26968(9)
O11B_2 O -0.1956(2) 0.45906(8) 0.73032(9)
O12A O 0.0677(3) 0.73804(11) 0.30081(15)
O12C O -0.0677(3) 0.26196(11) 0.69919(15)
O13A O -0.1222(3) 0.73345(9) 0.25947(12)
O13C O 0.1222(3) 0.26655(9) 0.74053(12)
Zn1_2 Zn -0.81448(3) 0.668494(12) 0.272614(13)
Zn1A Zn -0.68552(3) 0.168494(12) 0.227386(13)
Zn1B_2 Zn 0.81448(3) 0.331506(12) 0.727386(13)
Zn1C Zn 0.68552(3) 0.831506(12) 0.772614(13)
Zn2_2 Zn 0.89193(3) 0.663264(12) 0.266623(13)
Zn2A Zn -0.39193(3) 0.163264(12) 0.233377(13)
Zn2B_2 Zn -0.89193(3) 0.336736(12) 0.733377(13)
Zn2C Zn 0.39193(3) 0.836736(12) 0.766623(13)
Zn3_2 Zn 1.04443(3) 0.662907(13) 0.372541(14)
Zn3B_2 Zn -1.04443(3) 0.337093(13) 0.627459(14)
Zn4_2 Zn -0.95923(3) 0.567871(12) 0.299933(13)
Zn4B_2 Zn 0.95923(3) 0.432129(12) 0.700067(13)
N1 N 0.4992(6) 0.53512(18) 0.39280(17)
H17 H 0.4796 0.5158 0.3661
H18 H 0.4873 0.5177 0.4212
C35 C 0.6327(6) 0.54569(18) 0.39120(17)
H19 H 0.6441 0.5795 0.3851
H20 H 0.6706 0.5276 0.3643
H21 H 0.6744 0.5372 0.4232
C36 C 0.4100(6) 0.57119(18) 0.39222(17)
H22 H 0.4499 0.6002 0.4049
H23 H 0.3395 0.5625 0.4134
H24 H 0.3776 0.5763 0.3579
loop_
_geom_bond_atom_site_label_1
_geom_bond_atom_site_label_2
_geom_bond_site_symmetry_1
_geom_bond_site_symmetry_2
C1 C2 1_555 1_555
C2 C3 1_555 1_555
C3 H1 1_555 1_555
C4 C3 1_555 1_555
C5 C4 1_555 1_555
H2 C5 1_555 1_555
C6 C5 1_555 1_555
C7 C2 1_555 1_555
H3 C7 1_555 1_555
C8 C4 1_555 1_555
C9 C6 1_555 1_555
C10 C9 1_555 1_555
H4 C10 1_555 1_555
C11 C10 1_555 1_555
H5 C11 1_555 1_555
C12 C11 1_555 1_555
C13 C12 1_555 1_555
H6 C13 1_555 1_555
C14 C9 1_555 1_555
H7 C14 1_555 1_555
C15 C12 1_555 1_555
C16 C17 1_555 1_555
C17 C18 1_555 1_555
C18 H8 1_555 1_555
C19 C18 1_555 1_555
C20 C19 1_555 1_555
H9 C20 1_555 1_555
C21 C20 1_555 1_555
C22 C17 1_555 1_555
H10 C22 1_555 1_555
C23 C19 1_555 1_555
C24 C21 1_555 1_555
C25 C24 1_555 1_555
H11 C25 1_555 1_555
C26 C25 1_555 1_555
H12 C26 1_555 1_555
C27 C26 1_555 1_555
C28 C27 1_555 1_555
H13 C28 1_555 1_555
C29 C24 1_555 1_555
H14 C29 1_555 1_555
C30 C27 1_555 1_555
C31 C32 1_555 1_555
C32 C33 1_555 1_555
C33 H15 1_555 1_555
C34 C32 1_555 1_555
H16 C34 1_555 1_555
O1 Zn1 1_555 1_555
O2 C1 1_555 1_555
O3 C1 1_555 1_555
O4 C8 1_555 1_555
O5 C8 1_555 1_555
O6 C15 1_555 1_555
O7 C15 1_555 1_555
O8 C16 1_555 1_555
O9 C16 1_555 1_555
O10 C23 1_555 1_555
O11 C23 1_555 1_555
O12 C30 1_555 1_555
O13 C30 1_555 1_555
O14 C31 1_555 1_555
O15 C31 1_555 1_555
Zn1 O3 1_555 1_555
Zn2 O1 1_555 1_555
Zn3 O1 1_555 1_555
Zn4 O1 1_555 1_555
N1 H17 1_555 1_555
H18 N1 1_555 1_555
C35 N1 1_555 1_555
H19 C35 1_555 1_555
H20 C35 1_555 1_555
H21 C35 1_555 1_555
C36 N1 1_555 1_555
H22 C36 1_555 1_555
H23 C36 1_555 1_555
H24 C36 1_555 1_555
C31B C32B 1_555 1_555
C32B C33B 1_555 1_555
C33B C34 1_555 1_555
H15B C33B 1_555 1_555
C34B C33 1_555 1_555
H16B C34B 1_555 1_555
O14B C31B 1_555 1_555
O15B C31B 1_555 1_555
C1B C2B 1_555 1_555
C2B C3B 1_555 1_555
C3B H1B 1_555 1_555
C4B C3B 1_555 1_555
C5B C4B 1_555 1_555
H2B C5B 1_555 1_555
C6B C5B 1_555 1_555
C7B C2B 1_555 1_555
H3B C7B 1_555 1_555
C8B C4B 1_555 1_555
C9B C6B 1_555 1_555
C10B C9B 1_555 1_555
H4B C10B 1_555 1_555
C11B C10B 1_555 1_555
H5B C11B 1_555 1_555
C12B C11B 1_555 1_555
C13B C12B 1_555 1_555
H6B C13B 1_555 1_555
C14B C9B 1_555 1_555
H7B C14B 1_555 1_555
C15B C12B 1_555 1_555
C16B C17B 1_555 1_555
C17B C18B 1_555 1_555
C18B H8B 1_555 1_555
C19B C18B 1_555 1_555
C20B C19B 1_555 1_555
H9B C20B 1_555 1_555
C21B C20B 1_555 1_555
C22B C17B 1_555 1_555
H10B C22B 1_555 1_555
C23B C19B 1_555 1_555
C24B C21B 1_555 1_555
C25B C24B 1_555 1_555
H11B C25B 1_555 1_555
C26B C25B 1_555 1_555
H12B C26B 1_555 1_555
C27B C26B 1_555 1_555
C28B C27B 1_555 1_555
H13B C28B 1_555 1_555
C29B C24B 1_555 1_555
H14B C29B 1_555 1_555
C30B C27B 1_555 1_555
O1B Zn1B 1_555 1_555
O2B C1B 1_555 1_555
O3B C1B 1_555 1_555
O4B C8B 1_555 1_555
O5B C8B 1_555 1_555
O6B C15B 1_555 1_555
O7B C15B 1_555 1_555
O8B C16B 1_555 1_555
O9B C16B 1_555 1_555
O10B C23B 1_555 1_555
O11B C23B 1_555 1_555
O12B C30B 1_555 1_555
O13B C30B 1_555 1_555
Zn1B O3B 1_555 1_555
Zn2B O1B 1_555 1_555
Zn3B O14B 1_555 1_555
Zn4B O15B 1_555 1_555
O4_2 Zn2 1_555 1_555
O4B_2 Zn2B 1_555 1_555
O5_2 Zn3 1_555 1_555
O5B_2 Zn3B 1_555 1_555
O6A Zn1B 1_555 1_555
O6C Zn1 1_555 1_555
O7A Zn2B 1_555 1_555
O7C Zn2 1_555 1_555
O10_2 Zn1 1_555 1_555
O10B_2 Zn1B 1_555 1_555
O11_2 Zn4 1_555 1_555
O11B_2 Zn4B 1_555 1_555
O12A Zn1 1_555 1_555
O12C Zn1B 1_555 1_555
O13A Zn2 1_555 1_555
O13C Zn2B 1_555 1_555
Zn1_2 O10 1_555 1_555
Zn1A O12 1_555 1_555
Zn1B_2 O10B 1_555 1_555
Zn1C O6 1_555 1_555
Zn2_2 O4 1_555 1_555
Zn2A O13 1_555 1_555
Zn2B_2 O4B 1_555 1_555
Zn2C O7 1_555 1_555
Zn3_2 O5 1_555 1_555
Zn3B_2 O5B 1_555 1_555
Zn4_2 O11 1_555 1_555
Zn4B_2 O11B 1_555 1_555
C6 C7 1_555 1_555
C13 C14 1_555 1_555
C21 C22 1_555 1_555
C28 C29 1_555 1_555
O2 Zn3 1_555 1_555
O8 Zn2 1_555 1_555
O9 Zn4 1_555 1_555
O14 Zn3 1_555 1_555
O15 Zn4 1_555 1_555
C32B C34B 1_555 1_555
C6B C7B 1_555 1_555
C13B C14B 1_555 1_555
C21B C22B 1_555 1_555
C28B C29B 1_555 1_555
O1B Zn3B 1_555 1_555
O1B Zn4B 1_555 1_555
O2B Zn3B 1_555 1_555
O6B Zn1A 1_555 1_555
O7B Zn2A 1_555 1_555
O8B Zn2B 1_555 1_555
O9B Zn4B 1_555 1_555
O12B Zn1C 1_555 1_555
O13B Zn2C 1_555 1_555

#END
