
#######################################################################
#
#                 Cambridge Crystallographic Data Centre
#                                CCDC 
#
#######################################################################
#
# If this CIF has been generated from an entry in the Cambridge 
# Structural Database, then it will include bibliographic, chemical, 
# crystal, experimental, refinement or atomic coordinate data resulting 
# from the CCDC's data processing and validation procedures.
#
#######################################################################

data_PUGSOB
_symmetry_cell_setting           monoclinic
_symmetry_space_group_name_H-M   'P 21/n'
_symmetry_Int_Tables_number      14
_space_group_name_Hall           '-P 2yn'
loop_
_symmetry_equiv_pos_site_id
_symmetry_equiv_pos_as_xyz
1 x,y,z
2 1/2-x,1/2+y,1/2-z
3 -x,-y,-z
4 1/2+x,1/2-y,1/2+z
_cell_length_a                   10.327(2)
_cell_length_b                   26.237(5)
_cell_length_c                   27.756(6)
_cell_angle_alpha                90
_cell_angle_beta                 93.83(3)
_cell_angle_gamma                90
_cell_volume                     7503.68
loop_
_atom_site_label
_atom_site_type_symbol
_atom_site_fract_x
_atom_site_fract_y
_atom_site_fract_z
C39 C 0.6812(6) 0.8912(2) 0.4277(2)
H19 H 0.6614 0.8648 0.4038
H20 H 0.7704 0.8876 0.4406
H21 H 0.6697 0.9244 0.4127
C40 C 0.4386(6) 0.8826(2) 0.4395(2)
H22 H 0.4123 0.9165 0.4288
H23 H 0.3748 0.8688 0.4600
H24 H 0.4451 0.8607 0.4116
N1 N 0.5849(10) 0.8858(4) 0.4709(4)
H25 H 0.5902 0.9134 0.4909
H26 H 0.6017 0.8571 0.4886
Zn1 Zn 0.18180(4) 0.767529(18) 0.336717(16)
O1 O 0.0405(2) 0.80457(10) 0.36387(9)
O2 O 0.3022(3) 0.83548(14) 0.33288(12)
O3 O 0.3108(3) 0.74510(12) 0.38713(10)
O4 O 0.0880(3) 0.69412(13) 0.33786(12)
O5 O 0.1877(4) 0.75894(16) 0.26649(13)
Zn2 Zn -0.11281(4) 0.773265(19) 0.332621(17)
Zn3 Zn 0.05457(4) 0.799833(19) 0.432612(16)
Zn4 Zn 0.04111(4) 0.87264(2) 0.336561(18)
C1 C 0.2926(4) 0.87824(17) 0.31289(14)
C2 C 0.3143(4) 0.75369(17) 0.43105(15)
O6 O -0.2408(3) 0.82370(13) 0.30962(11)
O7 O -0.1093(3) 0.70771(13) 0.30199(12)
O8 O -0.2151(3) 0.75318(14) 0.39038(11)
O9 O 0.2195(3) 0.76708(13) 0.45508(12)
O10 O 0.0559(4) 0.86875(15) 0.46252(13)
O11 O -0.0983(3) 0.76816(14) 0.45928(12)
O12 O 0.1860(3) 0.90404(13) 0.30647(12)
O13 O 0.0416(3) 0.91755(15) 0.39772(13)
O14 O -0.1276(3) 0.89784(12) 0.30829(11)
C3 C 0.4140(4) 0.90324(17) 0.29691(15)
C4 C 0.4440(4) 0.74665(18) 0.45940(15)
C5 C 0.0416(5) 0.9087(2) 0.44196(19)
C6 C 0.5311(4) 0.87712(18) 0.30512(15)
C7 C 0.4123(4) 0.95273(18) 0.27647(16)
C8 C 0.4527(4) 0.7403(2) 0.50982(16)
C9 C 0.5564(4) 0.74998(17) 0.43510(14)
C10 C 0.0194(6) 0.9569(3) 0.4718(2)
H1 H 0.5328 0.8443 0.3187
C11 C 0.6450(4) 0.90036(17) 0.29302(15)
C12 C 0.5262(4) 0.97482(18) 0.26510(15)
H2 H 0.3334 0.9703 0.2708
H3 H 0.3766 0.7374 0.5264
C13 C 0.5701(4) 0.73838(19) 0.53471(16)
C14 C 0.6775(4) 0.75018(18) 0.46177(15)
H4 H 0.5521 0.7521 0.4012
C15 C 0.0967(8) 0.9630(3) 0.5165(3)
C16 C -0.0754(6) 0.9934(2) 0.4553(2)
C17 C 0.6418(4) 0.94856(17) 0.27381(15)
C18 C 0.7695(4) 0.87165(16) 0.30436(14)
C19 C 0.5249(4) 1.02623(19) 0.24391(16)
C20 C 0.6843(4) 0.7444(2) 0.51082(17)
C21 C 0.5780(4) 0.7330(2) 0.58914(17)
C22 C 0.7969(4) 0.75715(18) 0.43435(15)
C23 C 0.2167(11) 0.9240(5) 0.5397(4)
C24 C -0.1759(11) 0.9894(5) 0.4060(4)
H5 H 0.7200 0.9641 0.2664
C25 C 0.6251(5) 1.0607(2) 0.25265(19)
C26 C 0.4200(5) 1.0439(2) 0.21327(19)
H6 H 0.7653 0.7445 0.5284
C27 C 0.4904(6) 0.7014(3) 0.61061(19)
C28 C 0.6688(5) 0.7602(3) 0.61760(18)
C29 C 0.3067(10) 0.9343(4) 0.5835(4)
H7 H 0.2270 0.8928 0.5238
H8 H -0.1676 0.9602 0.3869
C30 C -0.2702(12) 1.0233(5) 0.3920(5)
H9 H 0.6980 1.0503 0.2723
C31 C 0.6239(5) 1.1097(2) 0.23399(19)
C32 C 0.4158(5) 1.0929(2) 0.19536(18)
H10 H 0.3509 1.0216 0.2048
H11 H 0.4252 0.6841 0.5918
C33 C 0.5015(6) 0.6958(3) 0.6613(2)
C34 C 0.6761(6) 0.7544(3) 0.66769(19)
H12 H 0.7257 0.7826 0.6032
H13 H 0.3656 0.9057 0.5887
H14 H -0.3148 1.0108 0.3625
H15 H 0.6953 1.1315 0.2403
C35 C 0.5153(4) 1.12624(19) 0.20570(18)
H16 H 0.3432 1.1036 0.1757
H17 H 0.4471 0.6729 0.6763
C36 C 0.5922(5) 0.7240(2) 0.68924(17)
H18 H 0.7405 0.7719 0.6866
C37 C 0.5096(4) 1.17977(18) 0.18654(15)
C38 C 0.5962(5) 0.7162(3) 0.74322(18)
O15 O 0.5133(5) 0.6921(2) 0.76142(15)
C16B C 0.0754(6) 1.0066(2) 0.5447(2)
C15B C -0.0967(8) 1.0370(3) 0.4835(3)
O6_2 O 0.7592(3) 0.82370(13) 0.30962(11)
O14_2 O 0.8724(3) 0.89784(12) 0.30829(11)
O8_2 O 0.7849(3) 0.75318(14) 0.39038(11)
O11_2 O 0.9017(3) 0.76816(14) 0.45928(12)
C10B C -0.0194(6) 1.0431(3) 0.5282(2)
C24B C 0.1759(11) 1.0106(5) 0.5940(4)
C23B C -0.2167(11) 1.0760(5) 0.4603(4)
Zn2_2 Zn 0.88719(4) 0.773265(19) 0.332621(17)
Zn4_2 Zn 1.04111(4) 0.87264(2) 0.336561(18)
Zn3_2 Zn 1.05457(4) 0.799833(19) 0.432612(16)
C30B C 0.2702(12) 0.9767(5) 0.6080(5)
C5B C -0.0416(5) 1.0913(2) 0.55804(19)
H8B H 0.1676 1.0398 0.6131
C29B C -0.3067(10) 1.0657(4) 0.4165(4)
H7B H -0.2270 1.1072 0.4762
H14B H 0.3148 0.9892 0.6375
O10B O -0.0559(4) 1.13125(15) 0.53748(13)
O13B O -0.0416(3) 1.08245(15) 0.60228(13)
H13B H -0.3656 1.0943 0.4113
Zn3B Zn -0.05457(4) 1.200167(19) 0.567388(16)
Zn4B Zn -0.04111(4) 1.12736(2) 0.663439(18)
O7A O 0.6093(3) 1.20771(13) 0.19801(12)
O4A O 0.4120(3) 1.19412(13) 0.16214(12)
O5C O 0.6877(4) 0.74106(16) 0.76649(13)
O1B O -0.0405(2) 1.19543(10) 0.63613(9)
O9B O -0.2195(3) 1.23292(13) 0.54492(12)
O11B O 0.0983(3) 1.23184(14) 0.54072(12)
O12B O -0.1860(3) 1.09596(13) 0.69353(12)
O14B O 0.1276(3) 1.10216(12) 0.69171(11)
Zn2A Zn 0.61281(4) 1.273265(19) 0.167379(17)
Zn1A Zn 0.31820(4) 1.267529(18) 0.163283(16)
Zn1C Zn 0.68180(4) 0.732471(18) 0.836717(16)
Zn1B Zn -0.18180(4) 1.232471(18) 0.663283(16)
Zn2B Zn 0.11281(4) 1.226735(19) 0.667379(17)
C2B C -0.3143(4) 1.24631(17) 0.56895(15)
C1B C -0.2926(4) 1.12176(17) 0.68711(14)
O2B O -0.3022(3) 1.16452(14) 0.66712(12)
O3B O -0.3108(3) 1.25490(12) 0.61287(10)
O4B O -0.0880(3) 1.30588(13) 0.66214(12)
O5B O -0.1877(4) 1.24106(16) 0.73351(13)
O6B O 0.2408(3) 1.17630(13) 0.69038(11)
O7B O 0.1093(3) 1.29229(13) 0.69801(12)
O8B O 0.2151(3) 1.24682(14) 0.60962(11)
C4B C -0.4440(4) 1.25335(18) 0.54060(15)
C3B C -0.4140(4) 1.09676(17) 0.70309(15)
C8B C -0.4527(4) 1.2597(2) 0.49018(16)
C9B C -0.5564(4) 1.25002(17) 0.56490(14)
C6B C -0.5311(4) 1.12288(18) 0.69488(15)
C7B C -0.4123(4) 1.04727(18) 0.72353(16)
H3B H -0.3766 1.2626 0.4736
C13B C -0.5701(4) 1.26162(19) 0.46529(16)
C14B C -0.6775(4) 1.24982(18) 0.53823(15)
H4B H -0.5521 1.2479 0.5988
H1B H -0.5328 1.1557 0.6813
C11B C -0.6450(4) 1.09964(17) 0.70698(15)
C12B C -0.5262(4) 1.02518(18) 0.73490(15)
H2B H -0.3334 1.0297 0.7292
C20B C -0.6843(4) 1.2556(2) 0.48918(17)
C21B C -0.5780(4) 1.2670(2) 0.41086(17)
C22B C -0.7969(4) 1.24285(18) 0.56565(15)
C17B C -0.6418(4) 1.05144(17) 0.72619(15)
C18B C -0.7695(4) 1.12835(16) 0.69564(14)
C19B C -0.5249(4) 0.97377(19) 0.75609(16)
H6B H -0.7653 1.2555 0.4716
C27B C -0.4904(6) 1.2986(3) 0.38939(19)
C28B C -0.6688(5) 1.2398(3) 0.38240(18)
O8B_2 O -0.7849(3) 1.24682(14) 0.60962(11)
O11B_2 O -0.9017(3) 1.23184(14) 0.54072(12)
H5B H -0.7200 1.0359 0.7336
O6B_2 O -0.7592(3) 1.17630(13) 0.69038(11)
O14B_2 O -0.8724(3) 1.10216(12) 0.69171(11)
C25B C -0.6251(5) 0.9393(2) 0.74735(19)
C26B C -0.4200(5) 0.9561(2) 0.78673(19)
H11B H -0.4252 1.3159 0.4082
C33B C -0.5015(6) 1.3042(3) 0.3387(2)
C34B C -0.6761(6) 1.2456(3) 0.33231(19)
H12B H -0.7257 1.2174 0.3968
Zn2B_2 Zn -0.88719(4) 1.226735(19) 0.667379(17)
Zn3B_2 Zn -1.05457(4) 1.200167(19) 0.567388(16)
Zn4B_2 Zn -1.04111(4) 1.12736(2) 0.663439(18)
H9B H -0.6980 0.9497 0.7277
C31B C -0.6239(5) 0.8903(2) 0.76601(19)
C32B C -0.4158(5) 0.9071(2) 0.80464(18)
H10B H -0.3509 0.9784 0.7952
H17B H -0.4471 1.3271 0.3237
C36B C -0.5922(5) 1.2760(2) 0.31076(17)
H18B H -0.7405 1.2281 0.3134
H15B H -0.6953 0.8685 0.7597
C35B C -0.5153(4) 0.87376(19) 0.79430(18)
H16B H -0.3432 0.8964 0.8243
C38B C -0.5962(5) 1.2838(3) 0.25678(18)
C37B C -0.5096(4) 0.82023(18) 0.81346(15)
O5A O -0.6877(4) 1.25894(16) 0.23351(13)
O15B O -0.5133(5) 1.3079(2) 0.23858(15)
O7C O -0.6093(3) 0.79229(13) 0.80199(12)
O4C O -0.4120(3) 0.80588(13) 0.83786(12)
Zn1A_2 Zn -0.68180(4) 1.267529(18) 0.163283(16)
Zn2C Zn -0.61281(4) 0.726735(19) 0.832621(17)
Zn1C_2 Zn -0.31820(4) 0.732471(18) 0.836717(16)
loop_
_geom_bond_atom_site_label_1
_geom_bond_atom_site_label_2
_geom_bond_site_symmetry_1
_geom_bond_site_symmetry_2
Zn1 O1 1_555 1_555
O1 Zn2 1_555 1_555
O2 Zn1 1_555 1_555
O3 Zn1 1_555 1_555
O4 Zn1 1_555 1_555
O5 Zn1 1_555 1_555
Zn2 O6 1_555 1_555
Zn3 O1 1_555 1_555
Zn4 O1 1_555 1_555
C1 O2 1_555 1_555
C2 O3 1_555 1_555
O7 Zn2 1_555 1_555
O8 Zn2 1_555 1_555
O9 Zn3 1_555 1_555
O10 Zn3 1_555 1_555
O11 Zn3 1_555 1_555
O12 Zn4 1_555 1_555
O13 Zn4 1_555 1_555
O14 Zn4 1_555 1_555
C3 C1 1_555 1_555
C4 C2 1_555 1_555
C5 O10 1_555 1_555
C6 C3 1_555 1_555
C7 C3 1_555 1_555
C8 C4 1_555 1_555
C9 C4 1_555 1_555
C10 C5 1_555 1_555
H1 C6 1_555 1_555
C11 C6 1_555 1_555
C12 C7 1_555 1_555
H2 C7 1_555 1_555
H3 C8 1_555 1_555
C13 C8 1_555 1_555
C14 C9 1_555 1_555
H4 C9 1_555 1_555
C15 C10 1_555 1_555
C16 C10 1_555 1_555
C17 C11 1_555 1_555
C18 C11 1_555 1_555
C19 C12 1_555 1_555
C20 C13 1_555 1_555
C21 C13 1_555 1_555
C22 C14 1_555 1_555
C23 C15 1_555 1_555
C24 C16 1_555 1_555
H5 C17 1_555 1_555
C25 C19 1_555 1_555
C26 C19 1_555 1_555
H6 C20 1_555 1_555
C27 C21 1_555 1_555
C28 C21 1_555 1_555
C29 C23 1_555 1_555
H7 C23 1_555 1_555
H8 C24 1_555 1_555
C30 C24 1_555 1_555
H9 C25 1_555 1_555
C31 C25 1_555 1_555
C32 C26 1_555 1_555
H10 C26 1_555 1_555
H11 C27 1_555 1_555
C33 C27 1_555 1_555
C34 C28 1_555 1_555
H12 C28 1_555 1_555
H13 C29 1_555 1_555
H14 C30 1_555 1_555
H15 C31 1_555 1_555
C35 C31 1_555 1_555
H16 C32 1_555 1_555
H17 C33 1_555 1_555
C36 C33 1_555 1_555
H18 C34 1_555 1_555
C37 C35 1_555 1_555
C38 C36 1_555 1_555
O15 C38 1_555 1_555
C39 H19 1_555 1_555
H20 C39 1_555 1_555
H21 C39 1_555 1_555
C40 H22 1_555 1_555
H23 C40 1_555 1_555
H24 C40 1_555 1_555
N1 C39 1_555 1_555
H25 N1 1_555 1_555
H26 N1 1_555 1_555
C16B C15 1_555 1_555
C15B C16 1_555 1_555
O6_2 C18 1_555 1_555
O14_2 C18 1_555 1_555
O8_2 C22 1_555 1_555
O11_2 C22 1_555 1_555
C10B C16B 1_555 1_555
C24B C16B 1_555 1_555
C23B C15B 1_555 1_555
Zn2_2 O6_2 1_555 1_555
Zn4_2 O14_2 1_555 1_555
Zn3_2 O11_2 1_555 1_555
C30B C29 1_555 1_555
C5B C10B 1_555 1_555
H8B C24B 1_555 1_555
C29B C30 1_555 1_555
H7B C23B 1_555 1_555
H14B C30B 1_555 1_555
O10B C5B 1_555 1_555
O13B C5B 1_555 1_555
H13B C29B 1_555 1_555
Zn3B O10B 1_555 1_555
Zn4B O13B 1_555 1_555
O7A C37 1_555 1_555
O4A C37 1_555 1_555
O5C C38 1_555 1_555
O1B Zn3B 1_555 1_555
O9B Zn3B 1_555 1_555
O11B Zn3B 1_555 1_555
O12B Zn4B 1_555 1_555
O14B Zn4B 1_555 1_555
Zn2A O7A 1_555 1_555
Zn1A O4A 1_555 1_555
Zn1C O5C 1_555 1_555
Zn1B O1B 1_555 1_555
Zn2B O1B 1_555 1_555
C2B O9B 1_555 1_555
C1B O12B 1_555 1_555
O2B Zn1B 1_555 1_555
O3B Zn1B 1_555 1_555
O4B Zn1B 1_555 1_555
O5B Zn1B 1_555 1_555
O6B Zn2B 1_555 1_555
O7B Zn2B 1_555 1_555
O8B Zn2B 1_555 1_555
C4B C2B 1_555 1_555
C3B C1B 1_555 1_555
C8B C4B 1_555 1_555
C9B C4B 1_555 1_555
C6B C3B 1_555 1_555
C7B C3B 1_555 1_555
H3B C8B 1_555 1_555
C13B C8B 1_555 1_555
C14B C9B 1_555 1_555
H4B C9B 1_555 1_555
H1B C6B 1_555 1_555
C11B C6B 1_555 1_555
C12B C7B 1_555 1_555
H2B C7B 1_555 1_555
C20B C13B 1_555 1_555
C21B C13B 1_555 1_555
C22B C14B 1_555 1_555
C17B C11B 1_555 1_555
C18B C11B 1_555 1_555
C19B C12B 1_555 1_555
H6B C20B 1_555 1_555
C27B C21B 1_555 1_555
C28B C21B 1_555 1_555
O8B_2 C22B 1_555 1_555
O11B_2 C22B 1_555 1_555
H5B C17B 1_555 1_555
O6B_2 C18B 1_555 1_555
O14B_2 C18B 1_555 1_555
C25B C19B 1_555 1_555
C26B C19B 1_555 1_555
H11B C27B 1_555 1_555
C33B C27B 1_555 1_555
C34B C28B 1_555 1_555
H12B C28B 1_555 1_555
Zn2B_2 O8B_2 1_555 1_555
Zn3B_2 O11B_2 1_555 1_555
Zn4B_2 O14B_2 1_555 1_555
H9B C25B 1_555 1_555
C31B C25B 1_555 1_555
C32B C26B 1_555 1_555
H10B C26B 1_555 1_555
H17B C33B 1_555 1_555
C36B C33B 1_555 1_555
H18B C34B 1_555 1_555
H15B C31B 1_555 1_555
C35B C31B 1_555 1_555
H16B C32B 1_555 1_555
C38B C36B 1_555 1_555
C37B C35B 1_555 1_555
O5A C38B 1_555 1_555
O15B C38B 1_555 1_555
O7C C37B 1_555 1_555
O4C C37B 1_555 1_555
Zn1A_2 O5A 1_555 1_555
Zn2C O7C 1_555 1_555
Zn1C_2 O4C 1_555 1_555
C1 O12 1_555 1_555
C2 O9 1_555 1_555
O13 C5 1_555 1_555
C12 C17 1_555 1_555
C14 C20 1_555 1_555
C32 C35 1_555 1_555
C34 C36 1_555 1_555
C40 N1 1_555 1_555
C15B C10B 1_555 1_555
O8_2 Zn2_2 1_555 1_555
C24B C30B 1_555 1_555
C23B C29B 1_555 1_555
Zn4B O1B 1_555 1_555
C2B O3B 1_555 1_555
C1B O2B 1_555 1_555
C14B C20B 1_555 1_555
C12B C17B 1_555 1_555
O6B_2 Zn2B_2 1_555 1_555
C34B C36B 1_555 1_555
C32B C35B 1_555 1_555

#END
