
#######################################################################
#
#                 Cambridge Crystallographic Data Centre
#                                CCDC 
#
#######################################################################
#
# If this CIF has been generated from an entry in the Cambridge 
# Structural Database, then it will include bibliographic, chemical, 
# crystal, experimental, refinement or atomic coordinate data resulting 
# from the CCDC's data processing and validation procedures.
#
#######################################################################

data_PUGYAT
_symmetry_cell_setting           monoclinic
_symmetry_space_group_name_H-M   'C 2/c'
_symmetry_Int_Tables_number      15
_space_group_name_Hall           '-C 2yn'
loop_
_symmetry_equiv_pos_site_id
_symmetry_equiv_pos_as_xyz
1 x,y,z
2 -x,y,1/2-z
3 1/2+x,1/2+y,z
4 1/2-x,1/2+y,1/2-z
5 -x,-y,-z
6 x,-y,1/2+z
7 1/2-x,1/2-y,-z
8 1/2+x,1/2-y,1/2+z
_cell_length_a                   23.697(4)
_cell_length_b                   13.568(2)
_cell_length_c                   14.054(2)
_cell_angle_alpha                90
_cell_angle_beta                 103.593(3)
_cell_angle_gamma                90
_cell_volume                     4392.09
loop_
_atom_site_label
_atom_site_type_symbol
_atom_site_fract_x
_atom_site_fract_y
_atom_site_fract_z
Cl1 Cl 0.8905(13) 0.336(2) 0.6193(13)
Fe1 Fe 0.2500 0.2500 0.5000
N1 N 0.1899(2) 0.3255(3) 0.5475(3)
N2 N 0.2500(2) 0.6490(3) 0.8944(3)
N3 N 0.1879(2) 0.1731(3) 0.4097(3)
C1 C 0.2529(3) 0.5078(4) 0.7477(4)
C2 C 0.1020(3) 0.2433(5) 0.4538(5)
C3 C 0.1988(3) 0.3957(5) 0.6198(5)
C4 C 0.1943(3) 0.0993(4) 0.3444(4)
C5 C 0.0368(3) 0.2389(6) 0.4348(6)
C6 C 0.1291(3) 0.1798(5) 0.4007(4)
C7 C 0.1391(3) 0.0612(5) 0.2950(5)
H1 H 0.1323 0.0114 0.2482
C8 C 0.0985(3) 0.1106(5) 0.3289(5)
H2 H 0.0585 0.1018 0.3097
C9 C 0.1315(3) 0.3116(5) 0.5218(5)
C10 C 0.2523(3) 0.4322(4) 0.6704(4)
C11 C 0.1437(3) 0.4285(6) 0.6361(6)
H3 H 0.1382 0.4767 0.6801
C12 C 0.2440(4) 0.6733(5) 0.8005(4)
H4 H 0.2390 0.7396 0.7839
C13 C 0.1025(3) 0.3770(6) 0.5764(5)
H5 H 0.0627 0.3819 0.5708
C14 C 0.2601(4) 0.4819(5) 0.8435(5)
H6 H 0.2658 0.4161 0.8616
C15 C 0.0028(4) 0.3104(7) 0.3779(7)
H7 H 0.0197 0.3631 0.3527
C16 C 0.2449(4) 0.6065(5) 0.7259(5)
H8 H 0.2402 0.6283 0.6618
F1 F -0.0905(3) 0.3659(6) 0.3003(6)
C17 C 0.2589(4) 0.5523(5) 0.9138(5)
H9 H 0.2647 0.5318 0.9785
C18 C 0.0108(4) 0.1623(8) 0.4704(7)
H10 H 0.0328 0.1125 0.5068
F2 F -0.1411(3) 0.2233(6) 0.3749(6)
F3 F -0.0756(3) 0.0827(6) 0.4883(7)
C19 C -0.0505(5) 0.1604(10) 0.4504(10)
C20 C -0.0839(5) 0.2302(11) 0.3929(10)
C21 C -0.0570(5) 0.3013(9) 0.3595(8)
N1F N 0.3101(2) 0.1745(3) 0.4525(3)
N2F N 0.2500(2) -0.1490(3) 0.1056(3)
N3F N 0.3121(2) 0.3269(3) 0.5903(3)
C1F C 0.2471(3) -0.0078(4) 0.2523(4)
C2F C 0.3980(3) 0.2567(5) 0.5462(5)
C3F C 0.3012(3) 0.1043(5) 0.3802(5)
C4F C 0.3057(3) 0.4007(4) 0.6556(4)
C5F C 0.4632(3) 0.2611(6) 0.5652(6)
C6F C 0.3709(3) 0.3202(5) 0.5993(4)
C7F C 0.3609(3) 0.4388(5) 0.7050(5)
H1F H 0.3677 0.4886 0.7518
C8F C 0.4015(3) 0.3894(5) 0.6711(5)
H2F H 0.4415 0.3982 0.6903
C9F C 0.3685(3) 0.1884(5) 0.4782(5)
C10F C 0.2477(3) 0.0678(4) 0.3296(4)
C11F C 0.3563(3) 0.0715(6) 0.3639(6)
H3F H 0.3618 0.0233 0.3199
C12F C 0.2560(4) -0.1733(5) 0.1995(4)
H4F H 0.2610 -0.2396 0.2161
C13F C 0.3975(3) 0.1230(6) 0.4236(5)
H5F H 0.4373 0.1181 0.4292
C14F C 0.2399(4) 0.0181(5) 0.1565(5)
H6F H 0.2342 0.0839 0.1384
C15F C 0.4972(4) 0.1896(7) 0.6221(7)
H7F H 0.4803 0.1369 0.6473
C16F C 0.2551(4) -0.1065(5) 0.2741(5)
H8F H 0.2598 -0.1283 0.3382
F1F F 0.5905(3) 0.1341(6) 0.6997(6)
C17F C 0.2411(4) -0.0523(5) 0.0862(5)
H9F H 0.2353 -0.0318 0.0215
C18F C 0.4892(4) 0.3377(8) 0.5296(7)
H10F H 0.4672 0.3875 0.4932
F2F F 0.6411(3) 0.2767(6) 0.6251(6)
F3F F 0.5756(3) 0.4173(6) 0.5117(7)
C19F C 0.5505(5) 0.3396(10) 0.5496(10)
C20F C 0.5839(5) 0.2698(11) 0.6071(10)
C21F C 0.5570(5) 0.1987(9) 0.6405(8)
Fe1C Fe 0.2500 -0.2500 0.0000
Fe1C_2 Fe 0.2500 0.7500 1.0000
N2C N 0.2500(2) 0.1490(3) 0.6056(3)
N2E N 0.2500(2) 0.3510(3) 0.3944(3)
loop_
_geom_bond_atom_site_label_1
_geom_bond_atom_site_label_2
_geom_bond_site_symmetry_1
_geom_bond_site_symmetry_2
Fe1 N1 1_555 1_555
N1 C3 1_555 1_555
N2 C12 1_555 1_555
N3 Fe1 1_555 1_555
C1 C10 1_555 1_555
C2 C5 1_555 1_555
C3 C10 1_555 1_555
C4 N3 1_555 1_555
C5 C15 1_555 1_555
C6 N3 1_555 1_555
C7 C4 1_555 1_555
H1 C7 1_555 1_555
C8 C6 1_555 1_555
H2 C8 1_555 1_555
C9 N1 1_555 1_555
C10 C4F 1_555 1_555
C11 C3 1_555 1_555
H3 C11 1_555 1_555
C12 H4 1_555 1_555
C13 C9 1_555 1_555
H5 C13 1_555 1_555
C14 C1 1_555 1_555
H6 C14 1_555 1_555
C15 H7 1_555 1_555
C16 C1 1_555 1_555
H8 C16 1_555 1_555
F1 C21 1_555 1_555
C17 N2 1_555 1_555
H9 C17 1_555 1_555
C18 C5 1_555 1_555
H10 C18 1_555 1_555
F2 C20 1_555 1_555
F3 C19 1_555 1_555
C19 C18 1_555 1_555
C20 C19 1_555 1_555
C21 C15 1_555 1_555
N1F Fe1 1_555 1_555
N2F C12F 1_555 1_555
N3F Fe1 1_555 1_555
C1F C10F 1_555 1_555
C2F C5F 1_555 1_555
C3F N1F 1_555 1_555
C4F N3F 1_555 1_555
C5F C15F 1_555 1_555
C6F N3F 1_555 1_555
C7F C4F 1_555 1_555
H1F C7F 1_555 1_555
C8F C6F 1_555 1_555
H2F C8F 1_555 1_555
C9F N1F 1_555 1_555
C10F C4 1_555 1_555
C11F C3F 1_555 1_555
H3F C11F 1_555 1_555
C12F H4F 1_555 1_555
C13F C9F 1_555 1_555
H5F C13F 1_555 1_555
C14F C1F 1_555 1_555
H6F C14F 1_555 1_555
C15F H7F 1_555 1_555
C16F C1F 1_555 1_555
H8F C16F 1_555 1_555
F1F C21F 1_555 1_555
C17F N2F 1_555 1_555
H9F C17F 1_555 1_555
C18F C5F 1_555 1_555
H10F C18F 1_555 1_555
F2F C20F 1_555 1_555
F3F C19F 1_555 1_555
C19F C18F 1_555 1_555
C20F C19F 1_555 1_555
C21F C15F 1_555 1_555
Fe1C N2F 1_555 1_555
Fe1C_2 N2 1_555 1_555
N2C Fe1 1_555 1_555
N2E Fe1 1_555 1_555
C2 C6 1_555 1_555
C2 C9 1_555 1_555
C7 C8 1_555 1_555
C11 C13 1_555 1_555
C12 C16 1_555 1_555
C14 C17 1_555 1_555
C20 C21 1_555 1_555
C2F C6F 1_555 1_555
C2F C9F 1_555 1_555
C3F C10F 1_555 1_555
C7F C8F 1_555 1_555
C11F C13F 1_555 1_555
C12F C16F 1_555 1_555
C14F C17F 1_555 1_555
C20F C21F 1_555 1_555

#END
