
#######################################################################
#
#                 Cambridge Crystallographic Data Centre
#                                CCDC 
#
#######################################################################
#
# If this CIF has been generated from an entry in the Cambridge 
# Structural Database, then it will include bibliographic, chemical, 
# crystal, experimental, refinement or atomic coordinate data resulting 
# from the CCDC's data processing and validation procedures.
#
#######################################################################

data_PUJJEL
_symmetry_cell_setting           monoclinic
_symmetry_space_group_name_H-M   'C c'
_symmetry_Int_Tables_number      9
_space_group_name_Hall           'C -2yc'
loop_
_symmetry_equiv_pos_site_id
_symmetry_equiv_pos_as_xyz
1 x,y,z
2 x,-y,1/2+z
3 1/2+x,1/2+y,z
4 1/2+x,1/2-y,1/2+z
_cell_length_a                   24.434
_cell_length_b                   18.364
_cell_length_c                   8.259
_cell_angle_alpha                90
_cell_angle_beta                 101.72
_cell_angle_gamma                90
_cell_volume                     3628.6
loop_
_atom_site_label
_atom_site_type_symbol
_atom_site_fract_x
_atom_site_fract_y
_atom_site_fract_z
C1 C 0.3506(5) 0.5452(7) 0.9392(15)
C2 C 0.3896(6) 0.4418(6) 0.8753(15)
C3 C 0.4263(5) 0.5506(6) 0.8213(14)
C4 C 0.2961(6) 0.6491(6) 1.0283(15)
C5 C 0.3704(5) 0.3137(6) 0.9336(14)
C6 C 0.3290(6) 0.3241(6) 1.0216(16)
H1 H 0.3193 0.3710 1.0476
C7 C 0.3848(6) 0.2424(7) 0.9037(16)
H2 H 0.4139 0.2342 0.8487
C8 C 0.5062(5) 0.5795(6) 0.6859(13)
C9 C 0.5267(5) 0.5110(7) 0.6702(14)
H3 H 0.5098 0.4712 0.7095
C10 C 0.5727(5) 0.4996(5) 0.5960(16)
H4 H 0.5858 0.4526 0.5866
C11 C 0.5988(5) 0.5572(7) 0.5371(14)
C12 C 0.5789(6) 0.6265(7) 0.5521(16)
H5 H 0.5969 0.6664 0.5174
C13 C 0.5320(6) 0.6365(7) 0.6189(18)
H6 H 0.5170 0.6831 0.6192
C14 C 0.6483(5) 0.5445(6) 0.4640(13)
C15 C 0.2840(6) 0.1316(7) 1.0884(14)
C16 C 0.3156(6) 0.1928(6) 1.0403(14)
C17 C 0.3007(6) 0.2620(7) 1.0735(16)
H7 H 0.2720 0.2693 1.1302
C18 C 0.3574(6) 0.1838(6) 0.9527(15)
H8 H 0.3672 0.1370 0.9262
C19 C 0.2504(5) 0.8652(7) 1.1463(15)
C20 C 0.2635(5) 0.7903(6) 1.0985(15)
C21 C 0.3083(5) 0.7774(7) 1.0202(16)
H9 H 0.3285 0.8167 0.9926
C22 C 0.3229(6) 0.7090(6) 0.9835(15)
H10 H 0.3517 0.7027 0.9267
C23 C 0.2372(6) 0.7302(6) 1.1479(19)
H11 H 0.2089 0.7364 1.2067
C24 C 0.2524(6) 0.6621(7) 1.1108(18)
H12 H 0.2330 0.6225 1.1414
N1 N 0.4289(4) 0.4792(5) 0.8074(12)
N2 N 0.3884(5) 0.5876(5) 0.8906(13)
N3 N 0.3500(5) 0.4724(5) 0.9368(13)
N4 N 0.3965(5) 0.3682(5) 0.8706(13)
H13 H 0.4218 0.3543 0.8187
N5 N 0.3096(5) 0.5764(5) 1.0048(14)
H14 H 0.2878 0.5456 1.0383
N6 N 0.4632(5) 0.5965(5) 0.7617(14)
H15 H 0.4582 0.6423 0.7748
O1 O 0.6793(3) 0.4876(4) 0.5133(9)
O2 O 0.2938(4) 0.0671(4) 1.0408(10)
O3 O 0.2514(4) 0.1408(4) 1.1899(11)
O4 O 0.2170(4) 0.8779(4) 1.2399(10)
O5 O 0.2774(4) 0.9190(4) 1.0936(9)
O6 O 0.8543(4) 0.4662(6) 0.8681(11)
O7 O 0.6618(3) 0.5878(4) 0.3586(10)
La1 La 0.74737(4) 0.48604(3) 0.80396(6)
O1A O 0.6793(3) 0.5124(4) 1.0133(9)
O2B O 0.7938(4) 0.5671(4) 1.0408(10)
O2C O 0.7938(4) 0.4329(4) 0.5408(10)
O3C O 0.7514(4) 0.3592(4) 0.6899(11)
O4C O 0.7170(4) 0.6221(4) 0.7399(10)
O5B O 0.7774(4) 0.4190(4) 1.0936(9)
O5C O 0.7774(4) 0.5810(4) 0.5936(9)
O7A O 0.6618(3) 0.4122(4) 0.8586(10)
La1A La 0.74737(4) 0.51396(3) 0.30396(6)
La1B La 0.24737(4) -0.01396(3) 0.80396(6)
La1B_2 La 0.24737(4) 0.98604(3) 0.80396(6)
La1C La 0.24737(4) 0.01396(3) 1.30396(6)
La1C_2 La 0.24737(4) 1.01396(3) 1.30396(6)
O8 O 0.4462(8) 0.7630(11) 0.818(2)
O9 O 0.6540(7) 0.6979(8) 0.9432(19)
O10 O 0.5868(6) 0.3108(7) 0.6738(17)
O11 O 0.4704(6) 0.3107(7) 0.6410(16)
O12 O 0.9271(9) 0.5138(15) 0.668(3)
O13 O 0.2196(13) 0.4640(13) 1.092(5)
loop_
_geom_bond_atom_site_label_1
_geom_bond_atom_site_label_2
_geom_bond_site_symmetry_1
_geom_bond_site_symmetry_2
C1 N2 1_555 1_555
C2 N1 1_555 1_555
C3 N1 1_555 1_555
C4 C22 1_555 1_555
C5 C6 1_555 1_555
C6 H1 1_555 1_555
C7 C5 1_555 1_555
H2 C7 1_555 1_555
C8 C9 1_555 1_555
C9 H3 1_555 1_555
C10 C9 1_555 1_555
H4 C10 1_555 1_555
C11 C10 1_555 1_555
C12 C11 1_555 1_555
H5 C12 1_555 1_555
C13 C8 1_555 1_555
H6 C13 1_555 1_555
C14 C11 1_555 1_555
C15 C16 1_555 1_555
C16 C17 1_555 1_555
C17 C6 1_555 1_555
H7 C17 1_555 1_555
C18 C7 1_555 1_555
H8 C18 1_555 1_555
C19 C20 1_555 1_555
C20 C21 1_555 1_555
C21 H9 1_555 1_555
C22 C21 1_555 1_555
H10 C22 1_555 1_555
C23 C20 1_555 1_555
H11 C23 1_555 1_555
C24 C4 1_555 1_555
H12 C24 1_555 1_555
N2 C3 1_555 1_555
N3 C1 1_555 1_555
N4 C2 1_555 1_555
H13 N4 1_555 1_555
N5 C1 1_555 1_555
H14 N5 1_555 1_555
N6 C3 1_555 1_555
H15 N6 1_555 1_555
O1 C14 1_555 1_555
O2 C15 1_555 1_555
O3 C15 1_555 1_555
O4 C19 1_555 1_555
O5 C19 1_555 1_555
O6 La1 1_555 1_555
O7 C14 1_555 1_555
La1 O1 1_555 1_555
O1A La1 1_555 1_555
O2B La1 1_555 1_555
O2C La1 1_555 1_555
O3C La1 1_555 1_555
O4C La1 1_555 1_555
O5B La1 1_555 1_555
O5C La1 1_555 1_555
O7A La1 1_555 1_555
La1A O1 1_555 1_555
La1B O2 1_555 1_555
La1B_2 O5 1_555 1_555
La1C O2 1_555 1_555
La1C_2 O4 1_555 1_555
C2 N3 1_555 1_555
C4 N5 1_555 1_555
C5 N4 1_555 1_555
C8 N6 1_555 1_555
C12 C13 1_555 1_555
C16 C18 1_555 1_555
C23 C24 1_555 1_555
O3 La1C 1_555 1_555
O5 La1C_2 1_555 1_555
O7 La1A 1_555 1_555
O2C La1A 1_555 1_555
O5C La1A 1_555 1_555

#END
