
#######################################################################
#
#                 Cambridge Crystallographic Data Centre
#                                CCDC 
#
#######################################################################
#
# If this CIF has been generated from an entry in the Cambridge 
# Structural Database, then it will include bibliographic, chemical, 
# crystal, experimental, refinement or atomic coordinate data resulting 
# from the CCDC's data processing and validation procedures.
#
#######################################################################

data_PUJQEQ
_symmetry_cell_setting           orthorhombic
_symmetry_space_group_name_H-M   'P c c n'
_symmetry_Int_Tables_number      56
_space_group_name_Hall           '-P 2ab 2ac'
loop_
_symmetry_equiv_pos_site_id
_symmetry_equiv_pos_as_xyz
1 x,y,z
2 1/2-x,1/2-y,z
3 1/2+x,-y,1/2-z
4 -x,1/2+y,1/2-z
5 -x,-y,-z
6 1/2+x,1/2+y,-z
7 1/2-x,y,1/2+z
8 x,1/2-y,1/2+z
_cell_length_a                   14.7097(18)
_cell_length_b                   21.832(3)
_cell_length_c                   26.719(3)
_cell_angle_alpha                90
_cell_angle_beta                 90
_cell_angle_gamma                90
_cell_volume                     8580.6
loop_
_atom_site_label
_atom_site_type_symbol
_atom_site_fract_x
_atom_site_fract_y
_atom_site_fract_z
N1 N 0.0756(4) 0.09588(23) 0.55948(19)
O1 O 0.1138(3) 0.06127(19) 0.52676(14)
O2 O 0.0916(4) 0.15052(21) 0.55982(20)
O3 O 0.0263(3) 0.07114(23) 0.59135(19)
N2 N 0.4261(3) -0.08924(22) 0.57151(17)
O4 O 0.3867(3) -0.06201(19) 0.53579(14)
O5 O 0.4824(3) -0.05960(21) 0.59763(18)
O6 O 0.4093(4) -0.14328(20) 0.58121(18)
N3 N 0.3253(3) 0.07688(20) 0.53315(15)
N4 N 0.6687(3) 0.42411(19) 0.45864(14)
C1 C 0.2982(5) 0.1251(3) 0.50591(22)
C2 C 0.3543(5) 0.1764(6) 0.4992(3)
C3 C 0.4415(4) 0.1764(3) 0.51875(22)
C4 C 0.4695(4) 0.1253(3) 0.54565(22)
C5 C 0.4086(4) 0.0769(3) 0.55186(21)
C6 C 0.5064(5) 0.2294(3) 0.51198(23)
C7 C 0.4936(4) 0.2671(3) 0.46520(24)
C8 C 0.5563(4) 0.3216(3) 0.46202(21)
C9 C 0.5235(4) 0.3772(3) 0.44466(20)
C10 C 0.5821(4) 0.4277(3) 0.44373(21)
C11 C 0.7008(4) 0.3715(3) 0.47593(23)
C12 C 0.6468(5) 0.3174(3) 0.4762(3)
N5 N 0.2495(3) -0.00716(21) 0.46217(15)
N6 N 0.2533(3) 0.00684(20) 0.11312(15)
C13 C 0.3287(4) -0.0061(3) 0.43719(20)
C14 C 0.3335(4) -0.0178(3) 0.38614(20)
C15 C 0.2546(4) -0.0279(3) 0.35880(20)
C16 C 0.1725(4) -0.0267(3) 0.38384(22)
C17 C 0.1721(4) -0.0172(3) 0.43654(19)
C18 C 0.2563(5) -0.0398(3) 0.30296(21)
C19 C 0.2529(4) 0.0200(3) 0.27442(22)
C20 C 0.2544(4) 0.0138(3) 0.21787(19)
C21 C 0.2401(4) -0.041(3) 0.19312(21)
C22 C 0.2406(4) -0.0428(3) 0.14143(20)
C23 C 0.2658(4) 0.0602(3) 0.13692(20)
C24 C 0.2678(4) 0.0654(3) 0.18815(20)
Cu1 Cu 0.24634(5) 0.00134(3) 0.537605(22)
H1 H 0.235 0.125 0.490
H2 H 0.332 0.213 0.480
H3 H 0.533 0.124 0.561
H4 H 0.431 0.040 0.570
H5 H 0.501 0.258 0.542
H6 H 0.571 0.213 0.512
H7 H 0.504 0.240 0.434
H8 H 0.428 0.281 0.463
H9 H 0.458 0.381 0.433
H10 H 0.557 0.469 0.433
H11 H 0.766 0.369 0.489
H12 H 0.674 0.277 0.487
H13 H 0.386 0.002 0.456
H14 H 0.395 -0.018 0.369
H15 H 0.113 -0.034 0.365
H16 H 0.112 -0.017 0.455
H17 H 0.203 -0.066 0.293
H18 H 0.314 -0.062 0.294
H19 H 0.195 0.042 0.284
H20 H 0.306 0.046 0.285
H21 H 0.229 -0.080 0.214
H22 H 0.231 -0.084 0.124
H23 H 0.276 0.099 0.116
H24 H 0.279 0.107 0.205
N4E N 0.1687(3) -0.07589(19) 0.54136(14)
N6F N 0.2467(3) 0.00684(20) 0.61312(15)
Cu1E Cu 0.74634(5) 0.50134(3) 0.462395(22)
Cu1F Cu 0.25366(5) 0.00134(3) 0.037605(22)
C25 C 0.0166(6) 0.9632(5) 0.7027(4)
C26 C 0.0005(6) 0.9929(5) 0.7473(5)
C27 C -0.0248(6) 0.9648(6) 0.7906(4)
C28 C -0.0344(7) 0.9078(6) 0.7877(3)
C29 C -0.0217(8) 0.8741(6) 0.7460(4)
C30 C 0.0052(8) 0.9071(6) 0.7035(3)
H25 H 0.036 0.989 0.672
H26 H 0.009 1.041 0.746
H27 H -0.036 0.994 0.821
H28 H -0.054 0.887 0.821
H29 H -0.028 0.827 0.746
H30 H 0.016 0.883 0.671
C31 C 0.2500 0.7500 0.6449(6)
C32 C 0.1984(10) 0.7847(6) 0.6670(4)
C33 C 0.1959(10) 0.7873(6) 0.7211(5)
C34 C 0.2500 0.7500 0.7453(5)
H31 H 0.2500 0.7500 0.607
H32 H 0.157 0.816 0.648
H33 H 0.154 0.814 0.743
H34 H 0.2500 0.7500 0.785
C32A C 0.3016(10) 0.7153(6) 0.6670(4)
C33A C 0.3041(10) 0.7127(6) 0.7211(5)
H32A H 0.343 0.684 0.648
H33A H 0.346 0.686 0.743
C35 C 0.2500 0.2500 0.2293(6)
C36 C 0.1749(11) 0.2673(6) 0.2000(7)
C37 C 0.1881(18) 0.2595(13) 0.1471(6)
C38 C 0.2500 0.2500 0.1380(13)
H35 H 0.2500 0.2500 0.269
H36 H 0.117 0.286 0.220
H37 H 0.129 0.262 0.124
H38 H 0.2500 0.2500 0.096
C36A C 0.3251(11) 0.2327(6) 0.2000(7)
C37A C 0.3119(18) 0.2405(13) 0.1471(6)
H36A H 0.383 0.214 0.220
H37A H 0.371 0.238 0.124
O7 O 0.5565(7) 0.6306(4) 0.1745(3)
C39 C 0.4851(15) 0.6736(8) 0.1946(7)
O8 O 0.9770(19) 0.3475(14) 0.1748(7)
C40? C 0.7879(14) 0.8471(8) 0.6358(6)
C41? C 0.7986(10) 0.8095(6) 0.5988(5)
C42? C 0.7146(12) 0.8156(8) 0.6353(5)
C43? C 0.7500 0.2500 0.0993(7)
C44? C 0.7381(17) 0.3047(8) 0.1150(6)
C45? C 0.6579(18) 0.3099(9) 0.1334(6)
C46? C 0.5939(23) 0.2603(10) 0.1388(9)
C47? C 0.6106(20) 0.1971(12) 0.1266(8)
C48? C 0.7983(20) 0.3070(11) 0.1046(7)
loop_
_geom_bond_atom_site_label_1
_geom_bond_atom_site_label_2
_geom_bond_site_symmetry_1
_geom_bond_site_symmetry_2
N1 O1 1_555 1_555
O1 Cu1 1_555 1_555
O2 N1 1_555 1_555
O3 N1 1_555 1_555
N2 O4 1_555 1_555
O4 Cu1 1_555 1_555
O5 N2 1_555 1_555
O6 N2 1_555 1_555
N3 C1 1_555 1_555
N4 C10 1_555 1_555
C1 C2 1_555 1_555
C2 C3 1_555 1_555
C3 C4 1_555 1_555
C4 C5 1_555 1_555
C5 N3 1_555 1_555
C6 C3 1_555 1_555
C7 C6 1_555 1_555
C8 C7 1_555 1_555
C9 C8 1_555 1_555
C10 C9 1_555 1_555
C11 N4 1_555 1_555
C12 C8 1_555 1_555
N5 C13 1_555 1_555
N6 C22 1_555 1_555
C13 C14 1_555 1_555
C14 C15 1_555 1_555
C15 C16 1_555 1_555
C16 C17 1_555 1_555
C17 N5 1_555 1_555
C18 C15 1_555 1_555
C19 C18 1_555 1_555
C20 C19 1_555 1_555
C21 C20 1_555 1_555
C22 C21 1_555 1_555
C23 N6 1_555 1_555
C24 C20 1_555 1_555
Cu1 N3 1_555 1_555
H1 C1 1_555 1_555
H2 C2 1_555 1_555
H3 C4 1_555 1_555
H4 C5 1_555 1_555
H5 C6 1_555 1_555
H6 C6 1_555 1_555
H7 C7 1_555 1_555
H8 C7 1_555 1_555
H9 C9 1_555 1_555
H10 C10 1_555 1_555
H11 C11 1_555 1_555
H12 C12 1_555 1_555
H13 C13 1_555 1_555
H14 C14 1_555 1_555
H15 C16 1_555 1_555
H16 C17 1_555 1_555
H17 C18 1_555 1_555
H18 C18 1_555 1_555
H19 C19 1_555 1_555
H20 C19 1_555 1_555
H21 C21 1_555 1_555
H22 C22 1_555 1_555
H23 C23 1_555 1_555
H24 C24 1_555 1_555
C25 C26 1_555 1_555
C26 C27 1_555 1_555
C27 C28 1_555 1_555
C28 C29 1_555 1_555
C29 C30 1_555 1_555
C30 C25 1_555 1_555
H25 C25 1_555 1_555
H26 C26 1_555 1_555
H27 C27 1_555 1_555
H28 C28 1_555 1_555
H29 C29 1_555 1_555
H30 C30 1_555 1_555
C31 C32 1_555 1_555
C32 C33 1_555 1_555
C33 C34 1_555 1_555
C34 H34 1_555 1_555
H31 C31 1_555 1_555
H32 C32 1_555 1_555
H33 C33 1_555 1_555
C35 C36 1_555 1_555
C36 C37 1_555 1_555
C37 C38 1_555 1_555
C38 H38 1_555 1_555
H35 C35 1_555 1_555
H36 C36 1_555 1_555
H37 C37 1_555 1_555
O7 C39 1_555 1_555
N4E Cu1 1_555 1_555
N6F Cu1 1_555 1_555
Cu1E N4 1_555 1_555
Cu1F N6 1_555 1_555
C32A C31 1_555 1_555
C33A C34 1_555 1_555
H32A C32A 1_555 1_555
H33A C33A 1_555 1_555
C36A C35 1_555 1_555
C37A C38 1_555 1_555
H36A C36A 1_555 1_555
H37A C37A 1_555 1_555
C11 C12 1_555 1_555
N5 Cu1 1_555 1_555
C23 C24 1_555 1_555
C32A C33A 1_555 1_555
C36A C37A 1_555 1_555

#END
