
#######################################################################
#
#                 Cambridge Crystallographic Data Centre
#                                CCDC 
#
#######################################################################
#
# If this CIF has been generated from an entry in the Cambridge 
# Structural Database, then it will include bibliographic, chemical, 
# crystal, experimental, refinement or atomic coordinate data resulting 
# from the CCDC's data processing and validation procedures.
#
#######################################################################

data_PUPXII
_symmetry_cell_setting           monoclinic
_symmetry_space_group_name_H-M   'C c'
_symmetry_Int_Tables_number      9
_space_group_name_Hall           'C -2yc'
loop_
_symmetry_equiv_pos_site_id
_symmetry_equiv_pos_as_xyz
1 x,y,z
2 x,-y,1/2+z
3 1/2+x,1/2+y,z
4 1/2+x,1/2-y,1/2+z
_cell_length_a                   16.269(3)
_cell_length_b                   10.545(2)
_cell_length_c                   7.7563(16)
_cell_angle_alpha                90
_cell_angle_beta                 101.11(3)
_cell_angle_gamma                90
_cell_volume                     1305.71
loop_
_atom_site_label
_atom_site_type_symbol
_atom_site_fract_x
_atom_site_fract_y
_atom_site_fract_z
C1 C 0.1915(3) 0.5139(4) 0.7037(6)
C2 C 0.1164(3) 0.5529(4) 0.5678(6)
C3 C 0.1006(4) 0.8070(5) 0.5794(6)
C4 C 0.0803(3) 0.6718(5) 0.5181(6)
C5 C -0.1304(3) 0.5195(5) 0.1428(7)
H1 H -0.1275 0.6072 0.1324
C6 C -0.1999(4) 0.4515(6) 0.0527(8)
H2 H -0.2429 0.4965 -0.0174
C7 C -0.1425(4) 0.2609(6) 0.1617(8)
H3 H -0.1459 0.1729 0.1660
C8 C -0.0717(3) 0.3187(5) 0.2565(7)
H4 H -0.0294 0.2707 0.3238
C9 C -0.0650(3) 0.4515(5) 0.2493(7)
C10 C 0.0074(3) 0.5170(5) 0.3612(6)
Mn1 Mn 0.16670(6) 0.27884(6) 0.47499(8)
N1 N 0.0705(3) 0.4575(4) 0.4655(5)
N2 N 0.0116(3) 0.6464(4) 0.3888(5)
H5 H -0.0229 0.7017 0.3345
N3 N -0.2075(3) 0.3246(5) 0.0626(7)
O1 O 0.2121(2) 0.3991(3) 0.7025(5)
O2 O 0.2292(2) 0.5970(3) 0.8088(5)
O3 O 0.1256(3) 0.8285(3) 0.7409(5)
O4 O 0.0881(3) 0.8902(4) 0.4595(5)
O5 O 0.0994(3) 0.1381(3) 0.6010(5)
H6 H 0.1305 0.0602 0.6142
H7 H 0.0934 0.1687 0.7145
Mn1C Mn -0.33330(6) 0.22116(6) -0.02501(8)
Mn1A Mn 0.16670(6) 0.72116(6) 0.97499(8)
N3C N 0.2925(3) 0.1754(5) 0.5626(7)
O2A O 0.2292(2) 0.4030(3) 0.3088(5)
O3A O 0.1256(3) 0.1715(3) 0.2409(5)
O6 O 0.8969(6) 0.9709(10) 0.9652(14)
H8 H 0.8944 1.0552 0.9813
H9 H 0.9469 0.9316 0.9811
O7 O 0.8919(5) 0.8243(7) 0.2374(13)
H10 H 0.8946 0.9088 0.2230
H11 H 0.9373 0.7759 0.2359
loop_
_geom_bond_atom_site_label_1
_geom_bond_atom_site_label_2
_geom_bond_site_symmetry_1
_geom_bond_site_symmetry_2
C1 C2 1_555 1_555
C2 C4 1_555 1_555
C3 C4 1_555 1_555
C4 N2 1_555 1_555
C5 H1 1_555 1_555
C6 C5 1_555 1_555
H2 C6 1_555 1_555
C7 H3 1_555 1_555
C8 C7 1_555 1_555
H4 C8 1_555 1_555
C9 C5 1_555 1_555
C10 C9 1_555 1_555
Mn1 N1 1_555 1_555
N1 C2 1_555 1_555
N2 C10 1_555 1_555
H5 N2 1_555 1_555
N3 C6 1_555 1_555
O1 C1 1_555 1_555
O2 C1 1_555 1_555
O3 C3 1_555 1_555
O4 C3 1_555 1_555
O5 Mn1 1_555 1_555
H6 O5 1_555 1_555
H7 O5 1_555 1_555
O6 H8 1_555 1_555
H9 O6 1_555 1_555
O7 H10 1_555 1_555
H11 O7 1_555 1_555
Mn1C N3 1_555 1_555
Mn1A O2 1_555 1_555
N3C Mn1 1_555 1_555
O2A Mn1 1_555 1_555
O3A Mn1 1_555 1_555
C7 N3 1_555 1_555
C8 C9 1_555 1_555
C10 N1 1_555 1_555
Mn1 O1 1_555 1_555
O3 Mn1A 1_555 1_555

#END
