
#######################################################################
#
#                 Cambridge Crystallographic Data Centre
#                                CCDC 
#
#######################################################################
#
# If this CIF has been generated from an entry in the Cambridge 
# Structural Database, then it will include bibliographic, chemical, 
# crystal, experimental, refinement or atomic coordinate data resulting 
# from the CCDC's data processing and validation procedures.
#
#######################################################################

data_PURNEX
_symmetry_cell_setting           monoclinic
_symmetry_space_group_name_H-M   'C 2/c'
_symmetry_Int_Tables_number      15
_space_group_name_Hall           '-C 2yn'
loop_
_symmetry_equiv_pos_site_id
_symmetry_equiv_pos_as_xyz
1 x,y,z
2 -x,y,1/2-z
3 1/2+x,1/2+y,z
4 1/2-x,1/2+y,1/2-z
5 -x,-y,-z
6 x,-y,1/2+z
7 1/2-x,1/2-y,-z
8 1/2+x,1/2-y,1/2+z
_cell_length_a                   24.6803(12)
_cell_length_b                   10.5966(6)
_cell_length_c                   19.9825(11)
_cell_angle_alpha                90
_cell_angle_beta                 99.515(5)
_cell_angle_gamma                90
_cell_volume                     5154.07
loop_
_atom_site_label
_atom_site_type_symbol
_atom_site_fract_x
_atom_site_fract_y
_atom_site_fract_z
W1 W 0.39665(3) -0.22851(8) 0.71032(4)
W2 W 0.38151(3) -0.01046(7) 0.82811(4)
W3 W 0.48530(3) 0.24111(8) 0.86776(4)
W4 W 0.39832(3) 0.22945(8) 0.69858(4)
W5 W 0.47565(3) -0.24003(8) 0.86331(4)
W6 W 0.42312(3) 0.01187(8) 0.58521(5)
Si1 Si 0.5000 0.0000(6) 0.7500
O1 O 0.4558(4) -0.0923(11) 0.7782(6)
O2 O 0.3757(5) 0.1389(13) 0.6172(7)
O3 O 0.5298(5) 0.0870(12) 0.8103(7)
O4 O 0.5490(5) 0.3147(12) 0.8474(7)
O5 O 0.3513(5) -0.1419(12) 0.7613(7)
O6 O 0.3727(5) 0.1023(12) 0.7507(7)
O7 O 0.5368(5) -0.2782(13) 0.8214(8)
O8 O 0.4271(5) -0.3186(13) 0.7936(7)
O9 O 0.4683(5) 0.1419(13) 0.5631(7)
O10 O 0.4130(5) -0.1463(13) 0.8841(7)
O11 O 0.4443(5) 0.2783(13) 0.7823(8)
O12 O 0.5200(5) -0.1083(13) 0.9086(7)
O13 O 0.4318(5) 0.1084(12) 0.8722(7)
O14 O 0.3910(5) -0.1042(12) 0.6454(7)
O15 O 0.3503(5) -0.3378(13) 0.6761(7)
O16 O 0.3235(5) 0.0188(12) 0.8589(7)
O17 O 0.3470(6) 0.3355(13) 0.6941(7)
O18 O 0.3854(6) -0.0167(13) 0.5071(8)
O19 O 0.4642(5) 0.3551(12) 0.9205(7)
O20 O 0.4803(5) -0.3546(13) 0.9240(7)
Cu1 Cu 0.5000 0.5000 1.0000
N1 N 0.5730(4) 0.4756(11) 0.9803(7)
C1 C 0.6068(5) 0.3723(10) 0.9968(7)
H1 H 0.5979 0.2995 1.0186
N2 N 0.6562(4) 0.3961(11) 0.9751(7)
C2 C 0.6529(5) 0.5141(12) 0.9451(8)
H2 H 0.6804 0.5535 0.9262
C3 C 0.6015(5) 0.5632(11) 0.9483(8)
H3 H 0.5884 0.6415 0.9319
C4 C 0.7099(8) 0.2328(17) 1.0396(9)
H4 H 0.6827 0.2217 1.0662
C5 C 0.7028(7) 0.3205(17) 0.9878(9)
C6 C 0.7429(8) 0.338(2) 0.9480(12)
H5 H 0.7380 0.3977 0.9133
O1A O 0.5442(4) -0.0923(11) 0.7218(6)
O3A O 0.4702(5) 0.0870(12) 0.6897(7)
N1F N 0.9270(4) 0.0244(11) 1.0197(7)
C1F C 0.8932(5) 0.1277(10) 1.0032(7)
H1F H 0.9021 0.2005 0.9814
N2F N 0.8438(4) 0.1039(11) 1.0249(7)
C2F C 0.8471(5) -0.0141(12) 1.0549(8)
H2F H 0.8196 -0.0535 1.0738
C3F C 0.8985(5) -0.0632(11) 1.0517(8)
H3F H 0.9116 -0.1415 1.0681
C4F C 0.7901(8) 0.2672(17) 0.9604(9)
H4F H 0.8173 0.2783 0.9338
C5F C 0.7972(7) 0.1795(17) 1.0122(9)
C6F C 0.7571(8) 0.162(2) 1.0520(12)
H5F H 0.7620 0.1023 1.0867
W1A W 0.60335(3) -0.22851(8) 0.78968(4)
W2A W 0.61849(3) -0.01046(7) 0.67189(4)
W3A W 0.51470(3) 0.24111(8) 0.63224(4)
W4A W 0.60168(3) 0.22945(8) 0.80142(4)
W5A W 0.52435(3) -0.24003(8) 0.63669(4)
W6A W 0.57688(3) 0.01187(8) 0.91479(5)
O2A O 0.6243(5) 0.1389(13) 0.8828(7)
O4A O 0.4510(5) 0.3147(12) 0.6526(7)
O5A O 0.6487(5) -0.1419(12) 0.7387(7)
O6A O 0.6273(5) 0.1023(12) 0.7493(7)
O7A O 0.4632(5) -0.2782(13) 0.6786(8)
O8A O 0.5729(5) -0.3186(13) 0.7064(7)
O9A O 0.5317(5) 0.1419(13) 0.9369(7)
O10A O 0.5870(5) -0.1463(13) 0.6159(7)
O11A O 0.5557(5) 0.2783(13) 0.7177(8)
O12A O 0.4800(5) -0.1083(13) 0.5914(7)
O13A O 0.5682(5) 0.1084(12) 0.6278(7)
O14A O 0.6090(5) -0.1042(12) 0.8546(7)
O15A O 0.6497(5) -0.3378(13) 0.8239(7)
O16A O 0.6765(5) 0.0188(12) 0.6411(7)
O17A O 0.6530(6) 0.3355(13) 0.8059(7)
O18A O 0.6146(6) -0.0167(13) 0.9929(8)
O19A O 0.5358(5) 0.3551(12) 0.5795(7)
O20A O 0.5197(5) -0.3546(13) 0.5760(7)
O19D O 0.5358(5) 0.6449(12) 1.0795(7)
O20_2 O 0.4803(5) 0.6454(13) 0.9240(7)
O20D O 0.5197(5) 0.3546(13) 1.0760(7)
Cu1_2 Cu 0.5000 -0.5000 1.0000
Cu1A Cu 0.5000 -0.5000 0.5000
Cu1A_2 Cu 0.5000 0.5000 0.5000
Cu1B Cu 1.0000 0.0000 1.0000
N1D N 0.4270(4) 0.5244(11) 1.0197(7)
N3 N 0.7262(6) 0.4584(14) 1.1858(8)
H6 H 0.7385 0.4024 1.2156
C7 C 0.7562(5) 0.5201(15) 1.1431(8)
H7 H 0.7933 0.5082 1.1415
N4 N 0.7213(6) 0.6025(13) 1.1031(7)
C8 C 0.6697(5) 0.5918(15) 1.1211(8)
H8 H 0.6385 0.6365 1.1022
C9 C 0.6727(6) 0.5027(15) 1.1722(9)
H9 H 0.6439 0.4771 1.1937
C10 C 0.7765(8) 0.638(2) 1.0178(11)
H10 H 0.7936 0.5609 1.0281
C11 C 0.7364(8) 0.6779(16) 1.0535(9)
C12 C 0.7085(9) 0.787(2) 1.0334(14)
H11 H 0.6792 0.8119 1.0544
N3F N 0.7738(6) 1.0416(14) 0.8142(8)
H6F H 0.7615 1.0976 0.7844
C7F C 0.7438(5) 0.9799(15) 0.8569(8)
H7F H 0.7067 0.9918 0.8585
N4F N 0.7787(6) 0.8975(13) 0.8969(7)
C8F C 0.8303(5) 0.9082(15) 0.8789(8)
H8F H 0.8615 0.8635 0.8978
C9F C 0.8273(6) 0.9973(15) 0.8278(9)
H9F H 0.8561 1.0229 0.8063
C10F C 0.7235(8) 0.862(2) 0.9822(11)
H10F H 0.7064 0.9391 0.9719
C11F C 0.7636(8) 0.8221(16) 0.9465(9)
C12F C 0.7915(9) 0.713(2) 0.9666(14)
H11F H 0.8208 0.6881 0.9456
O21 O 0.2469(6) -0.2486(14) 0.7539(11)
H12 H 0.2741 -0.2038 0.7473
H13 H 0.2275 -0.2046 0.7766
loop_
_geom_bond_atom_site_label_1
_geom_bond_atom_site_label_2
_geom_bond_site_symmetry_1
_geom_bond_site_symmetry_2
W1 O1 1_555 1_555
W2 O1 1_555 1_555
W3 O3 1_555 1_555
W4 O2 1_555 1_555
W5 O1 1_555 1_555
W6 O2 1_555 1_555
Si1 O1 1_555 1_555
O3 Si1 1_555 1_555
O4 W3 1_555 1_555
O5 W1 1_555 1_555
O6 W2 1_555 1_555
O7 W5 1_555 1_555
O8 W1 1_555 1_555
O9 W6 1_555 1_555
O10 W2 1_555 1_555
O11 W3 1_555 1_555
O12 W5 1_555 1_555
O13 W2 1_555 1_555
O14 W1 1_555 1_555
O15 W1 1_555 1_555
O16 W2 1_555 1_555
O17 W4 1_555 1_555
O18 W6 1_555 1_555
O19 W3 1_555 1_555
O20 W5 1_555 1_555
Cu1 O19 1_555 1_555
N1 Cu1 1_555 1_555
C1 N1 1_555 1_555
H1 C1 1_555 1_555
N2 C1 1_555 1_555
C2 N2 1_555 1_555
H2 C2 1_555 1_555
C3 N1 1_555 1_555
H3 C3 1_555 1_555
C4 H4 1_555 1_555
C5 N2 1_555 1_555
C6 C5 1_555 1_555
H5 C6 1_555 1_555
N3 H6 1_555 1_555
C7 N3 1_555 1_555
H7 C7 1_555 1_555
N4 C7 1_555 1_555
C8 N4 1_555 1_555
H8 C8 1_555 1_555
C9 N3 1_555 1_555
H9 C9 1_555 1_555
C10 H10 1_555 1_555
C11 N4 1_555 1_555
C12 C11 1_555 1_555
H11 C12 1_555 1_555
O21 H12 1_555 1_555
H13 O21 1_555 1_555
O1A Si1 1_555 1_555
O3A W4 1_555 1_555
N1F C1F 1_555 1_555
C1F H1F 1_555 1_555
N2F C1F 1_555 1_555
C2F N2F 1_555 1_555
H2F C2F 1_555 1_555
C3F N1F 1_555 1_555
H3F C3F 1_555 1_555
C4F C6 1_555 1_555
H4F C4F 1_555 1_555
C5F N2F 1_555 1_555
C6F C4 1_555 1_555
H5F C6F 1_555 1_555
W1A O7 1_555 1_555
W2A O1A 1_555 1_555
W3A O9 1_555 1_555
W4A O3 1_555 1_555
W5A O1A 1_555 1_555
W6A O3 1_555 1_555
O2A W4A 1_555 1_555
O4A W4 1_555 1_555
O5A W1A 1_555 1_555
O6A W2A 1_555 1_555
O7A W1 1_555 1_555
O8A W1A 1_555 1_555
O9A W3 1_555 1_555
O10A W2A 1_555 1_555
O11A W3A 1_555 1_555
O12A W6 1_555 1_555
O13A W2A 1_555 1_555
O14A W1A 1_555 1_555
O15A W1A 1_555 1_555
O16A W2A 1_555 1_555
O17A W4A 1_555 1_555
O18A W6A 1_555 1_555
O19A W3A 1_555 1_555
O20A W5A 1_555 1_555
O19D Cu1 1_555 1_555
O20_2 Cu1 1_555 1_555
O20D Cu1 1_555 1_555
Cu1_2 O20 1_555 1_555
Cu1A O20A 1_555 1_555
Cu1A_2 O19A 1_555 1_555
Cu1B N1F 1_555 1_555
N1D Cu1 1_555 1_555
N3F H6F 1_555 1_555
C7F N3F 1_555 1_555
H7F C7F 1_555 1_555
N4F C7F 1_555 1_555
C8F N4F 1_555 1_555
H8F C8F 1_555 1_555
C9F N3F 1_555 1_555
H9F C9F 1_555 1_555
C10F C12 1_555 1_555
H10F C10F 1_555 1_555
C11F N4F 1_555 1_555
C12F C10 1_555 1_555
H11F C12F 1_555 1_555
W2 O5 1_555 1_555
W3 O13 1_555 1_555
W4 O6 1_555 1_555
W4 O11 1_555 1_555
W5 O8 1_555 1_555
W5 O10 1_555 1_555
W6 O14 1_555 1_555
W6 O3A 1_555 1_555
Si1 O3A 1_555 1_555
O4 W4A 1_555 1_555
O12 W6A 1_555 1_555
C2 C3 1_555 1_555
C4 C5 1_555 1_555
C8 C9 1_555 1_555
C10 C11 1_555 1_555
O1A W1A 1_555 1_555
O3A W3A 1_555 1_555
C2F C3F 1_555 1_555
C4F C5F 1_555 1_555
C5F C6F 1_555 1_555
W2A O5A 1_555 1_555
W3A O4A 1_555 1_555
W3A O13A 1_555 1_555
W4A O6A 1_555 1_555
W4A O11A 1_555 1_555
W5A O7A 1_555 1_555
W5A O8A 1_555 1_555
W5A O10A 1_555 1_555
W5A O12A 1_555 1_555
W6A O2A 1_555 1_555
W6A O9A 1_555 1_555
W6A O14A 1_555 1_555
C8F C9F 1_555 1_555
C10F C11F 1_555 1_555
C11F C12F 1_555 1_555

#END
