
#######################################################################
#
#                 Cambridge Crystallographic Data Centre
#                                CCDC 
#
#######################################################################
#
# If this CIF has been generated from an entry in the Cambridge 
# Structural Database, then it will include bibliographic, chemical, 
# crystal, experimental, refinement or atomic coordinate data resulting 
# from the CCDC's data processing and validation procedures.
#
#######################################################################

data_PURNIB
_symmetry_cell_setting           monoclinic
_symmetry_space_group_name_H-M   'C 2/c'
_symmetry_Int_Tables_number      15
_space_group_name_Hall           '-C 2yn'
loop_
_symmetry_equiv_pos_site_id
_symmetry_equiv_pos_as_xyz
1 x,y,z
2 -x,y,1/2-z
3 1/2+x,1/2+y,z
4 1/2-x,1/2+y,1/2-z
5 -x,-y,-z
6 x,-y,1/2+z
7 1/2-x,1/2-y,-z
8 1/2+x,1/2-y,1/2+z
_cell_length_a                   24.5800(12)
_cell_length_b                   10.4454(4)
_cell_length_c                   22.4777(9)
_cell_angle_alpha                90
_cell_angle_beta                 98.322(4)
_cell_angle_gamma                90
_cell_volume                     5710.33
loop_
_atom_site_label
_atom_site_type_symbol
_atom_site_fract_x
_atom_site_fract_y
_atom_site_fract_z
K1 K 0.5000 1.1762(4) 0.2500
W1 W 0.36112(3) 0.68690(5) 0.17895(2)
W2 W 0.54480(3) 0.66486(5) 0.10821(2)
W3 W 0.45818(2) 0.43756(5) 0.14310(2)
W4 W 0.44853(2) 0.91431(5) 0.14627(2)
W5 W 0.41040(3) 0.44076(6) 0.29176(3)
W6 W 0.40607(3) 0.91184(6) 0.28033(3)
Si1 Si 0.5000 0.6791(4) 0.2500
O1 O 0.2965(4) 0.6489(8) 0.1457(4)
O2 O 0.3817(4) 0.8206(8) 0.1262(4)
O3 O 0.3468(4) 0.8184(8) 0.2338(4)
O4 O 0.3647(4) 1.0291(9) 0.3096(4)
O5 O 0.3596(5) 0.3219(9) 0.2953(4)
O6 O 0.5876(4) 0.7824(8) 0.1574(4)
O7 O 0.4164(4) 1.0039(8) 0.2068(4)
O8 O 0.3699(4) 0.5704(8) 0.2453(4)
O9 O 0.5955(4) 0.5339(8) 0.1355(4)
O10 O 0.4734(4) 0.3512(8) 0.3351(4)
O11 O 0.4846(4) 0.7826(8) 0.1084(4)
O12 O 0.5180(4) 0.5893(8) 0.1961(3)
O13 O 0.4377(4) 0.3912(8) 0.2182(4)
O14 O 0.4921(4) 0.5322(8) 0.0834(4)
O15 O 0.5186(4) 0.9613(8) 0.1854(4)
O16 O 0.4481(4) 0.7690(7) 0.2224(3)
O17 O 0.4050(4) 0.5709(8) 0.1403(4)
O18 O 0.4383(4) 1.0280(8) 0.0893(3)
O19 O 0.5632(4) 0.7041(8) 0.0390(4)
O20 O 0.4226(4) 0.3261(8) 0.0965(4)
Cu1 Cu 0.43555(7) 1.17184(14) 0.02987(7)
N1 N 0.3578(3) 1.1398(9) 0.0036(4)
C1 C 0.3255(4) 1.0615(9) 0.0333(3)
H1 H 0.3362 1.0223 0.0703
N2 N 0.2748(4) 1.0513(9) -0.0015(4)
C2 C 0.2756(4) 1.1234(11) -0.0526(4)
H2 H 0.2467 1.1333 -0.0838
C3 C 0.3269(4) 1.1781(10) -0.0495(4)
H3 H 0.3387 1.2315 -0.0782
C4 C 0.2311(6) 0.9771(12) 0.0136(6)
C5 C 0.1779(5) 1.0098(15) -0.0111(7)
H4 H 0.1713 1.0816 -0.0355
C6 C 0.2399(8) 0.8722(13) 0.0521(6)
H5 H 0.2755 0.8525 0.0698
N3 N 0.0159(4) 0.6759(8) 0.0426(4)
C7 C 0.0467(4) 0.7801(8) 0.0346(4)
H6 H 0.0334 0.8608 0.0226
N4 N 0.1003(4) 0.7461(8) 0.0470(4)
C8 C 0.1025(4) 0.6210(8) 0.0628(4)
H7 H 0.1344 0.5732 0.0736
C9 C 0.0504(4) 0.5776(8) 0.0600(4)
H8 H 0.0400 0.4947 0.0686
C10 C 0.1447(5) 0.8281(11) 0.0382(5)
C11 C 0.1355(7) 0.9342(12) 0.0011(6)
H9 H 0.0998 0.9544 -0.0158
C12 C 0.1979(6) 0.7990(15) 0.0640(7)
H10 H 0.2045 0.7289 0.0895
O12A O 0.4820(4) 0.5893(8) 0.3039(3)
O16A O 0.5519(4) 0.7690(7) 0.2776(3)
W1A W 0.63888(3) 0.68690(5) 0.32105(2)
W2A W 0.45520(3) 0.66486(5) 0.39179(2)
W3A W 0.54182(2) 0.43756(5) 0.35690(2)
W4A W 0.55147(2) 0.91431(5) 0.35373(2)
W5A W 0.58960(3) 0.44076(6) 0.20824(3)
W6A W 0.59393(3) 0.91184(6) 0.21967(3)
O1A O 0.7035(4) 0.6489(8) 0.3543(4)
O2A O 0.6183(4) 0.8206(8) 0.3738(4)
O3A O 0.6532(4) 0.8184(8) 0.2662(4)
O4A O 0.6353(4) 1.0291(9) 0.1904(4)
O5A O 0.6404(5) 0.3219(9) 0.2047(4)
O6A O 0.4124(4) 0.7824(8) 0.3426(4)
O7A O 0.5836(4) 1.0039(8) 0.2932(4)
O8A O 0.6301(4) 0.5704(8) 0.2547(4)
O9A O 0.4045(4) 0.5339(8) 0.3645(4)
O10A O 0.5266(4) 0.3512(8) 0.1649(4)
O11A O 0.5154(4) 0.7826(8) 0.3916(4)
O13A O 0.5623(4) 0.3912(8) 0.2818(4)
O14A O 0.5079(4) 0.5322(8) 0.4166(4)
O15A O 0.4814(4) 0.9613(8) 0.3146(4)
O17A O 0.5950(4) 0.5709(8) 0.3597(4)
O18A O 0.5617(4) 1.0280(8) 0.4107(3)
O19A O 0.4368(4) 0.7041(8) 0.4610(4)
O20A O 0.5774(4) 0.3261(8) 0.4035(4)
Cu1A Cu 0.56445(7) 1.17184(14) 0.47013(7)
N1A N 0.6422(3) 1.1398(9) 0.4964(4)
C1A C 0.6745(4) 1.0615(9) 0.4667(3)
H1A H 0.6638 1.0223 0.4297
N2A N 0.7252(4) 1.0513(9) 0.5015(4)
C2A C 0.7244(4) 1.1234(11) 0.5526(4)
H2A H 0.7533 1.1333 0.5838
C3A C 0.6731(4) 1.1781(10) 0.5495(4)
H3A H 0.6613 1.2315 0.5782
C4A C 0.7689(6) 0.9771(12) 0.4864(6)
C5A C 0.8221(5) 1.0098(15) 0.5111(7)
H4A H 0.8287 1.0816 0.5355
C6A C 0.7601(8) 0.8722(13) 0.4479(6)
H5A H 0.7245 0.8525 0.4302
N3A N 0.9841(4) 0.6759(8) 0.4574(4)
C7A C 0.9533(4) 0.7801(8) 0.4654(4)
H6A H 0.9666 0.8608 0.4774
N4A N 0.8997(4) 0.7461(8) 0.4530(4)
C8A C 0.8975(4) 0.6210(8) 0.4372(4)
H7A H 0.8656 0.5732 0.4264
C9A C 0.9496(4) 0.5776(8) 0.4400(4)
H8A H 0.9600 0.4947 0.4314
C10A C 0.8553(5) 0.8281(11) 0.4618(5)
C11A C 0.8645(7) 0.9342(12) 0.4989(6)
H9A H 0.9002 0.9544 0.5158
C12A C 0.8021(6) 0.7990(15) 0.4360(7)
H10A H 0.7955 0.7289 0.4105
O19D O 0.4368(4) 1.2959(8) -0.0390(4)
O19E O 0.5632(4) 1.2959(8) 0.5390(4)
O20_2 O 0.4226(4) 1.3261(8) 0.0965(4)
O20A_2 O 0.5774(4) 1.3261(8) 0.4035(4)
Cu1_2 Cu 0.43555(7) 0.17184(14) 0.02987(7)
Cu1A_2 Cu 0.56445(7) 0.17184(14) 0.47013(7)
Cu1B Cu -0.06445(7) 0.67184(14) 0.02987(7)
Cu1C Cu 1.06445(7) 0.67184(14) 0.47013(7)
Cu1D Cu 0.56445(7) 0.82816(14) -0.02987(7)
Cu1E Cu 0.43555(7) 0.82816(14) 0.52987(7)
N3B N 0.5159(4) 1.1759(8) 0.0426(4)
N3C N 0.4841(4) 1.1759(8) 0.4574(4)
Co1? Co 0.41040(3) 0.44076(6) 0.29176(3)
Co2? Co 0.40607(3) 0.91184(6) 0.28033(3)
loop_
_geom_bond_atom_site_label_1
_geom_bond_atom_site_label_2
_geom_bond_site_symmetry_1
_geom_bond_site_symmetry_2
W1 O1 1_555 1_555
W2 O6 1_555 1_555
W3 O12 1_555 1_555
W4 O2 1_555 1_555
W5 O5 1_555 1_555
W6 O3 1_555 1_555
Si1 O12 1_555 1_555
O2 W1 1_555 1_555
O3 W1 1_555 1_555
O4 W6 1_555 1_555
O6 W6A 1_555 1_555
O7 W4 1_555 1_555
O8 W1 1_555 1_555
O9 W2 1_555 1_555
O10 W5 1_555 1_555
O11 W2 1_555 1_555
O12 W2 1_555 1_555
O13 W3 1_555 1_555
O14 W2 1_555 1_555
O15 W4 1_555 1_555
O16 W1 1_555 1_555
O17 W1 1_555 1_555
O18 W4 1_555 1_555
O19 W2 1_555 1_555
O20 W3 1_555 1_555
Cu1 O18 1_555 1_555
N1 Cu1 1_555 1_555
C1 N1 1_555 1_555
H1 C1 1_555 1_555
N2 C1 1_555 1_555
C2 N2 1_555 1_555
H2 C2 1_555 1_555
C3 N1 1_555 1_555
H3 C3 1_555 1_555
C4 N2 1_555 1_555
C5 C4 1_555 1_555
H4 C5 1_555 1_555
C6 C4 1_555 1_555
H5 C6 1_555 1_555
N3 C7 1_555 1_555
C7 H6 1_555 1_555
N4 C7 1_555 1_555
C8 N4 1_555 1_555
H7 C8 1_555 1_555
C9 N3 1_555 1_555
H8 C9 1_555 1_555
C10 N4 1_555 1_555
C11 C5 1_555 1_555
H9 C11 1_555 1_555
C12 C6 1_555 1_555
H10 C12 1_555 1_555
O12A W5 1_555 1_555
O16A Si1 1_555 1_555
W1A O16A 1_555 1_555
W2A O12A 1_555 1_555
W3A O10 1_555 1_555
W4A O16A 1_555 1_555
W5A O9 1_555 1_555
W6A O15 1_555 1_555
O1A W1A 1_555 1_555
O2A W1A 1_555 1_555
O3A W1A 1_555 1_555
O4A W6A 1_555 1_555
O5A W5A 1_555 1_555
O6A W6 1_555 1_555
O7A W4A 1_555 1_555
O8A W1A 1_555 1_555
O9A W5 1_555 1_555
O10A W3 1_555 1_555
O11A W2A 1_555 1_555
O13A W3A 1_555 1_555
O14A W2A 1_555 1_555
O15A W6 1_555 1_555
O17A W1A 1_555 1_555
O18A W4A 1_555 1_555
O19A W2A 1_555 1_555
O20A W3A 1_555 1_555
Cu1A O18A 1_555 1_555
N1A Cu1A 1_555 1_555
C1A N1A 1_555 1_555
H1A C1A 1_555 1_555
N2A C1A 1_555 1_555
C2A N2A 1_555 1_555
H2A C2A 1_555 1_555
C3A N1A 1_555 1_555
H3A C3A 1_555 1_555
C4A N2A 1_555 1_555
C5A C4A 1_555 1_555
H4A C5A 1_555 1_555
C6A C4A 1_555 1_555
H5A C6A 1_555 1_555
N3A C7A 1_555 1_555
C7A H6A 1_555 1_555
N4A C7A 1_555 1_555
C8A N4A 1_555 1_555
H7A C8A 1_555 1_555
C9A N3A 1_555 1_555
H8A C9A 1_555 1_555
C10A N4A 1_555 1_555
C11A C5A 1_555 1_555
H9A C11A 1_555 1_555
C12A C6A 1_555 1_555
H10A C12A 1_555 1_555
O19D Cu1 1_555 1_555
O19E Cu1A 1_555 1_555
O20_2 Cu1 1_555 1_555
O20A_2 Cu1A 1_555 1_555
Cu1_2 O20 1_555 1_555
Cu1A_2 O20A 1_555 1_555
Cu1B N3 1_555 1_555
Cu1C N3A 1_555 1_555
Cu1D O19 1_555 1_555
Cu1E O19A 1_555 1_555
N3B Cu1 1_555 1_555
N3C Cu1A 1_555 1_555
W3 O14 1_555 1_555
W3 O17 1_555 1_555
W4 O11 1_555 1_555
W4 O16 1_555 1_555
W5 O8 1_555 1_555
W5 O13 1_555 1_555
W6 O7 1_555 1_555
W6 O16 1_555 1_555
Si1 O16 1_555 1_555
Si1 O12A 1_555 1_555
O12 W5A 1_555 1_555
C2 C3 1_555 1_555
C8 C9 1_555 1_555
C10 C11 1_555 1_555
C10 C12 1_555 1_555
O12A W3A 1_555 1_555
O16A W6A 1_555 1_555
W2A O6A 1_555 1_555
W2A O9A 1_555 1_555
W3A O14A 1_555 1_555
W3A O17A 1_555 1_555
W4A O2A 1_555 1_555
W4A O11A 1_555 1_555
W4A O15A 1_555 1_555
W5A O8A 1_555 1_555
W5A O10A 1_555 1_555
W5A O13A 1_555 1_555
W6A O3A 1_555 1_555
W6A O7A 1_555 1_555
C2A C3A 1_555 1_555
C8A C9A 1_555 1_555
C10A C11A 1_555 1_555
C10A C12A 1_555 1_555

#END
