
#######################################################################
#
#                 Cambridge Crystallographic Data Centre
#                                CCDC 
#
#######################################################################
#
# If this CIF has been generated from an entry in the Cambridge 
# Structural Database, then it will include bibliographic, chemical, 
# crystal, experimental, refinement or atomic coordinate data resulting 
# from the CCDC's data processing and validation procedures.
#
#######################################################################

data_PUSDOX
_symmetry_cell_setting           monoclinic
_symmetry_space_group_name_H-M   'C 2/c'
_symmetry_Int_Tables_number      15
_space_group_name_Hall           '-C 2yn'
loop_
_symmetry_equiv_pos_site_id
_symmetry_equiv_pos_as_xyz
1 x,y,z
2 -x,y,1/2-z
3 1/2+x,1/2+y,z
4 1/2-x,1/2+y,1/2-z
5 -x,-y,-z
6 x,-y,1/2+z
7 1/2-x,1/2-y,-z
8 1/2+x,1/2-y,1/2+z
_cell_length_a                   21.536(4)
_cell_length_b                   18.048(4)
_cell_length_c                   26.298(5)
_cell_angle_alpha                90
_cell_angle_beta                 104.55(3)
_cell_angle_gamma                90
_cell_volume                     9893.73
loop_
_atom_site_label
_atom_site_type_symbol
_atom_site_fract_x
_atom_site_fract_y
_atom_site_fract_z
C1 C -0.49497(17) -0.1913(2) 0.11924(14)
C2 C -0.43638(17) -0.1479(2) 0.14669(15)
C3 C -0.39046(19) -0.1808(2) 0.18573(18)
H1 H -0.3954 -0.23 0.1945
C4 C -0.3368(2) -0.1418(2) 0.21231(18)
H2 H -0.3067 -0.1641 0.2397
C5 C -0.32799(17) -0.0693(2) 0.19801(15)
C6 C -0.37470(18) -0.0363(2) 0.15803(16)
H3 H -0.3691 0.0121 0.148
C7 C -0.42951(17) -0.0752(2) 0.13300(15)
H4 H -0.4613 -0.0524 0.1072
C8 C -0.15232(16) 0.2075(2) 0.13764(15)
C9 C -0.18336(16) 0.1462(2) 0.16022(14)
C10 C -0.21074(16) 0.0859(2) 0.12963(14)
H5 H -0.2084 0.0825 0.0949
C11 C -0.24132(16) 0.0311(2) 0.15083(14)
H6 H -0.2602 -0.0085 0.13
C12 C -0.24401(16) 0.0347(2) 0.20298(14)
C13 C -0.21611(16) 0.0950(2) 0.23391(14)
H7 H -0.2175 0.098 0.2689
C14 C -0.18675(17) 0.1497(2) 0.21229(15)
H8 H -0.1687 0.19 0.2328
C15 C -0.27125(17) -0.0275(2) 0.22824(15)
C16 C -0.10514(16) -0.2185(2) 0.47885(14)
C17 C -0.11509(17) -0.20747(19) 0.42098(14)
C18 C -0.06732(17) -0.1778(2) 0.40017(14)
H9 H -0.0288 -0.1626 0.4225
C19 C -0.07666(18) -0.1707(2) 0.34655(15)
H10 H -0.0441 -0.1516 0.3329
C20 C -0.1350(2) -0.1923(2) 0.31257(15)
C21 C -0.1827(2) -0.2211(2) 0.33399(16)
H11 H -0.2219 -0.2348 0.3119
C22 C -0.17276(18) -0.2297(2) 0.38735(14)
H12 H -0.2047 -0.2504 0.401
C23 C -0.06486(16) 0.0429(2) 0.13713(14)
C24 C -0.08027(16) -0.0196(2) 0.16918(14)
C25 C -0.09844(19) -0.0886(2) 0.14611(15)
H13 H -0.0971 -0.0973 0.1115
C26 C -0.1183(2) -0.1435(2) 0.17464(15)
H14 H -0.1308 -0.1891 0.159
C27 C -0.11981(18) -0.1317(2) 0.22662(15)
C28 C -0.10045(17) -0.0631(2) 0.24987(14)
H15 H -0.101 -0.0547 0.2847
C29 C -0.08053(17) -0.0078(2) 0.22135(14)
H16 H -0.0672 0.0376 0.2371
C30 C -0.1473(2) -0.1896(2) 0.25464(16)
C31 C 0.08892(18) 0.0767(2) 0.12161(16)
H17 H 0.084 0.0906 0.1545
C32 C 0.14081(18) 0.0339(2) 0.11919(16)
H18 H 0.1696 0.0182 0.1499
C33 C 0.15005(17) 0.0141(2) 0.07053(14)
C34 C 0.1043(2) 0.0370(2) 0.02674(15)
H19 H 0.1082 0.0245 -0.0067
C35 C 0.05285(19) 0.0783(3) 0.03259(15)
H20 H 0.022 0.0921 0.0025
C36 C 0.30800(17) -0.0854(2) 0.10561(15)
H21 H 0.344 -0.0879 0.1338
C37 C 0.25997(17) -0.0369(2) 0.10831(15)
H22 H 0.264 -0.0065 0.1375
C38 C 0.20509(16) -0.0335(2) 0.06696(14)
C39 C 0.20339(17) -0.0773(2) 0.02325(14)
H23 H 0.1685 -0.0748 -0.0059
C40 C 0.25359(16) -0.1243(2) 0.02331(14)
H24 H 0.2518 -0.1537 -0.0061
N1 N 0.04484(13) 0.09956(17) 0.07861(11)
N2 N 0.30526(13) -0.12919(16) 0.06436(11)
O1 O -0.49243(11) -0.26060(14) 0.12328(10)
O2 O -0.54297(11) -0.15440(14) 0.09384(10)
O3 O -0.13937(11) 0.19609(14) 0.09222(10)
O4 O -0.14246(12) 0.26804(14) 0.15992(10)
O5 O -0.24583(13) -0.04458(16) 0.27383(11)
O6 O -0.06565(11) -0.17659(14) 0.50972(9)
O7 O -0.13733(11) -0.26961(14) 0.49275(9)
O8 O -0.08144(11) 0.03965(14) 0.08790(9)
O9 O -0.03589(11) 0.09960(13) 0.16048(9)
O10 O -0.18371(18) -0.2369(2) 0.22842(12)
Zn1 Zn -0.039750(18) 0.15082(2) 0.086920(15)
Zn2 Zn -0.124750(18) 0.29685(2) 0.067060(15)
N2B N -0.19474(13) 0.37081(16) 0.06436(11)
O1B O 0.00757(11) 0.23940(14) 0.12328(10)
O2B O -0.04297(11) 0.34560(14) 0.09384(10)
O6E O -0.06565(11) 0.17659(14) 0.00972(9)
O7E O -0.13733(11) 0.26961(14) -0.00725(9)
Zn1B Zn -0.539750(18) -0.34918(2) 0.086920(15)
Zn1E Zn -0.039750(18) -0.15082(2) 0.586920(15)
Zn2B Zn -0.624750(18) -0.20315(2) 0.067060(15)
Zn2B_2 Zn 0.375250(18) -0.20315(2) 0.067060(15)
Zn2E Zn -0.124750(18) -0.29685(2) 0.567060(15)
loop_
_geom_bond_atom_site_label_1
_geom_bond_atom_site_label_2
_geom_bond_site_symmetry_1
_geom_bond_site_symmetry_2
C1 C2 1_555 1_555
C2 C3 1_555 1_555
C3 H1 1_555 1_555
C4 C3 1_555 1_555
H2 C4 1_555 1_555
C5 C4 1_555 1_555
C6 C5 1_555 1_555
H3 C6 1_555 1_555
C7 C2 1_555 1_555
H4 C7 1_555 1_555
C8 C9 1_555 1_555
C9 C10 1_555 1_555
C10 H5 1_555 1_555
C11 C10 1_555 1_555
H6 C11 1_555 1_555
C12 C11 1_555 1_555
C13 C12 1_555 1_555
H7 C13 1_555 1_555
C14 C9 1_555 1_555
H8 C14 1_555 1_555
C15 C5 1_555 1_555
C16 C17 1_555 1_555
C17 C18 1_555 1_555
C18 H9 1_555 1_555
C19 C18 1_555 1_555
H10 C19 1_555 1_555
C20 C19 1_555 1_555
C21 C20 1_555 1_555
H11 C21 1_555 1_555
C22 C17 1_555 1_555
H12 C22 1_555 1_555
C23 C24 1_555 1_555
C24 C25 1_555 1_555
C25 H13 1_555 1_555
C26 C25 1_555 1_555
H14 C26 1_555 1_555
C27 C26 1_555 1_555
C28 C27 1_555 1_555
H15 C28 1_555 1_555
C29 C24 1_555 1_555
H16 C29 1_555 1_555
C30 C20 1_555 1_555
C31 H17 1_555 1_555
C32 C31 1_555 1_555
H18 C32 1_555 1_555
C33 C32 1_555 1_555
C34 C33 1_555 1_555
H19 C34 1_555 1_555
C35 C34 1_555 1_555
H20 C35 1_555 1_555
C36 H21 1_555 1_555
C37 C36 1_555 1_555
H22 C37 1_555 1_555
C38 C33 1_555 1_555
C39 C38 1_555 1_555
H23 C39 1_555 1_555
C40 C39 1_555 1_555
H24 C40 1_555 1_555
N1 C31 1_555 1_555
N2 C36 1_555 1_555
O1 C1 1_555 1_555
O2 C1 1_555 1_555
O3 C8 1_555 1_555
O4 C8 1_555 1_555
O5 C15 1_555 1_555
O6 C16 1_555 1_555
O7 C16 1_555 1_555
O8 C23 1_555 1_555
O9 C23 1_555 1_555
O10 C30 1_555 1_555
Zn1 N1 1_555 1_555
Zn2 O3 1_555 1_555
N2B Zn2 1_555 1_555
O1B Zn1 1_555 1_555
O2B Zn2 1_555 1_555
O6E Zn1 1_555 1_555
O7E Zn2 1_555 1_555
Zn1B O1 1_555 1_555
Zn1E O6 1_555 1_555
Zn2B O2 1_555 1_555
Zn2B_2 N2 1_555 1_555
Zn2E O7 1_555 1_555
C6 C7 1_555 1_555
C12 C15 1_555 1_555
C13 C14 1_555 1_555
C21 C22 1_555 1_555
C27 C30 1_555 1_555
C28 C29 1_555 1_555
C35 N1 1_555 1_555
C37 C38 1_555 1_555
C40 N2 1_555 1_555
O3 Zn1 1_555 1_555
O8 Zn1 1_555 1_555
O9 Zn1 1_555 1_555

#END
