
#######################################################################
#
#                 Cambridge Crystallographic Data Centre
#                                CCDC 
#
#######################################################################
#
# If this CIF has been generated from an entry in the Cambridge 
# Structural Database, then it will include bibliographic, chemical, 
# crystal, experimental, refinement or atomic coordinate data resulting 
# from the CCDC's data processing and validation procedures.
#
#######################################################################

data_PUVJOG
_symmetry_cell_setting           orthorhombic
_symmetry_space_group_name_H-M   'I m m a'
_symmetry_Int_Tables_number      74
_space_group_name_Hall           '-I 2b 2'
loop_
_symmetry_equiv_pos_site_id
_symmetry_equiv_pos_as_xyz
1 x,y,z
2 -x,1/2-y,z
3 -x,1/2+y,-z
4 x,-y,-z
5 1/2+x,1/2+y,1/2+z
6 1/2-x,-y,1/2+z
7 1/2-x,y,1/2-z
8 1/2+x,1/2-y,1/2-z
9 -x,-y,-z
10 x,1/2+y,-z
11 x,1/2-y,z
12 -x,y,z
13 1/2-x,1/2-y,1/2-z
14 1/2+x,y,1/2-z
15 1/2+x,-y,1/2+z
16 1/2-x,1/2+y,1/2+z
_cell_length_a                   6.7107(20)
_cell_length_b                   18.7431(30)
_cell_length_c                   10.2809(20)
_cell_angle_alpha                90
_cell_angle_beta                 90
_cell_angle_gamma                90
_cell_volume                     1293.12
loop_
_atom_site_label
_atom_site_type_symbol
_atom_site_fract_x
_atom_site_fract_y
_atom_site_fract_z
Co1 Co 0.2500 0.2500 0.25000
C4 C 0.0000 0.2875(2) 0.3374(16)
C5 C 0.1889(17) 0.3124(2) 0.4023(7)
C6 C 0.302(2) 0.2500 0.4411(10)
Co1A Co -0.2500 0.2500 0.25000
C4A C 0.0000 0.2125(2) 0.3374(16)
C4F C 0.5000 0.2875(2) 0.1626(16)
C4G C 0.5000 0.2125(2) 0.1626(16)
C5J C 0.1889(17) 0.1876(2) 0.4023(7)
C5K C -0.1889(17) 0.3124(2) 0.4023(7)
C5A C -0.1889(17) 0.1876(2) 0.4023(7)
C5F C 0.3111(17) 0.3124(2) 0.0977(7)
C5L C 0.3111(17) 0.1876(2) 0.0977(7)
C6A C -0.302(2) 0.2500 0.4411(10)
C6F C 0.198(2) 0.2500 0.0589(10)
V1 V 0.2500 0.7500 0.25000
O1 O 0.0000 0.7500 0.30697(8)
O2 O 0.1562(8) 0.8325(7) 0.1580(9)
C1 C -0.196(2) 0.9638(6) 0.0260(12)
C2 C 0.0000 0.9400(6) 0.0430(18)
C3 C 0.0000 0.8708(6) 0.1170(10)
V1A V -0.2500 0.7500 0.25000
V1C V 0.2500 1.2500 -0.25000
V1B V -0.2500 1.2500 -0.25000
O1F O 0.5000 0.7500 0.19303(8)
O2K O -0.1562(8) 0.8325(7) 0.1580(9)
O2C O 0.1562(8) 1.1675(7) -0.1580(9)
O2H O -0.1562(8) 1.1675(7) -0.1580(9)
O2F O 0.3438(8) 0.8325(7) 0.3420(9)
O2J O 0.1562(8) 0.6675(7) 0.1580(9)
O2L O 0.3438(8) 0.6675(7) 0.3420(9)
C1C C -0.196(2) 1.0362(6) -0.0260(12)
C1H C 0.196(2) 1.0362(6) -0.0260(12)
C1K C 0.196(2) 0.9638(6) 0.0260(12)
C2C C 0.0000 1.0600(6) -0.0430(18)
C3C C 0.0000 1.1292(6) -0.1170(10)
loop_
_geom_bond_atom_site_label_1
_geom_bond_atom_site_label_2
_geom_bond_site_symmetry_1
_geom_bond_site_symmetry_2
V1 O1 1_555 1_555
O1 V1A 1_555 1_555
O2 V1 1_555 1_555
C1 C2 1_555 1_555
C2 C3 1_555 1_555
C3 O2 1_555 1_555
Co1 C4 1_555 1_555
C4 C5 1_555 1_555
C5 Co1 1_555 1_555
C6 Co1 1_555 1_555
V1A O2K 1_555 1_555
V1C O2C 1_555 1_555
V1B O2H 1_555 1_555
O1F V1 1_555 1_555
O2K C3 1_555 1_555
O2C C3C 1_555 1_555
O2H C3C 1_555 1_555
O2F V1 1_555 1_555
O2J V1 1_555 1_555
O2L V1 1_555 1_555
C1C C1 1_555 1_555
C1H C1K 1_555 1_555
C1K C2 1_555 1_555
C2C C1C 1_555 1_555
C3C C2C 1_555 1_555
Co1A C4 1_555 1_555
C4A Co1 1_555 1_555
C4F Co1 1_555 1_555
C4G Co1 1_555 1_555
C5J Co1 1_555 1_555
C5K C4 1_555 1_555
C5A Co1A 1_555 1_555
C5F Co1 1_555 1_555
C5L Co1 1_555 1_555
C6A Co1A 1_555 1_555
C6F Co1 1_555 1_555
C4 C4A 1_555 1_555
C5 C6 1_555 1_555
C6 C5J 1_555 1_555
C1H C2C 1_555 1_555
Co1A C4A 1_555 1_555
Co1A C5K 1_555 1_555
C4A C5J 1_555 1_555
C4A C5A 1_555 1_555
C4F C4G 1_555 1_555
C4F C5F 1_555 1_555
C4G C5L 1_555 1_555
C5K C6A 1_555 1_555
C5A C6A 1_555 1_555
C5F C6F 1_555 1_555
C5L C6F 1_555 1_555

#END
