
#######################################################################
#
#                 Cambridge Crystallographic Data Centre
#                                CCDC 
#
#######################################################################
#
# If this CIF has been generated from an entry in the Cambridge 
# Structural Database, then it will include bibliographic, chemical, 
# crystal, experimental, refinement or atomic coordinate data resulting 
# from the CCDC's data processing and validation procedures.
#
#######################################################################

data_PUWDEQ
_symmetry_cell_setting           triclinic
_symmetry_space_group_name_H-M   'P -1'
_symmetry_Int_Tables_number      2
_space_group_name_Hall           '-P 1'
loop_
_symmetry_equiv_pos_site_id
_symmetry_equiv_pos_as_xyz
1 x,y,z
2 -x,-y,-z
_cell_length_a                   9.9518(8)
_cell_length_b                   11.5761(9)
_cell_length_c                   15.5562(12)
_cell_angle_alpha                72.3770(10)
_cell_angle_beta                 83.1650(10)
_cell_angle_gamma                84.3260(10)
_cell_volume                     1692.13
loop_
_atom_site_label
_atom_site_type_symbol
_atom_site_fract_x
_atom_site_fract_y
_atom_site_fract_z
Zn1 Zn 0.4146(1) 0.0927(1) 0.8878(1)
O1 O 0.2867(3) 0.1906(3) 0.9439(2)
O2 O 0.0973(3) 0.1275(3) 0.9131(3)
O3 O 0.4210(3) -0.0814(3) 0.9025(2)
O4 O 0.4197(3) -0.1049(3) 1.0499(2)
O5 O 0.4782(4) 0.1935(3) 0.7675(3)
O6 O 0.2742(4) 0.1737(4) 0.7294(3)
C1 C 0.1571(5) 0.1976(5) 0.9384(3)
C2 C 0.0800(5) 0.3023(5) 0.9650(3)
C3 C 0.1447(5) 0.3919(5) 0.9793(3)
C4 C 0.0720(5) 0.4961(5) 0.9979(4)
C5 C 0.1370(5) 0.5915(5) 1.0123(4)
C6 C -0.0640(5) 0.3121(5) 0.9701(4)
C7 C 0.4307(5) -0.1464(5) 0.9842(4)
C8 C 0.4546(5) -0.2829(5) 1.0023(4)
C9 C 0.4805(5) -0.3334(5) 0.9333(5)
C10 C 0.5039(5) -0.4667(5) 0.9542(4)
C11 C 0.5299(6) -0.5170(6) 0.8844(5)
C12 C 0.4505(5) -0.3579(5) 1.0943(5)
C13 C 0.3852(6) 0.2215(5) 0.7143(4)
C14 C 0.4111(5) 0.3210(5) 0.6271(4)
C15 C 0.3245(6) 0.3448(5) 0.5576(4)
C16 C 0.3452(6) 0.4375(5) 0.4788(4)
C17 C 0.4557(5) 0.5119(5) 0.4658(4)
C18 C 0.5198(5) 0.3917(5) 0.6157(4)
H1 H 0.2409 0.3853 0.9768
H2 H 0.2332 0.5875 1.0096
H3 H -0.1100 0.2493 0.9610
H4 H 0.4836 -0.2835 0.8722
H5 H 0.5343 -0.4675 0.8232
H6 H 0.4339 -0.3211 1.1418
H7 H 0.2503 0.2958 0.5654
H8 H 0.2856 0.4519 0.4327
H9 H 0.5785 0.3759 0.6624
C4A C -0.0720(5) 0.5039(5) 1.0021(4)
C3A C -0.1447(5) 0.6081(5) 1.0207(3)
C2A C -0.0800(5) 0.6977(5) 1.0350(3)
C1A C -0.1571(5) 0.8024(5) 1.0616(3)
O1A O -0.2867(3) 0.8094(3) 1.0561(2)
O2A O -0.0973(3) 0.8725(3) 1.0869(3)
C6A C 0.0640(5) 0.6879(5) 1.0299(4)
H3A H 0.1100 0.7507 1.0390
H1A H -0.2409 0.6147 1.0232
C5A C -0.1370(5) 0.4085(5) 0.9877(4)
H2A H -0.2332 0.4125 0.9904
C10A C 0.4961(5) -0.5333(5) 1.0458(4)
C9A C 0.5195(5) -0.6666(5) 1.0667(5)
C8A C 0.5454(5) -0.7171(5) 0.9977(4)
C7A C 0.5693(5) -0.8536(5) 1.0158(4)
O3A O 0.5790(3) -0.9186(3) 1.0975(2)
O4A O 0.5803(3) -0.8951(3) 0.9501(2)
C12A C 0.5495(5) -0.6421(5) 0.9057(5)
H6A H 0.5661 -0.6789 0.8582
H4A H 0.5164 -0.7165 1.1278
C11A C 0.4701(6) -0.4830(6) 1.1156(5)
H5A H 0.4657 -0.5325 1.1768
C17A C 0.5443(5) 0.4881(5) 0.5342(4)
C16A C 0.6548(6) 0.5625(5) 0.5212(4)
C15A C 0.6755(6) 0.6552(5) 0.4424(4)
C14A C 0.5889(5) 0.6790(5) 0.3729(4)
C13A C 0.6148(6) 0.7785(5) 0.2857(4)
O5A O 0.5218(4) 0.8065(3) 0.2325(3)
O6A O 0.7258(4) 0.8263(4) 0.2706(3)
C18A C 0.4802(5) 0.6083(5) 0.3843(4)
H9A H 0.4215 0.6241 0.3376
H7A H 0.7497 0.7042 0.4346
H8A H 0.7144 0.5481 0.5673
Zn1A Zn -0.4146(1) 0.9073(1) 1.1122(1)
O4A_2 O 0.5803(3) 0.1049(3) 0.9501(2)
Zn1A_2 Zn 0.5854(1) -0.0927(1) 1.1122(1)
Zn1A_3 Zn 0.5854(1) -1.0927(1) 1.1122(1)
Zn1_2 Zn 0.4146(1) -0.9073(1) 0.8878(1)
Zn1A_4 Zn 0.5854(1) 0.9073(1) 0.1122(1)
O3A_2 O -0.4210(3) 1.0814(3) 1.0975(2)
O4_2 O -0.5803(3) 0.8951(3) 1.0499(2)
O5A_2 O -0.4782(4) 0.8065(3) 1.2325(3)
Cl1 Cl 0.5097(2) 1.2046(2) 0.3389(2)
C19 C 0.3980(7) 1.0909(8) 0.3974(5)
C20 C 0.4337(9) 0.9749(9) 0.3995(6)
C21 C 0.3425(11) 0.8891(9) 0.4467(7)
C22 C 0.2129(8) 0.9121(8) 0.4919(5)
C23 C 0.1874(8) 1.0382(8) 0.4815(5)
C24 C 0.2761(7) 1.1267(7) 0.4369(5)
H10 H 0.5172 0.9529 0.3702
H11 H 0.3685 0.8070 0.4494
H12 H 0.1527 0.8515 0.5242
H13 H 0.1026 1.0638 0.5072
H14 H 0.2536 1.2096 0.4336
O7 O -0.0347(4) 0.6673(4) 0.5282(3)
N2 N 0.0401(4) 0.5795(4) 0.6676(3)
C25 C 0.2529(6) 0.5245(6) 0.7441(5)
C26 C 0.1257(6) 0.4822(5) 0.7250(4)
C27 C -0.0394(6) 0.6649(5) 0.7088(4)
C28 C -0.1772(6) 0.6189(6) 0.7523(4)
C29 C 0.0341(6) 0.5881(6) 0.5809(4)
H16 H 0.3048 0.4554 0.7822
H17 H 0.2298 0.5862 0.7759
H18 H 0.3075 0.5595 0.6870
H19 H 0.1500 0.4181 0.6947
H20 H 0.0723 0.4455 0.7832
H21 H -0.0531 0.7437 0.6619
H22 H 0.0114 0.6784 0.7555
H23 H -0.2275 0.6787 0.7791
H24 H -0.1641 0.5416 0.7996
H25 H -0.2286 0.6068 0.7061
H26 H 0.0865 0.5292 0.5577
N1 N -0.0013(5) 0.0670(4) 0.7731(3)
C30 C 0.1527(6) -0.1228(6) 0.7970(5)
C31 C 0.0834(6) -0.0196(6) 0.7308(4)
C32 C -0.2166(6) -0.0452(6) 0.8081(5)
C33 C -0.1114(6) 0.0078(5) 0.8443(4)
C34 C -0.0529(6) 0.1743(5) 0.7007(4)
C35 C -0.1375(7) 0.2677(6) 0.7373(5)
H15 H 0.0490(50) 0.0920(50) 0.8030(40)
H27 H 0.2050 -0.1759 0.7649
H28 H 0.0847 -0.1691 0.8416
H29 H 0.2139 -0.0911 0.8281
H30 H 0.0247 -0.0527 0.6981
H31 H 0.1529 0.0258 0.6857
H32 H -0.2845 -0.0812 0.8576
H33 H -0.1728 -0.1081 0.7818
H34 H -0.2608 0.0190 0.7614
H35 H -0.0687 -0.0575 0.8923
H36 H -0.1571 0.0691 0.8725
H37 H -0.1083 0.1457 0.6633
H38 H 0.0253 0.2134 0.6609
H39 H -0.1687 0.3351 0.6868
H40 H -0.0827 0.2986 0.7728
H41 H -0.2161 0.2302 0.7760
loop_
_geom_bond_atom_site_label_1
_geom_bond_atom_site_label_2
_geom_bond_site_symmetry_1
_geom_bond_site_symmetry_2
Zn1 O1 1_555 1_555
Cl1 C19 1_555 1_555
O1 C1 1_555 1_555
O2 C1 1_555 1_555
O3 Zn1 1_555 1_555
O4 C7 1_555 1_555
O5 Zn1 1_555 1_555
O6 C13 1_555 1_555
O7 C29 1_555 1_555
C1 C2 1_555 1_555
C2 C3 1_555 1_555
C3 C4 1_555 1_555
C4 C5 1_555 1_555
C5 H2 1_555 1_555
C6 C2 1_555 1_555
C7 O3 1_555 1_555
C8 C7 1_555 1_555
C9 C8 1_555 1_555
C10 C9 1_555 1_555
C11 C10 1_555 1_555
C12 C8 1_555 1_555
C13 O5 1_555 1_555
C14 C13 1_555 1_555
C15 C14 1_555 1_555
C16 C15 1_555 1_555
C17 C16 1_555 1_555
C18 C14 1_555 1_555
C19 C20 1_555 1_555
C20 C21 1_555 1_555
C21 C22 1_555 1_555
C22 C23 1_555 1_555
C23 C24 1_555 1_555
C24 C19 1_555 1_555
N1 C31 1_555 1_555
N2 C26 1_555 1_555
C25 C26 1_555 1_555
C26 H19 1_555 1_555
C27 N2 1_555 1_555
C28 C27 1_555 1_555
C29 N2 1_555 1_555
C30 C31 1_555 1_555
C31 H30 1_555 1_555
C32 C33 1_555 1_555
C33 N1 1_555 1_555
C34 N1 1_555 1_555
C35 C34 1_555 1_555
H1 C3 1_555 1_555
H3 C6 1_555 1_555
H4 C9 1_555 1_555
H5 C11 1_555 1_555
H6 C12 1_555 1_555
H7 C15 1_555 1_555
H8 C16 1_555 1_555
H9 C18 1_555 1_555
H10 C20 1_555 1_555
H11 C21 1_555 1_555
H12 C22 1_555 1_555
H13 C23 1_555 1_555
H14 C24 1_555 1_555
H15 N1 1_555 1_555
H16 C25 1_555 1_555
H17 C25 1_555 1_555
H18 C25 1_555 1_555
H20 C26 1_555 1_555
H21 C27 1_555 1_555
H22 C27 1_555 1_555
H23 C28 1_555 1_555
H24 C28 1_555 1_555
H25 C28 1_555 1_555
H26 C29 1_555 1_555
H27 C30 1_555 1_555
H28 C30 1_555 1_555
H29 C30 1_555 1_555
H31 C31 1_555 1_555
H32 C32 1_555 1_555
H33 C32 1_555 1_555
H34 C32 1_555 1_555
H35 C33 1_555 1_555
H36 C33 1_555 1_555
H37 C34 1_555 1_555
H38 C34 1_555 1_555
H39 C35 1_555 1_555
H40 C35 1_555 1_555
H41 C35 1_555 1_555
C4A C4 1_555 1_555
C3A C4A 1_555 1_555
C2A C3A 1_555 1_555
C1A C2A 1_555 1_555
O1A C1A 1_555 1_555
O2A C1A 1_555 1_555
C6A C5 1_555 1_555
H3A C6A 1_555 1_555
H1A C3A 1_555 1_555
C5A C6 1_555 1_555
H2A C5A 1_555 1_555
C10A C10 1_555 1_555
C9A C10A 1_555 1_555
C8A C9A 1_555 1_555
C7A C8A 1_555 1_555
O3A C7A 1_555 1_555
O4A C7A 1_555 1_555
C12A C11 1_555 1_555
H6A C12A 1_555 1_555
H4A C9A 1_555 1_555
C11A C12 1_555 1_555
H5A C11A 1_555 1_555
C17A C17 1_555 1_555
C16A C17A 1_555 1_555
C15A C16A 1_555 1_555
C14A C15A 1_555 1_555
C13A C14A 1_555 1_555
O5A C13A 1_555 1_555
O6A C13A 1_555 1_555
C18A C17 1_555 1_555
H9A C18A 1_555 1_555
H7A C15A 1_555 1_555
H8A C16A 1_555 1_555
Zn1A O1A 1_555 1_555
O4A_2 Zn1 1_555 1_555
Zn1A_2 O4 1_555 1_555
Zn1A_3 O3A 1_555 1_555
Zn1_2 O4A 1_555 1_555
Zn1A_4 O5A 1_555 1_555
O3A_2 Zn1A 1_555 1_555
O4_2 Zn1A 1_555 1_555
O5A_2 Zn1A 1_555 1_555
C18 C17A 1_555 1_555
C4A C5A 1_555 1_555
C2A C6A 1_555 1_555
C10A C11A 1_555 1_555
C8A C12A 1_555 1_555
C14A C18A 1_555 1_555

#END
