
#######################################################################
#
#                 Cambridge Crystallographic Data Centre
#                                CCDC 
#
#######################################################################
#
# If this CIF has been generated from an entry in the Cambridge 
# Structural Database, then it will include bibliographic, chemical, 
# crystal, experimental, refinement or atomic coordinate data resulting 
# from the CCDC's data processing and validation procedures.
#
#######################################################################

data_QADKAH
_symmetry_cell_setting           monoclinic
_symmetry_space_group_name_H-M   'C 2/c'
_symmetry_Int_Tables_number      15
_space_group_name_Hall           '-C 2yn'
loop_
_symmetry_equiv_pos_site_id
_symmetry_equiv_pos_as_xyz
1 x,y,z
2 -x,y,1/2-z
3 1/2+x,1/2+y,z
4 1/2-x,1/2+y,1/2-z
5 -x,-y,-z
6 x,-y,1/2+z
7 1/2-x,1/2-y,-z
8 1/2+x,1/2-y,1/2+z
_cell_length_a                   14.2928(2)
_cell_length_b                   10.2440(2)
_cell_length_c                   18.9901(1)
_cell_angle_alpha                90
_cell_angle_beta                 96.658(1)
_cell_angle_gamma                90
_cell_volume                     2761.69
loop_
_atom_site_label
_atom_site_type_symbol
_atom_site_fract_x
_atom_site_fract_y
_atom_site_fract_z
V1 V 0.1554(1) 0.6147(1) 0.0894(1)
V2 V 0.2276(1) 0.5561(1) 0.2808(1)
P1 P -0.2149(1) 0.3749(1) 0.0749(1)
P2 P 0.1662(1) 0.3325(1) 0.1694(1)
O1 O -0.2036(1) 0.4254(2) 0.0006(1)
O2 O -0.3078(1) 0.3003(2) 0.0759(1)
O3 O 0.1555(1) 0.4027(2) 0.2388(1)
O4 O 0.1829(1) 0.4288(2) 0.1098(1)
O5 O -0.2111(1) 0.4936(2) 0.1232(1)
O6 O 0.2471(1) 0.2335(2) 0.1759(1)
O7 O 0.3324(2) 0.5091(2) 0.2720(1)
O8 O 0.0433(1) 0.6243(2) 0.0755(1)
O9 O 0.1909(2) 0.6513(2) 0.1905(1)
C1 C -0.1194(2) 0.2661(2) 0.1046(1)
C2 C 0.0579(2) 0.2465(2) 0.1433(1)
C3 C -0.0255(2) 0.3372(2) 0.1209(2)
O10 O 0.0700(2) 0.6375(2) 0.3023(1)
H1 H -0.1136(2) 0.2009(2) 0.0683(1)
H2 H -0.1339(2) 0.2211(2) 0.1470(1)
H3 H 0.0430(2) 0.1929(2) 0.1826(1)
H4 H 0.0668(2) 0.1888(2) 0.1041(1)
H5 H -0.0127(2) 0.3854(2) 0.0791(2)
H6 H -0.0309(2) 0.3999(2) 0.1585(2)
O5A O 0.2111(1) 0.4936(2) 0.3768(1)
O6C O 0.2529(1) 0.7335(2) 0.3241(1)
V2C V 0.2724(1) 0.0561(1) 0.2192(1)
O1D O 0.2036(1) 0.5746(2) -0.0006(1)
O2B O 0.1922(1) 0.8003(2) 0.0759(1)
V1D V -0.1554(1) 0.3853(1) -0.0894(1)
V1B V -0.3446(1) 0.1147(1) 0.0894(1)
V2A V -0.2276(1) 0.5561(1) 0.2192(1)
O11 O 0.3372(2) 0.2095(3) 0.0345(2)
O12 O 0.0009(2) 0.9037(3) 0.0492(2)
N1 N 0.4473(5) 0.5943(4) -0.3176(3)
loop_
_geom_bond_atom_site_label_1
_geom_bond_atom_site_label_2
_geom_bond_site_symmetry_1
_geom_bond_site_symmetry_2
V1 O4 1_555 1_555
V2 O3 1_555 1_555
P1 O1 1_555 1_555
P2 O3 1_555 1_555
O1 V1D 1_555 1_555
O2 P1 1_555 1_555
O4 P2 1_555 1_555
O5 P1 1_555 1_555
O6 P2 1_555 1_555
O7 V2 1_555 1_555
O8 V1 1_555 1_555
O9 V1 1_555 1_555
C1 P1 1_555 1_555
C2 P2 1_555 1_555
C3 C1 1_555 1_555
O10 V2 1_555 1_555
H1 C1 1_555 1_555
H2 C1 1_555 1_555
H3 C2 1_555 1_555
H4 C2 1_555 1_555
H5 C3 1_555 1_555
H6 C3 1_555 1_555
O5A V2 1_555 1_555
O6C V2 1_555 1_555
V2C O6 1_555 1_555
O1D V1 1_555 1_555
O2B V1 1_555 1_555
V1B O2 1_555 1_555
V2A O5 1_555 1_555
V2 O9 1_555 1_555
C2 C3 1_555 1_555

#END
