
#######################################################################
#
#                 Cambridge Crystallographic Data Centre
#                                CCDC 
#
#######################################################################
#
# If this CIF has been generated from an entry in the Cambridge 
# Structural Database, then it will include bibliographic, chemical, 
# crystal, experimental, refinement or atomic coordinate data resulting 
# from the CCDC's data processing and validation procedures.
#
#######################################################################

data_QAMVEH01
_symmetry_cell_setting           hexagonal
_symmetry_space_group_name_H-M   'P 61 2 2'
_symmetry_Int_Tables_number      178
_space_group_name_Hall           "P 61 2' (0,0,5)"
loop_
_symmetry_equiv_pos_site_id
_symmetry_equiv_pos_as_xyz
1 x,y,z
2 x-y,x,1/6+z
3 -y,x-y,1/3+z
4 -x,-y,1/2+z
5 -x+y,-x,2/3+z
6 y,-x+y,5/6+z
7 -y,-x,5/6-z
8 x-y,-y,-z
9 x,x-y,1/6-z
10 y,x,1/3-z
11 -x+y,y,1/2-z
12 -x,-x+y,2/3-z
_cell_length_a                   16.5126(7)
_cell_length_b                   16.5126(7)
_cell_length_c                   24.5098(14)
_cell_angle_alpha                90
_cell_angle_beta                 90
_cell_angle_gamma                120
_cell_volume                     5787.64
loop_
_atom_site_label
_atom_site_type_symbol
_atom_site_fract_x
_atom_site_fract_y
_atom_site_fract_z
Ce1 Ce 1.07702(5) 1.0000 1.0000
C1 C 0.9703(7) 0.8037(7) 0.9602(4)
C2 C 0.9036(7) 0.6986(8) 0.9540(4)
C3 C 0.9261(10) 0.6379(9) 0.9802(5)
H1 H 0.9777 0.6610 1.0032
C4 C 0.8697(10) 0.5413(10) 0.9715(6)
H2 H 0.8851 0.5008 0.9890
C5 C 0.7938(9) 0.5053(8) 0.9385(5)
C6 C 0.7714(8) 0.5684(8) 0.9133(5)
H3 H 0.7189 0.5447 0.8909
C7 C 0.8251(9) 0.6652(8) 0.9207(5)
H4 H 0.8089 0.7058 0.9040
C8 C 0.7409(8) 0.4038(8) 0.9276(5)
C9 C 0.6454(6) 0.3546(6) 0.9167
H5 H 0.6128 0.3872 0.9167
C10 C 0.7849(9) 0.3529(9) 0.9282(6)
H6 H 0.8482 0.3835 0.9369
C11 C 0.7414(6) 0.2586(6) 0.9167
C12 C 0.7940(7) 0.2060(7) 0.9167
C13 C 0.8617(12) 0.2235(11) 0.9559(7)
H7 H 0.8742 0.2676 0.9830
C14 C 0.9089(12) 0.1776(12) 0.9548(6)
H8 H 0.9555 0.1923 0.9806
C15 C 0.8911(6) 0.1089(6) 0.9167
C16 C 0.9439(6) 0.0561(6) 0.9167
O1 O 1.0315(7) 0.8314(5) 0.9964(4)
O2 O 0.9624(5) 0.8612(5) 0.9290(3)
O3 O 0.9988(8) 0.0708(7) 0.9548(3)
O4 O 1.2308(9) 1.0000 1.0000
Ce1_2 Ce 0.07702(5) 0.0000 1.0000
Ce1_3 Ce 1.07702(5) 0.0000 1.0000
Ce1E Ce 0.0000 -0.07702(5) 0.8333
Ce1E_2 Ce 1.0000 -0.07702(5) 0.8333
Ce1E_3 Ce 1.0000 0.92298(5) 0.8333
C1F C 0.1963(7) 0.0297(7) 0.8731(4)
C2F C 0.3014(8) 0.0964(7) 0.8793(4)
C3F C 0.3621(9) 0.0739(10) 0.8531(5)
H1F H 0.3390 0.0223 0.8301
C4F C 0.4587(10) 0.1303(10) 0.8618(6)
H2F H 0.4992 0.1149 0.8443
C5F C 0.4947(8) 0.2062(9) 0.8948(5)
C6F C 0.4316(8) 0.2286(8) 0.9200(5)
H3F H 0.4553 0.2811 0.9424
C7F C 0.3348(8) 0.1749(9) 0.9126(5)
H4F H 0.2942 0.1911 0.9293
C8F C 0.5962(8) 0.2591(8) 0.9057(5)
C10F C 0.6471(9) 0.2151(9) 0.9051(6)
H6F H 0.6165 0.1518 0.8964
C13F C 0.7765(11) 0.1383(12) 0.8774(7)
H7F H 0.7324 0.1258 0.8503
C14F C 0.8224(12) 0.0911(12) 0.8785(6)
H8F H 0.8077 0.0445 0.8527
O1F O 0.1686(5) -0.0315(7) 0.8369(4)
O1G O 1.2001(9) 1.1686(5) 1.0036(4)
O2F O 0.1388(5) 0.0376(5) 0.9043(3)
O2A O 1.1012(7) 0.9624(5) 1.0957(3)
O2F_2 O 1.1388(5) 1.0376(5) 0.9043(3)
O2G O 1.1012(7) 1.1388(5) 1.0710(3)
O3F O 0.9292(7) 0.0012(8) 0.8785(3)
O3_2 O 0.9988(8) 1.0708(7) 0.9548(3)
O3G O 0.9280(11) 0.9292(7) 1.0452(3)
loop_
_geom_bond_atom_site_label_1
_geom_bond_atom_site_label_2
_geom_bond_site_symmetry_1
_geom_bond_site_symmetry_2
Ce1 O1 1_555 1_555
C1 C2 1_555 1_555
C2 C3 1_555 1_555
C3 H1 1_555 1_555
C4 C3 1_555 1_555
H2 C4 1_555 1_555
C5 C4 1_555 1_555
C6 C5 1_555 1_555
H3 C6 1_555 1_555
C7 C2 1_555 1_555
H4 C7 1_555 1_555
C8 C5 1_555 1_555
C9 C8 1_555 1_555
H5 C9 1_555 1_555
C10 C8 1_555 1_555
H6 C10 1_555 1_555
C11 C10 1_555 1_555
C12 C11 1_555 1_555
C13 C12 1_555 1_555
H7 C13 1_555 1_555
C14 C13 1_555 1_555
H8 C14 1_555 1_555
C15 C14 1_555 1_555
C16 C15 1_555 1_555
O1 C1 1_555 1_555
O2 Ce1 1_555 1_555
O3 C16 1_555 1_555
O4 Ce1 1_555 1_555
Ce1_2 O2F 1_555 1_555
Ce1_3 O3 1_555 1_555
Ce1E O1F 1_555 1_555
Ce1E_2 O3F 1_555 1_555
Ce1E_3 O2 1_555 1_555
C1F C2F 1_555 1_555
C2F C3F 1_555 1_555
C3F H1F 1_555 1_555
C4F C3F 1_555 1_555
H2F C4F 1_555 1_555
C5F C4F 1_555 1_555
C6F C5F 1_555 1_555
H3F C6F 1_555 1_555
C7F C2F 1_555 1_555
H4F C7F 1_555 1_555
C8F C9 1_555 1_555
C10F C11 1_555 1_555
H6F C10F 1_555 1_555
C13F C12 1_555 1_555
H7F C13F 1_555 1_555
C14F C15 1_555 1_555
H8F C14F 1_555 1_555
O1F C1F 1_555 1_555
O1G Ce1 1_555 1_555
O2F Ce1E 1_555 1_555
O2A Ce1 1_555 1_555
O2F_2 Ce1 1_555 1_555
O2G Ce1 1_555 1_555
O3F C16 1_555 1_555
O3_2 Ce1 1_555 1_555
O3G Ce1 1_555 1_555
C1 O2 1_555 1_555
C6 C7 1_555 1_555
Ce1E_3 O2F_2 1_555 1_555
C1F O2F 1_555 1_555
C5F C8F 1_555 1_555
C6F C7F 1_555 1_555
C8F C10F 1_555 1_555
C13F C14F 1_555 1_555

#END
