
#######################################################################
#
#                 Cambridge Crystallographic Data Centre
#                                CCDC 
#
#######################################################################
#
# If this CIF has been generated from an entry in the Cambridge 
# Structural Database, then it will include bibliographic, chemical, 
# crystal, experimental, refinement or atomic coordinate data resulting 
# from the CCDC's data processing and validation procedures.
#
#######################################################################

data_QATDEU
_symmetry_cell_setting           monoclinic
_symmetry_space_group_name_H-M   'C 2/c'
_symmetry_Int_Tables_number      15
_space_group_name_Hall           '-C 2yn'
loop_
_symmetry_equiv_pos_site_id
_symmetry_equiv_pos_as_xyz
1 x,y,z
2 1/2+x,1/2+y,z
3 x,-y,1/2+z
4 1/2+x,1/2-y,1/2+z
5 -x,-y,-z
6 1/2-x,1/2-y,-z
7 -x,y,1/2-z
8 1/2-x,1/2+y,1/2-z
_cell_length_a                   15.7742(12)
_cell_length_b                   19.9751(15)
_cell_length_c                   16.2065(13)
_cell_angle_alpha                90
_cell_angle_beta                 106.398(2)
_cell_angle_gamma                90
_cell_volume                     4898.81
loop_
_atom_site_label
_atom_site_type_symbol
_atom_site_fract_x
_atom_site_fract_y
_atom_site_fract_z
N2 N -0.1790(6) 0.6337(4) 0.4433(6)
O4 O -0.1909(9) 0.5744(6) 0.4482(10)
O5 O -0.1218(9) 0.6510(5) 0.4216(12)
O6 O -0.2063(5) 0.6714(5) 0.4821(6)
C27 C -0.3108(8) 0.8546(6) 0.1608(13)
H17 H -0.3419 0.8959 0.1516
C28 C -0.2666(9) 0.8404(8) 0.2352(9)
H18 H -0.2606 0.8719 0.2804
C29 C -0.2284(7) 0.7814(8) 0.2508(7)
H19 H -0.1978 0.7708 0.3087
C30 C -0.2300(6) 0.7357(5) 0.1906(8)
H20 H -0.2023 0.6936 0.2067
C31 C -0.2692(8) 0.7480(6) 0.1100(8)
H21 H -0.2670 0.7168 0.0664
C32 C -0.3173(8) 0.8123(8) 0.0886(7)
H22 H -0.3497 0.8242 0.0316
Ni1 Ni 0.5000 0.95153(3) 0.7500
N1 N 0.5333(5) 0.9765(4) 0.5663(5)
O1 O 0.5720(8) 1.0302(5) 0.5732(6)
O2 O 0.5018(6) 0.9535(4) 0.4935(5)
O3 O 0.53115(19) 0.94653(15) 0.63271(18)
N3 N 0.3622(2) 0.95374(17) 0.6829(2)
N4 N 0.5000 1.0579(2) 0.7500
C1 C 0.4537(3) 1.0925(2) 0.6825(3)
H1 H 0.4204 1.0683 0.6336
C2 C 0.4509(3) 1.1616(2) 0.6792(3)
H2 H 0.4161 1.1838 0.6294
C3 C 0.5000 1.1985(3) 0.7500
C4 C 0.5000 1.2721(3) 0.7500
C5 C 0.4231(3) 1.3083(2) 0.7125(3)
H3 H 0.3699 1.2850 0.6860
C6 C 0.4230(3) 1.3777(2) 0.7132(3)
H4 H 0.3694 1.4010 0.6882
C7 C 0.5000 1.4137(3) 0.7500
C8 C 0.5000 1.4879(3) 0.7500
C9 C 0.4424(3) 1.5242(2) 0.6838(3)
H5 H 0.4024 1.5009 0.6379
C10 C 0.4424(3) 1.5936(2) 0.6839(3)
H6 H 0.4026 1.6172 0.6381
C11 C 0.5000 1.6292(3) 0.7500
N5 N 0.5000 0.8455(2) 0.7500
C12 C 0.4853(3) 0.8093(2) 0.6765(3)
H7 H 0.4750 0.8328 0.6236
C13 C 0.4845(3) 0.7402(2) 0.6742(3)
H8 H 0.4733 0.7176 0.6207
C14 C 0.5000 1.7036(3) 0.7500
C15 C 0.3033(3) 0.9750(3) 0.7225(3)
H9 H 0.3231 0.9828 0.7827
C16 C 0.2156(3) 0.9863(3) 0.6808(3)
H10 H 0.1768 1.0022 0.7119
C17 C 0.1840(3) 0.9743(2) 0.5933(3)
C18 C 0.2434(3) 0.9516(2) 0.5523(3)
H11 H 0.2246 0.9422 0.4924
C19 C 0.3309(3) 0.9422(2) 0.5985(3)
H12 H 0.3709 0.9268 0.5686
C20 C 0.0286(3) 0.9343(2) 0.5268(3)
C21 C 0.0623(3) 1.0540(2) 0.5195(3)
C22 C 0.1218(3) 1.1084(2) 0.5347(3)
H13 H 0.1825 1.1007 0.5630
C23 C 0.0940(3) 1.1715(3) 0.5097(3)
H14 H 0.1347 1.2076 0.5225
C24 C 0.0046(3) 1.1835(3) 0.4647(3)
H15 H -0.0144 1.2278 0.4474
C25 C 0.0539(3) 0.8676(2) 0.5539(3)
H16 H 0.1133 0.8588 0.5858
C26 C 0.0887(3) 0.9877(2) 0.5455(3)
O3F O 0.46885(19) 0.94653(15) 0.86729(18)
N3F N 0.6378(2) 0.95374(17) 0.8171(2)
O2D O 0.4982(6) 1.0465(4) 0.5065(5)
N1D N 0.4667(5) 1.0235(4) 0.4337(5)
O1D O 0.4280(8) 0.9698(5) 0.4268(6)
C1F C 0.5463(3) 1.0925(2) 0.8175(3)
C2F C 0.5491(3) 1.1616(2) 0.8208(3)
C5F C 0.5769(3) 1.3083(2) 0.7875(3)
C6F C 0.5770(3) 1.3777(2) 0.7868(3)
C9F C 0.5576(3) 1.5242(2) 0.8162(3)
C10F C 0.5576(3) 1.5936(2) 0.8161(3)
C12F C 0.5147(3) 0.8093(2) 0.8235(3)
C14_2 C 0.5000 0.7036(3) 0.7500
C13_2 C 0.4845(3) 1.7402(2) 0.6742(3)
C13F C 0.5155(3) 1.7402(2) 0.8258(3)
C21D C -0.0623(3) 0.9460(2) 0.4805(3)
C20D C -0.0286(3) 1.0657(2) 0.4732(3)
C25D C -0.0539(3) 1.1324(2) 0.4461(3)
C24D C -0.0046(3) 0.8165(3) 0.5353(3)
loop_
_geom_bond_atom_site_label_1
_geom_bond_atom_site_label_2
_geom_bond_site_symmetry_1
_geom_bond_site_symmetry_2
Ni1 O3 1_555 1_555
N1 O1 1_555 1_555
O1 O2D 1_555 1_555
O2 N1 1_555 1_555
O3 N1 1_555 1_555
N2 O4 1_555 1_555
O5 N2 1_555 1_555
O6 N2 1_555 1_555
N3 Ni1 1_555 1_555
N4 Ni1 1_555 1_555
C1 N4 1_555 1_555
H1 C1 1_555 1_555
C2 C1 1_555 1_555
H2 C2 1_555 1_555
C3 C2 1_555 1_555
C4 C3 1_555 1_555
C5 C4 1_555 1_555
H3 C5 1_555 1_555
C6 C5 1_555 1_555
H4 C6 1_555 1_555
C7 C6 1_555 1_555
C8 C7 1_555 1_555
C9 C8 1_555 1_555
H5 C9 1_555 1_555
C10 C9 1_555 1_555
H6 C10 1_555 1_555
C11 C10 1_555 1_555
N5 Ni1 1_555 1_555
C12 N5 1_555 1_555
H7 C12 1_555 1_555
C13 C12 1_555 1_555
H8 C13 1_555 1_555
C14 C11 1_555 1_555
C15 N3 1_555 1_555
H9 C15 1_555 1_555
C16 C15 1_555 1_555
H10 C16 1_555 1_555
C17 C16 1_555 1_555
C18 C17 1_555 1_555
H11 C18 1_555 1_555
C19 N3 1_555 1_555
H12 C19 1_555 1_555
C20 C25 1_555 1_555
C21 C22 1_555 1_555
C22 H13 1_555 1_555
C23 C22 1_555 1_555
H14 C23 1_555 1_555
C24 C23 1_555 1_555
H15 C24 1_555 1_555
C25 H16 1_555 1_555
C26 C17 1_555 1_555
C27 H17 1_555 1_555
C28 C27 1_555 1_555
H18 C28 1_555 1_555
C29 C28 1_555 1_555
H19 C29 1_555 1_555
C30 C29 1_555 1_555
H20 C30 1_555 1_555
C31 C30 1_555 1_555
H21 C31 1_555 1_555
C32 C27 1_555 1_555
H22 C32 1_555 1_555
O3F Ni1 1_555 1_555
N3F Ni1 1_555 1_555
O2D N1 1_555 1_555
N1D O2 1_555 1_555
O1D O2 1_555 1_555
C1F N4 1_555 1_555
C2F C3 1_555 1_555
C5F C4 1_555 1_555
C6F C7 1_555 1_555
C9F C8 1_555 1_555
C10F C11 1_555 1_555
C12F N5 1_555 1_555
C14_2 C13 1_555 1_555
C13_2 C14 1_555 1_555
C13F C14 1_555 1_555
C21D C20 1_555 1_555
C20D C21 1_555 1_555
C25D C24 1_555 1_555
C24D C25 1_555 1_555
C18 C19 1_555 1_555
C20 C26 1_555 1_555
C21 C26 1_555 1_555
C31 C32 1_555 1_555
O2D N1D 1_555 1_555
N1D O1D 1_555 1_555
C1F C2F 1_555 1_555
C5F C6F 1_555 1_555
C9F C10F 1_555 1_555
C20D C25D 1_555 1_555

#END
