
#######################################################################
#
#                 Cambridge Crystallographic Data Centre
#                                CCDC 
#
#######################################################################
#
# If this CIF has been generated from an entry in the Cambridge 
# Structural Database, then it will include bibliographic, chemical, 
# crystal, experimental, refinement or atomic coordinate data resulting 
# from the CCDC's data processing and validation procedures.
#
#######################################################################

data_QATRAG
_symmetry_cell_setting           monoclinic
_symmetry_space_group_name_H-M   'P 21/c'
_symmetry_Int_Tables_number      14
_space_group_name_Hall           '-P 2ybc'
loop_
_symmetry_equiv_pos_site_id
_symmetry_equiv_pos_as_xyz
1 x,y,z
2 -x,1/2+y,1/2-z
3 -x,-y,-z
4 x,1/2-y,1/2+z
_cell_length_a                   6.0997(11)
_cell_length_b                   7.6528(13)
_cell_length_c                   22.533(4)
_cell_angle_alpha                90
_cell_angle_beta                 91.606(9)
_cell_angle_gamma                90
_cell_volume                     1051.42
loop_
_atom_site_label
_atom_site_type_symbol
_atom_site_fract_x
_atom_site_fract_y
_atom_site_fract_z
Ce1 Ce 0.45488(2) 0.498290(16) 0.146094(6)
O1 O 0.1538(3) 0.7107(3) 0.16664(9)
O2 O -0.1456(3) 0.5527(3) 0.15468(9)
O3 O -0.3999(3) 0.8140(2) 0.14171(8)
H1 H -0.440(5) 0.875(4) 0.1163(11)
O4 O -0.2203(3) 0.8597(2) 0.26530(7)
H2 H -0.302(4) 0.772(3) 0.2581(13)
O5 O -0.3504(3) 1.2132(2) 0.17026(8)
O6 O -0.5111(3) 1.1020(2) 0.25078(8)
O7 O 0.3385(3) 0.6306(3) 0.04632(8)
O8 O 0.3767(3) 0.6319(3) -0.05176(8)
O9 O 0.1496(3) 0.2934(3) 0.11110(10)
H3 H 0.040(4) 0.322(5) 0.1291(12)
H4 H 0.109(5) 0.271(5) 0.0777(7)
C1 C -0.0468(4) 0.6943(3) 0.15989(11)
C2 C -0.1823(4) 0.8607(3) 0.15670(10)
H13 H -0.1259 0.9356 0.1253
C3 C -0.1837(4) 0.9645(3) 0.21448(11)
H14 H -0.0410 1.0220 0.2199
C4 C -0.3611(4) 1.1059(3) 0.21129(10)
C5 C 0.4179(5) 0.5758(4) -0.00133(11)
Ce1_2 Ce 1.45488(2) 0.498290(16) 0.146094(6)
Ce1_3 Ce -0.54512(2) 0.498290(16) 0.146094(6)
Ce1A Ce -0.45488(2) 0.998290(16) 0.353906(6)
Ce1_4 Ce -0.54512(2) 1.498290(16) 0.146094(6)
Ce1B Ce 0.54512(2) 0.501710(16) -0.146094(6)
Ce1A_2 Ce 0.54512(2) 0.998290(16) 0.353906(6)
Ce1_5 Ce 0.45488(2) 1.498290(16) 0.146094(6)
O1_2 O 1.1538(3) 0.7107(3) 0.16664(9)
O2_2 O 0.8544(3) 0.5527(3) 0.15468(9)
O2_3 O 1.8544(3) 0.5527(3) 0.15468(9)
O3_2 O 0.6001(3) 0.8140(2) 0.14171(8)
O3_3 O 1.6001(3) 0.8140(2) 0.14171(8)
H1_2 H 0.560(5) 0.875(4) 0.1163(11)
H1_3 H 1.560(5) 0.875(4) 0.1163(11)
O4_2 O 0.7797(3) 0.8597(2) 0.26530(7)
O4A O 0.2203(3) 0.3597(2) 0.23470(7)
O4A_2 O 1.2203(3) 0.3597(2) 0.23470(7)
H2_2 H 0.698(4) 0.772(3) 0.2581(13)
H2A H 0.302(4) 0.272(3) 0.2419(13)
H2A_2 H 1.302(4) 0.272(3) 0.2419(13)
O5_2 O 0.6496(3) 1.2132(2) 0.17026(8)
O5_3 O 0.6496(3) 0.2132(2) 0.17026(8)
O5_4 O 1.6496(3) 0.2132(2) 0.17026(8)
O6_2 O 0.4889(3) 1.1020(2) 0.25078(8)
O6A O 0.5111(3) 0.6020(2) 0.24922(8)
O6A_2 O 1.5111(3) 0.6020(2) 0.24922(8)
O7B O 0.6615(3) 0.3694(3) -0.04632(8)
O7_2 O 1.3385(3) 0.6306(3) 0.04632(8)
O8B O 0.6233(3) 0.3681(3) 0.05176(8)
O8B_2 O 1.6233(3) 0.3681(3) 0.05176(8)
O9_2 O 1.1496(3) 0.2934(3) 0.11110(10)
H3_2 H 1.040(4) 0.322(5) 0.1291(12)
H4_2 H 1.109(5) 0.271(5) 0.0777(7)
C1_2 C 0.9532(4) 0.6943(3) 0.15989(11)
C2_2 C 0.8177(4) 0.8607(3) 0.15670(10)
H13_2 H 0.8741 0.9356 0.1253
C3_2 C 0.8163(4) 0.9645(3) 0.21448(11)
H14_2 H 0.9590 1.0220 0.2199
C4_2 C 0.6389(4) 1.1059(3) 0.21129(10)
C5B C 0.5821(5) 0.4242(4) 0.00133(11)
O10 O -0.0908(8) -0.2513(9) 0.0105(2)
H5 H -0.058(12) -0.147(3) 0.008(5)
H6 H 0.020(7) -0.298(8) 0.025(3)
O12 O 0.442(2) 1.0284(12) 0.0659(5)
H9 H 0.42(3) 1.003(18) 0.0311(18)
H10 H 0.323(14) 1.01(2) 0.081(6)
O11? O 0.0053(19) -0.137(2) -0.0060(7)
H7? H 0.09(2) -0.210(15) 0.008(8)
H8? H 0.07(2) -0.044(10) -0.003(10)
O13? O 0.6289(11) 1.0112(5) 0.0451(2)
H11? H 0.630(10) 1.118(3) 0.047(3)
H12? H 0.728(9) 0.984(7) 0.023(3)
loop_
_geom_bond_atom_site_label_1
_geom_bond_atom_site_label_2
_geom_bond_site_symmetry_1
_geom_bond_site_symmetry_2
Ce1 O1 1_555 1_555
O1 C1 1_555 1_555
O2 C1 1_555 1_555
O3 H1 1_555 1_555
O4 H2 1_555 1_555
O5 C4 1_555 1_555
O6 C4 1_555 1_555
O7 Ce1 1_555 1_555
O8 C5 1_555 1_555
O9 Ce1 1_555 1_555
H3 O9 1_555 1_555
H4 O9 1_555 1_555
O10 H5 1_555 1_555
H6 O10 1_555 1_555
O12 H9 1_555 1_555
H10 O12 1_555 1_555
C1 C2 1_555 1_555
C2 O3 1_555 1_555
H13 C2 1_555 1_555
C3 O4 1_555 1_555
H14 C3 1_555 1_555
C4 C3 1_555 1_555
C5 O7 1_555 1_555
Ce1_2 O1_2 1_555 1_555
Ce1_3 O2 1_555 1_555
Ce1A O4 1_555 1_555
Ce1_4 O5 1_555 1_555
Ce1B O8 1_555 1_555
Ce1A_2 O4_2 1_555 1_555
Ce1_5 O5_2 1_555 1_555
O1_2 C1_2 1_555 1_555
O2_2 Ce1 1_555 1_555
O2_3 Ce1_2 1_555 1_555
O3_2 Ce1 1_555 1_555
O3_3 Ce1_2 1_555 1_555
H1_2 O3_2 1_555 1_555
H1_3 O3_3 1_555 1_555
O4_2 H2_2 1_555 1_555
O4A Ce1 1_555 1_555
O4A_2 Ce1_2 1_555 1_555
H2A O4A 1_555 1_555
H2A_2 O4A_2 1_555 1_555
O5_2 C4_2 1_555 1_555
O5_3 Ce1 1_555 1_555
O5_4 Ce1_2 1_555 1_555
O6_2 Ce1A_2 1_555 1_555
O6A Ce1 1_555 1_555
O6A_2 Ce1_2 1_555 1_555
O7B Ce1B 1_555 1_555
O7_2 Ce1_2 1_555 1_555
O8B Ce1 1_555 1_555
O8B_2 Ce1_2 1_555 1_555
O9_2 Ce1_2 1_555 1_555
H3_2 O9_2 1_555 1_555
H4_2 O9_2 1_555 1_555
C1_2 O2_2 1_555 1_555
C2_2 O3_2 1_555 1_555
H13_2 C2_2 1_555 1_555
C3_2 O4_2 1_555 1_555
H14_2 C3_2 1_555 1_555
C4_2 O6_2 1_555 1_555
C5B C5 1_555 1_555
O3 Ce1_3 1_555 1_555
O6 Ce1A 1_555 1_555
C2 C3 1_555 1_555
O7B C5B 1_555 1_555
O8B C5B 1_555 1_555
C1_2 C2_2 1_555 1_555
C2_2 C3_2 1_555 1_555
C3_2 C4_2 1_555 1_555

#END
