
#######################################################################
#
#                 Cambridge Crystallographic Data Centre
#                                CCDC 
#
#######################################################################
#
# If this CIF has been generated from an entry in the Cambridge 
# Structural Database, then it will include bibliographic, chemical, 
# crystal, experimental, refinement or atomic coordinate data resulting 
# from the CCDC's data processing and validation procedures.
#
#######################################################################

data_QAWPIO
_symmetry_cell_setting           tetragonal
_symmetry_space_group_name_H-M   'P -4 n 2'
_symmetry_Int_Tables_number      118
_space_group_name_Hall           'P -4 -2n'
loop_
_symmetry_equiv_pos_site_id
_symmetry_equiv_pos_as_xyz
1 x,y,z
2 -x,-y,z
3 y,-x,-z
4 -y,x,-z
5 1/2+x,1/2-y,1/2+z
6 1/2-x,1/2+y,1/2+z
7 1/2+y,1/2+x,1/2-z
8 1/2-y,1/2-x,1/2-z
_cell_length_a                   17.074(2)
_cell_length_b                   17.074(2)
_cell_length_c                   14.606(3)
_cell_angle_alpha                90
_cell_angle_beta                 90
_cell_angle_gamma                90
_cell_volume                     4257.96
loop_
_atom_site_label
_atom_site_type_symbol
_atom_site_fract_x
_atom_site_fract_y
_atom_site_fract_z
N1 N 0.6611(4) 0.2223(4) 0.1606(5)
N2 N 0.3489(4) 0.2141(4) -0.1598(4)
C1 C 0.3359(6) 0.1958(5) -0.0734(7)
H1 H 0.2849 0.1849 -0.0552
C2 C 0.3958(7) 0.1923(5) -0.0077(6)
H2 H 0.3840 0.1808 0.0530
C3 C 0.4706(5) 0.2056(5) -0.0331(6)
C4 C 0.4847(6) 0.2249(5) -0.1249(7)
H3 H 0.5353 0.2359 -0.1445
C5 C 0.4232(6) 0.2275(5) -0.1861(7)
H4 H 0.4334 0.2387 -0.2472
C6 C 0.5870(5) 0.2370(6) 0.1833(6)
H5 H 0.5771 0.2527 0.2431
C7 C 0.5246(5) 0.2309(6) 0.1258(7)
H6 H 0.4743 0.2407 0.1474
C8 C 0.5360(5) 0.2099(5) 0.0343(7)
C9 C 0.6117(5) 0.1875(6) 0.0118(6)
H7 H 0.6222 0.1676 -0.0461
C10 C 0.6712(5) 0.1946(5) 0.0740(6)
H8 H 0.7213 0.1796 0.0562
O1 O 0.8295(3) 0.1823(3) 0.1817(3)
O2 O 0.9910(3) 0.1298(3) 0.1819(4)
O3 O 0.9411(3) 0.1857(3) 0.0385(4)
O4 O 0.8711(3) 0.0199(3) 0.1816(4)
O5 O 0.8203(3) 0.0731(3) 0.0367(4)
O6 O 1.1329(3) 0.1202(3) 0.1227(3)
O7 O 1.0690(4) 0.2711(4) 0.1254(5)
O8 O 0.7240(3) -0.0429(4) 0.1224(4)
O9 O 1.1134(4) 0.1045(4) 0.3173(3)
O10 O 1.0000 0.0000 0.2832(4)
V1 V 0.88776(7) 0.12203(7) 0.12782(7)
V2 V 1.04842(7) 0.18458(7) 0.08916(10)
V3 V 0.81163(7) -0.03217(7) 0.08669(10)
V4 V 1.07144(9) 0.06536(9) 0.23017(8)
Ni1 Ni 0.75467(5) 0.25467(5) 0.2500
N1F N 0.7223(4) 0.1611(4) 0.3394(5)
N1B N 0.2223(4) 0.3389(4) -0.1606(5)
N1D N 0.1611(4) 0.2777(4) -0.3394(5)
N1C N 0.7777(4) 0.6611(4) -0.1606(5)
N2C N 0.7859(4) 0.3489(4) 0.1598(4)
N2D N 0.8489(4) 0.2859(4) 0.3402(4)
N2G N 0.2859(4) 0.1511(4) -0.3402(4)
N2F N 0.7141(4) -0.1511(4) 0.6598(4)
N2B N 0.2141(4) 0.6511(4) 0.1598(4)
C1F C 0.6958(5) -0.1641(6) 0.5734(7)
C1C C 0.8042(5) 0.3359(6) 0.0734(7)
C1B C 0.1958(5) 0.6641(6) 0.0734(7)
H1F H 0.6849 -0.2151 0.5552
H1C H 0.8151 0.2849 0.0552
H1B H 0.1849 0.7151 0.0552
C2F C 0.6923(5) -0.1042(7) 0.5077(6)
C2C C 0.8077(5) 0.3958(7) 0.0077(6)
C2B C 0.1923(5) 0.6042(7) 0.0077(6)
H2F H 0.6808 -0.1160 0.4470
H2C H 0.8192 0.3840 -0.0530
H2B H 0.1808 0.6160 -0.0530
C3F C 0.7056(5) -0.0294(5) 0.5331(6)
C3C C 0.7944(5) 0.4706(5) 0.0331(6)
C3B C 0.2056(5) 0.5294(5) 0.0331(6)
C4F C 0.7249(5) -0.0153(6) 0.6249(7)
C4C C 0.7751(5) 0.4847(6) 0.1249(7)
C4B C 0.2249(5) 0.5153(6) 0.1249(7)
H3F H 0.7359 0.0353 0.6445
H3C H 0.7641 0.5353 0.1445
H3B H 0.2359 0.4647 0.1445
C5F C 0.7275(5) -0.0768(6) 0.6861(7)
C5C C 0.7725(5) 0.4232(6) 0.1861(7)
C5B C 0.2275(5) 0.5768(6) 0.1861(7)
H4F H 0.7387 -0.0666 0.7472
H4C H 0.7613 0.4334 0.2472
H4B H 0.2387 0.5666 0.2472
C6F C 0.7370(6) 0.0870(5) 0.3167(6)
C6B C 0.2370(6) 0.4130(5) -0.1833(6)
C6C C 0.7630(6) 0.5870(5) -0.1833(6)
H5F H 0.7527 0.0771 0.2569
H5B H 0.2527 0.4229 -0.2431
H5C H 0.7473 0.5771 -0.2431
C7F C 0.7309(6) 0.0246(5) 0.3742(7)
C7B C 0.2309(6) 0.4754(5) -0.1258(7)
C7C C 0.7691(6) 0.5246(5) -0.1258(7)
H6F H 0.7407 -0.0257 0.3526
H6B H 0.2407 0.5257 -0.1474
H6C H 0.7593 0.4743 -0.1474
C8F C 0.7099(5) 0.0360(5) 0.4657(7)
C8B C 0.2099(5) 0.4640(5) -0.0343(7)
C8C C 0.7901(5) 0.5360(5) -0.0343(7)
C9F C 0.6875(6) 0.1117(5) 0.4882(6)
C9B C 0.1875(6) 0.3883(5) -0.0118(6)
C9C C 0.8125(6) 0.6117(5) -0.0118(6)
H7F H 0.6676 0.1222 0.5461
H7B H 0.1676 0.3778 0.0461
H7C H 0.8324 0.6222 0.0461
C10F C 0.6946(5) 0.1712(5) 0.4260(6)
C10B C 0.1946(5) 0.3288(5) -0.0740(6)
C10C C 0.8054(5) 0.6712(5) -0.0740(6)
H8F H 0.6796 0.2213 0.4438
H8B H 0.1796 0.2787 -0.0562
H8C H 0.8204 0.7213 -0.0562
O1F O 0.6823(3) 0.3295(3) 0.3183(3)
O1B O 0.1823(3) 0.1705(3) -0.1817(3)
O1D O 0.3295(3) 0.3177(3) -0.3183(3)
O1C O 0.8177(3) -0.1705(3) -0.1817(3)
O1B_2 O 1.1823(3) 0.1705(3) -0.1817(3)
O1A O 1.1705(3) -0.1823(3) 0.1817(3)
O2C O 0.8702(3) -0.0090(3) -0.1819(4)
O2A O 1.0090(3) -0.1298(3) 0.1819(4)
O2B O 1.1298(3) 0.0090(3) -0.1819(4)
O3C O 0.8143(3) -0.0589(3) -0.0385(4)
O3B O 1.1857(3) 0.0589(3) -0.0385(4)
O3A O 1.0589(3) -0.1857(3) 0.0385(4)
O4A O 1.1289(3) -0.0199(3) 0.1816(4)
O4B O 1.0199(3) 0.1289(3) -0.1816(4)
O4C O 0.9801(3) -0.1289(3) -0.1816(4)
O5B O 1.0731(3) 0.1797(3) -0.0367(4)
O5C O 0.9269(3) -0.1797(3) -0.0367(4)
O5A O 1.1797(3) -0.0731(3) 0.0367(4)
O6A O 0.8671(3) -0.1202(3) 0.1227(3)
O6C O 0.8798(3) 0.1329(3) -0.1227(3)
O6B O 1.1202(3) -0.1329(3) -0.1227(3)
O7C O 0.7289(4) 0.0690(4) -0.1254(5)
O7A O 0.9310(4) -0.2711(4) 0.1254(5)
O7B O 1.2711(4) -0.0690(4) -0.1254(5)
O8B O 0.9571(4) 0.2760(3) -0.1224(4)
O8A O 1.2760(3) 0.0429(4) 0.1224(4)
O8C O 1.0429(4) -0.2760(3) -0.1224(4)
O9A O 0.8866(4) -0.1045(4) 0.3173(3)
O9C O 0.8955(4) 0.1134(4) -0.3173(3)
O9B O 1.1045(4) -0.1134(4) -0.3173(3)
O10B O 1.0000 0.0000 -0.2832(4)
V1C V 0.87797(7) -0.11224(7) -0.12782(7)
V1B V 1.12203(7) 0.11224(7) -0.12782(7)
V1A V 1.11224(7) -0.12203(7) 0.12782(7)
V2C V 0.81542(7) 0.04842(7) -0.08916(10)
V2A V 0.95158(7) -0.18458(7) 0.08916(10)
V2B V 1.18458(7) -0.04842(7) -0.08916(10)
V3B V 0.96783(7) 0.18837(7) -0.08669(10)
V3A V 1.18837(7) 0.03217(7) 0.08669(10)
V3C V 1.03217(7) -0.18837(7) -0.08669(10)
V4A V 0.92856(9) -0.06536(9) 0.23017(8)
V4C V 0.93464(9) 0.07144(9) -0.23017(8)
V4B V 1.06536(9) -0.07144(9) -0.23017(8)
Ni1B Ni 0.25467(5) 0.24533(5) -0.2500
Ni1C Ni 0.74533(5) -0.24533(5) -0.2500
Ni1B_2 Ni 1.25467(5) 0.24533(5) -0.2500
Ni1C_2 Ni 0.74533(5) -0.24533(5) 0.7500
Ni1A Ni 1.24533(5) -0.25467(5) 0.2500
Ni1C_3 Ni 0.74533(5) 0.75467(5) -0.2500
Ni1A_2 Ni 0.24533(5) 0.74533(5) 0.2500
N3 N 0.0000 0.5000 0.0070(16)
C11 C 0.0000 0.5000 0.1926(14)
C12 C -0.0006(11) 0.4326(10) 0.1470(14)
C13 C 0.0002(12) 0.4317(11) 0.0486(15)
N3F N 0.0000 0.5000 0.4930(16)
C11F C 0.0000 0.5000 0.3074(14)
C12A C 0.0006(11) 0.5674(10) 0.1470(14)
C12F C -0.0674(10) 0.4994(11) 0.3530(14)
C12G C 0.0674(10) 0.5006(11) 0.3530(14)
C13A C -0.0002(12) 0.5683(11) 0.0486(15)
C13F C -0.0683(11) 0.5002(12) 0.4514(15)
C13G C 0.0683(11) 0.4998(12) 0.4514(15)
O14 O 0.6753(17) 0.8247(17) 0.2500
Cl1 Cl 0.0000 0.0000 0.0000
N4? N 0.0000 0.5000 -0.1547(16)
N5? N 0.0000 0.5000 0.151(3)
C14? C 0.0434(14) 0.5512(14) -0.1992(15)
C15? C 0.0000 0.5000 -0.1547(16)
C16? C 0.0000 0.5000 -0.0434(18)
C17? C -0.0056(18) 0.4282(13) 0.007(2)
C18? C -0.0047(14) 0.4322(13) 0.1052(19)
O11? O 1.0000 0.0000 0.473(3)
O12? O 0.946(2) 0.073(2) 0.483(2)
O13? O 0.748(3) 0.731(3) 0.193(2)
loop_
_geom_bond_atom_site_label_1
_geom_bond_atom_site_label_2
_geom_bond_site_symmetry_1
_geom_bond_site_symmetry_2
N1 C6 1_555 1_555
N2 C1 1_555 1_555
N3 C13 1_555 1_555
C1 H1 1_555 1_555
C2 C1 1_555 1_555
H2 C2 1_555 1_555
C3 C2 1_555 1_555
C4 C3 1_555 1_555
H3 C4 1_555 1_555
C5 N2 1_555 1_555
H4 C5 1_555 1_555
C6 H5 1_555 1_555
C7 C6 1_555 1_555
H6 C7 1_555 1_555
C8 C3 1_555 1_555
C9 C8 1_555 1_555
H7 C9 1_555 1_555
C10 N1 1_555 1_555
H8 C10 1_555 1_555
C11 C12 1_555 1_555
C12 C13 1_555 1_555
O1 V1 1_555 1_555
O2 V1 1_555 1_555
O3 V1 1_555 1_555
O4 V1 1_555 1_555
O5 V1 1_555 1_555
O6 V2 1_555 1_555
O7 V2 1_555 1_555
O8 V3 1_555 1_555
O9 V4 1_555 1_555
O10 V4 1_555 1_555
V2 O2 1_555 1_555
V3 O4 1_555 1_555
V4 O2 1_555 1_555
Ni1 N1 1_555 1_555
N1F Ni1 1_555 1_555
N1B C6B 1_555 1_555
N1D Ni1B 1_555 1_555
N1C C6C 1_555 1_555
N2C Ni1 1_555 1_555
N2D Ni1 1_555 1_555
N2G Ni1B 1_555 1_555
N2F C1F 1_555 1_555
N2B C1B 1_555 1_555
N3F C13F 1_555 1_555
C1F H1F 1_555 1_555
C1C N2C 1_555 1_555
C1B H1B 1_555 1_555
H1C C1C 1_555 1_555
C2F C1F 1_555 1_555
C2C C1C 1_555 1_555
C2B C1B 1_555 1_555
H2F C2F 1_555 1_555
H2C C2C 1_555 1_555
H2B C2B 1_555 1_555
C3F C2F 1_555 1_555
C3C C2C 1_555 1_555
C3B C2B 1_555 1_555
C4F C3F 1_555 1_555
C4C C3C 1_555 1_555
C4B C3B 1_555 1_555
H3F C4F 1_555 1_555
H3C C4C 1_555 1_555
H3B C4B 1_555 1_555
C5F N2F 1_555 1_555
C5C N2C 1_555 1_555
C5B N2B 1_555 1_555
H4F C5F 1_555 1_555
H4C C5C 1_555 1_555
H4B C5B 1_555 1_555
C6F N1F 1_555 1_555
C6B H5B 1_555 1_555
C6C H5C 1_555 1_555
H5F C6F 1_555 1_555
C7F C6F 1_555 1_555
C7B C6B 1_555 1_555
C7C C6C 1_555 1_555
H6F C7F 1_555 1_555
H6B C7B 1_555 1_555
H6C C7C 1_555 1_555
C8F C3F 1_555 1_555
C8B C3B 1_555 1_555
C8C C3C 1_555 1_555
C9F C8F 1_555 1_555
C9B C8B 1_555 1_555
C9C C8C 1_555 1_555
H7F C9F 1_555 1_555
H7B C9B 1_555 1_555
H7C C9C 1_555 1_555
C10F N1F 1_555 1_555
C10B N1B 1_555 1_555
C10C N1C 1_555 1_555
H8F C10F 1_555 1_555
H8B C10B 1_555 1_555
H8C C10C 1_555 1_555
C11F C11 1_555 1_555
C12A C11 1_555 1_555
C12F C11F 1_555 1_555
C12G C11F 1_555 1_555
C13A N3 1_555 1_555
C13F C12F 1_555 1_555
C13G N3F 1_555 1_555
O1F Ni1 1_555 1_555
O1B Ni1B 1_555 1_555
O1D Ni1B 1_555 1_555
O1C V1C 1_555 1_555
O1B_2 V1B 1_555 1_555
O1A V1A 1_555 1_555
O2C V1C 1_555 1_555
O2A V1A 1_555 1_555
O2B V1B 1_555 1_555
O3C V3 1_555 1_555
O3B V1B 1_555 1_555
O3A V1A 1_555 1_555
O4A V4 1_555 1_555
O4B V1B 1_555 1_555
O4C V1C 1_555 1_555
O5B V2 1_555 1_555
O5C V1C 1_555 1_555
O5A V1A 1_555 1_555
O6A V3 1_555 1_555
O6C V2C 1_555 1_555
O6B V2B 1_555 1_555
O7C V2C 1_555 1_555
O7A V2A 1_555 1_555
O7B V2B 1_555 1_555
O8B V3B 1_555 1_555
O8A V3A 1_555 1_555
O8C V3C 1_555 1_555
O9A V4A 1_555 1_555
O9C V4C 1_555 1_555
O9B V4B 1_555 1_555
O10B V4C 1_555 1_555
V1C O3C 1_555 1_555
V1B O5B 1_555 1_555
V1A O4A 1_555 1_555
V2C O5 1_555 1_555
V2A O2A 1_555 1_555
V2B O2B 1_555 1_555
V3B O3 1_555 1_555
V3A O6 1_555 1_555
V3C O3A 1_555 1_555
V4A O4 1_555 1_555
V4C O2C 1_555 1_555
V4B O2B 1_555 1_555
Ni1B N2 1_555 1_555
Ni1C O1C 1_555 1_555
Ni1B_2 O1B_2 1_555 1_555
Ni1C_2 N2F 1_555 1_555
Ni1A O1A 1_555 1_555
Ni1C_3 N1C 1_555 1_555
Ni1A_2 N2B 1_555 1_555
C4 C5 1_555 1_555
C7 C8 1_555 1_555
C9 C10 1_555 1_555
O1 Ni1 1_555 1_555
O3 V2 1_555 1_555
O5 V3 1_555 1_555
O6 V4 1_555 1_555
O10 V4A 1_555 1_555
N1B Ni1B 1_555 1_555
C4F C5F 1_555 1_555
C4C C5C 1_555 1_555
C4B C5B 1_555 1_555
C7F C8F 1_555 1_555
C7B C8B 1_555 1_555
C7C C8C 1_555 1_555
C9F C10F 1_555 1_555
C9B C10B 1_555 1_555
C9C C10C 1_555 1_555
C12A C13A 1_555 1_555
C12G C13G 1_555 1_555
O2C V2C 1_555 1_555
O2A V4A 1_555 1_555
O3C V2C 1_555 1_555
O3B V2B 1_555 1_555
O3B V3A 1_555 1_555
O3A V2A 1_555 1_555
O4A V3A 1_555 1_555
O4B V3B 1_555 1_555
O4B V4C 1_555 1_555
O4C V3C 1_555 1_555
O4C V4B 1_555 1_555
O5B V3B 1_555 1_555
O5C V2A 1_555 1_555
O5C V3C 1_555 1_555
O5A V2B 1_555 1_555
O5A V3A 1_555 1_555
O6A V2A 1_555 1_555
O6A V4A 1_555 1_555
O6C V3B 1_555 1_555
O6C V4C 1_555 1_555
O6B V3C 1_555 1_555
O6B V4B 1_555 1_555
O10B V4B 1_555 1_555

#END
