
#######################################################################
#
#                 Cambridge Crystallographic Data Centre
#                                CCDC 
#
#######################################################################
#
# If this CIF has been generated from an entry in the Cambridge 
# Structural Database, then it will include bibliographic, chemical, 
# crystal, experimental, refinement or atomic coordinate data resulting 
# from the CCDC's data processing and validation procedures.
#
#######################################################################

data_QEBGAH
_symmetry_cell_setting           monoclinic
_symmetry_space_group_name_H-M   'P 21/c'
_symmetry_Int_Tables_number      14
_space_group_name_Hall           '-P 2ybc'
loop_
_symmetry_equiv_pos_site_id
_symmetry_equiv_pos_as_xyz
1 x,y,z
2 -x,1/2+y,1/2-z
3 -x,-y,-z
4 x,1/2-y,1/2+z
_cell_length_a                   12.565(2)
_cell_length_b                   29.618(5)
_cell_length_c                   9.858(2)
_cell_angle_alpha                90
_cell_angle_beta                 105.695(3)
_cell_angle_gamma                90
_cell_volume                     3531.87
loop_
_atom_site_label
_atom_site_type_symbol
_atom_site_fract_x
_atom_site_fract_y
_atom_site_fract_z
Co1 Co 1.35709(7) 0.05754(3) 1.03802(11)
O1 O 1.3360(5) 0.01627(16) 0.8781(6)
O2 O 1.3401(5) 0.07954(16) 0.7624(6)
O3 O 1.3482(5) 0.00720(17) 0.1696(7)
O4 O 1.3931(5) 0.06925(17) 0.2857(7)
O5 O 0.9395(4) -0.23904(16) 0.6176(6)
O6 O 0.9103(5) -0.2216(2) 0.3853(7)
H1 H 0.8729 -0.1999 0.4028
N1 N 1.1423(4) -0.34291(17) 0.4947(6)
N2 N 0.7715(4) -0.39675(18) 0.4846(7)
N3 N 1.4995(5) -0.40829(17) 0.4473(7)
C1 C 1.3357(6) 0.0374(3) 0.7699(10)
C2 C 1.3315(7) 0.0099(2) 0.6402(9)
C3 C 1.2957(7) -0.0353(2) 0.6318(8)
H2 H 1.2813 -0.0491 0.7119
C4 C 1.2813(7) -0.0598(2) 0.5093(9)
C5 C 1.3076(8) -0.0384(2) 0.3961(9)
H3 H 1.2993 -0.0544 0.3104
C6 C 1.3457(7) 0.0059(2) 0.4063(9)
C7 C 1.3561(6) 0.0302(2) 0.5293(9)
H4 H 1.3802 0.0607 0.5358
C8 C 1.3654(6) 0.0288(2) 0.2807(9)
C9 C 1.2398(7) -0.1071(2) 0.4963(8)
C10 C 1.2586(8) -0.1357(2) 0.3929(9)
H5 H 1.2932 -0.1242 0.3256
C11 C 1.2273(7) -0.1812(2) 0.3868(9)
H6 H 1.2411 -0.2000 0.3154
C12 C 1.1766(6) -0.1992(2) 0.4832(7)
C13 C 1.1528(6) -0.1703(2) 0.5816(8)
H7 H 1.1148 -0.1816 0.6458
C14 C 1.1837(7) -0.1250(2) 0.5878(8)
H8 H 1.1661 -0.1059 0.6561
C15 C 1.1580(5) -0.2488(2) 0.4844(7)
C16 C 1.2442(5) -0.2766(2) 0.4738(8)
H9 H 1.3107 -0.2637 0.4631
C17 C 1.2336(5) -0.3228(2) 0.4786(8)
C18 C 1.0575(5) -0.3168(2) 0.5010(7)
C19 C 1.0616(5) -0.2696(2) 0.4969(7)
C20 C 0.9632(5) -0.2419(2) 0.5058(8)
C21 C 0.9563(5) -0.3417(2) 0.5000(8)
C22 C 0.9537(6) -0.3721(3) 0.6090(9)
H10 H 1.0151 -0.3748 0.6896
C23 C 0.8592(7) -0.3978(3) 0.5959(9)
H11 H 0.8571 -0.4175 0.6712
C24 C 0.7746(7) -0.3665(3) 0.3814(10)
H12 H 0.7130 -0.3647 0.3006
C25 C 0.8638(6) -0.3385(3) 0.3901(10)
H13 H 0.8607 -0.3167 0.3185
C26 C 1.3241(5) -0.3535(2) 0.4649(8)
C27 C 1.3375(6) -0.3959(2) 0.5218(8)
H14 H 1.2857 -0.4075 0.5675
C28 C 1.4267(6) -0.4219(2) 0.5124(9)
H15 H 1.4357 -0.4509 0.5549
C29 C 1.4810(6) -0.3689(3) 0.3795(9)
H16 H 1.5287 -0.3602 0.3239
C30 C 1.3970(6) -0.3405(3) 0.3860(9)
H17 H 1.3878 -0.3123 0.3379
Co1_2 Co 1.35709(7) 0.05754(3) 0.03802(11)
Co1A Co 0.64291(7) -0.44246(3) 0.46198(11)
Co1A_2 Co 1.64291(7) -0.44246(3) 0.46198(11)
O3_2 O 1.3482(5) 0.00720(17) 1.1696(7)
O4_2 O 1.3931(5) 0.06925(17) 1.2857(7)
N2A N 1.2285(4) 0.10325(18) 1.0154(7)
N3A N 1.5005(5) 0.09171(17) 1.0527(7)
O7 O 0.7732(7) -0.1451(3) 0.4077(9)
H18 H 0.7888 -0.1358 0.3349
C31 C 0.8361(14) -0.1247(6) 0.5184(18)
H19 H 0.7905 -0.1139 0.5781
H20 H 0.8734 -0.0991 0.4882
H21 H 0.8914 -0.1460 0.5719
O8 O 0.6105(12) -0.3114(5) 0.1492(15)
C32 C 0.615(2) -0.2606(9) 0.150(3)
H22 H 0.5515 -0.2480 0.1788
H23 H 0.6840 -0.2500 0.2166
C33 C 0.611(2) -0.2456(11) 0.006(3)
H24 H 0.6132 -0.2122 0.0037
H25 H 0.6765 -0.2571 -0.0201
C35 C 0.5132(17) -0.3072(7) -0.098(2)
C36 C 0.5195(16) -0.3261(7) 0.047(2)
H30 H 0.5758 -0.3188 -0.1306
H31 H 0.4436 -0.3171 -0.1652
H32 H 0.4520 -0.3174 0.0742
H33 H 0.5213 -0.3595 0.0429
O10 O 0.5170(11) -0.2601(5) -0.0926(14)
O9 O 1.080(3) -0.4747(11) 1.549(3)
H26 H 1.0759 -0.4503 1.5907
C34 C 1.090(4) -0.4652(17) 1.409(5)
H27 H 1.0563 -0.4359 1.3773
H28 H 1.0518 -0.4888 1.3439
H29 H 1.1682 -0.4646 1.4100
loop_
_geom_bond_atom_site_label_1
_geom_bond_atom_site_label_2
_geom_bond_site_symmetry_1
_geom_bond_site_symmetry_2
Co1 O1 1_555 1_555
O1 C1 1_555 1_555
O2 C1 1_555 1_555
O3 C8 1_555 1_555
O4 C8 1_555 1_555
O5 C20 1_555 1_555
O6 H1 1_555 1_555
N1 C17 1_555 1_555
N2 C23 1_555 1_555
N3 C28 1_555 1_555
C1 C2 1_555 1_555
C2 C3 1_555 1_555
C3 H2 1_555 1_555
C4 C3 1_555 1_555
C5 C4 1_555 1_555
H3 C5 1_555 1_555
C6 C5 1_555 1_555
C7 C2 1_555 1_555
H4 C7 1_555 1_555
C8 C6 1_555 1_555
C9 C4 1_555 1_555
C10 C9 1_555 1_555
H5 C10 1_555 1_555
C11 C10 1_555 1_555
H6 C11 1_555 1_555
C12 C11 1_555 1_555
C13 C12 1_555 1_555
H7 C13 1_555 1_555
C14 C9 1_555 1_555
H8 C14 1_555 1_555
C15 C12 1_555 1_555
C16 C15 1_555 1_555
H9 C16 1_555 1_555
C17 C16 1_555 1_555
C18 N1 1_555 1_555
C19 C15 1_555 1_555
C20 O6 1_555 1_555
C21 C18 1_555 1_555
C22 C21 1_555 1_555
H10 C22 1_555 1_555
C23 C22 1_555 1_555
H11 C23 1_555 1_555
C24 N2 1_555 1_555
H12 C24 1_555 1_555
C25 C21 1_555 1_555
H13 C25 1_555 1_555
C26 C17 1_555 1_555
C27 C26 1_555 1_555
H14 C27 1_555 1_555
C28 C27 1_555 1_555
H15 C28 1_555 1_555
C29 N3 1_555 1_555
H16 C29 1_555 1_555
C30 C26 1_555 1_555
H17 C30 1_555 1_555
O7 H18 1_555 1_555
C31 O7 1_555 1_555
H19 C31 1_555 1_555
H20 C31 1_555 1_555
H21 C31 1_555 1_555
O8 C32 1_555 1_555
C32 H22 1_555 1_555
H23 C32 1_555 1_555
C33 C32 1_555 1_555
H24 C33 1_555 1_555
H25 C33 1_555 1_555
O9 H26 1_555 1_555
C34 O9 1_555 1_555
H27 C34 1_555 1_555
H28 C34 1_555 1_555
H29 C34 1_555 1_555
C35 C36 1_555 1_555
C36 O8 1_555 1_555
H30 C35 1_555 1_555
H31 C35 1_555 1_555
H32 C36 1_555 1_555
H33 C36 1_555 1_555
O10 C33 1_555 1_555
Co1_2 O3 1_555 1_555
Co1A N2 1_555 1_555
Co1A_2 N3 1_555 1_555
O3_2 Co1 1_555 1_555
O4_2 Co1 1_555 1_555
N2A Co1 1_555 1_555
N3A Co1 1_555 1_555
O4 Co1_2 1_555 1_555
C6 C7 1_555 1_555
C13 C14 1_555 1_555
C18 C19 1_555 1_555
C19 C20 1_555 1_555
C24 C25 1_555 1_555
C29 C30 1_555 1_555
C35 O10 1_555 1_555

#END
