
#######################################################################
#
#                 Cambridge Crystallographic Data Centre
#                                CCDC 
#
#######################################################################
#
# If this CIF has been generated from an entry in the Cambridge 
# Structural Database, then it will include bibliographic, chemical, 
# crystal, experimental, refinement or atomic coordinate data resulting 
# from the CCDC's data processing and validation procedures.
#
#######################################################################

data_QEGNOH
_symmetry_cell_setting           orthorhombic
_symmetry_space_group_name_H-M   'P b c n'
_symmetry_Int_Tables_number      60
_space_group_name_Hall           '-P 2n 2ab'
loop_
_symmetry_equiv_pos_site_id
_symmetry_equiv_pos_as_xyz
1 x,y,z
2 1/2-x,1/2-y,1/2+z
3 -x,y,1/2-z
4 1/2+x,1/2-y,-z
5 -x,-y,-z
6 1/2+x,1/2+y,1/2-z
7 x,-y,1/2+z
8 1/2-x,1/2+y,z
_cell_length_a                   15.230(3)
_cell_length_b                   16.405(3)
_cell_length_c                   13.939(3)
_cell_angle_alpha                90
_cell_angle_beta                 90
_cell_angle_gamma                90
_cell_volume                     3482.63
loop_
_atom_site_label
_atom_site_type_symbol
_atom_site_fract_x
_atom_site_fract_y
_atom_site_fract_z
Co1 Co 0.085272(15) 0.423204(14) 0.333910(16)
N1 N -0.03628(10) 0.35471(9) 0.36142(10)
N2 N -0.06561(10) 0.31579(10) 0.43934(11)
N3 N -0.32852(10) 0.16362(10) 0.59310(11)
N4 N -0.10218(10) 0.36417(9) 0.29970(11)
N5 N -0.17520(11) 0.33235(11) 0.33551(10)
N6 N 0.19530(11) 0.50194(11) 0.31053(13)
N7 N 0.0000 0.6418(2) 0.2500
N8 N 0.0000 0.57221(17) 0.2500
N9 N 0.06739(11) 0.48163(12) 0.46681(13)
N10 N 0.0000 0.49993(14) 0.2500
N11 N 0.0000 0.5000 0.5000
C1 C -0.15101(12) 0.30310(11) 0.42096(12)
C2 C -0.24829(13) 0.18407(13) 0.62524(14)
H1 H -0.2318 0.1662 0.6859
C3 C -0.35141(12) 0.19242(13) 0.50648(14)
H2 H -0.4071 0.1802 0.4832
C4 C 0.24521(16) 0.52658(16) 0.38341(18)
H3 H 0.2310 0.5082 0.4446
C5 C -0.18878(13) 0.23012(14) 0.57359(13)
H4 H -0.1340 0.2425 0.5992
C6 C -0.21193(12) 0.25760(12) 0.48315(13)
C7 C 0.31668(17) 0.57764(16) 0.3739(2)
H5 H 0.3494 0.5925 0.4274
C8 C -0.29646(13) 0.23912(14) 0.45047(13)
H6 H -0.3155 0.2583 0.3912
C9 C 0.41930(16) 0.65903(15) 0.2681(3)
H7 H 0.4290 0.6929 0.3241
H8 H 0.4095 0.6946 0.2135
C10 C 0.5000 0.6068(2) 0.2500
H9 H 0.5104 0.5720 0.3051
C11 C 0.28617(18) 0.58189(16) 0.2077(2)
H10 H 0.2982 0.6002 0.1460
C12 C 0.21620(15) 0.53059(15) 0.22348(17)
H11 H 0.1819 0.5151 0.1714
C13 C 0.33912(14) 0.60646(15) 0.2840(2)
Co1C Co 0.585272(15) 0.076796(14) 0.666090(16)
Co1C_2 Co -0.414728(15) 0.076796(14) 0.666090(16)
Co1B Co -0.085272(15) 0.423204(14) 0.166090(16)
Co1B_2 Co 0.914728(15) 0.423204(14) 0.166090(16)
Co1D Co -0.085272(15) 0.576796(14) 0.666090(16)
Co1A Co 0.414728(15) 0.076796(14) 0.833910(16)
N1C N 0.46372(10) 0.14529(9) 0.63858(10)
N2C N 0.43439(10) 0.18421(10) 0.56066(11)
N3C N 0.17148(10) 0.33638(10) 0.40690(11)
N3_2 N 0.67148(10) 0.16362(10) 0.59310(11)
N4C N 0.39782(10) 0.13583(9) 0.70030(11)
N4B N 0.10218(10) 0.36417(9) 0.20030(11)
N4A N 0.60218(10) 0.13583(9) 0.79970(11)
N5C N 0.32480(11) 0.16765(11) 0.66449(10)
N6B N 0.80470(11) 0.50194(11) 0.18947(13)
N6C N 0.69530(11) -0.00194(11) 0.68947(13)
N9D N -0.06739(11) 0.51837(12) 0.53319(13)
N9C N 0.56739(11) 0.01837(12) 0.53319(13)
N10A N 0.5000 0.00007(14) 0.7500
C1C C 0.34899(12) 0.19690(11) 0.57904(12)
C2C C 0.25171(13) 0.31593(13) 0.37476(14)
H1C H 0.2682 0.3338 0.3141
C3C C 0.14859(12) 0.30758(13) 0.49352(14)
H2C H 0.0929 0.3198 0.5168
C4B C 0.75479(16) 0.52658(16) 0.11659(18)
H3B H 0.7690 0.5082 0.0554
C5C C 0.31122(13) 0.26988(14) 0.42641(13)
H4C H 0.3660 0.2575 0.4008
C6C C 0.28807(12) 0.24240(12) 0.51685(13)
C7B C 0.68332(17) 0.57764(16) 0.1261(2)
H5B H 0.6506 0.5925 0.0726
C8C C 0.20354(13) 0.26088(14) 0.54953(13)
H6C H 0.1845 0.2417 0.6088
C9B C 0.58070(16) 0.65903(15) 0.2319(3)
H7B H 0.5710 0.6929 0.1759
H8B H 0.5905 0.6946 0.2865
H9B H 0.4896 0.5720 0.1949
C11B C 0.71383(18) 0.58189(16) 0.2923(2)
H10B H 0.7018 0.6002 0.3540
C12B C 0.78380(15) 0.53059(15) 0.27652(17)
H11B H 0.8181 0.5151 0.3286
C13B C 0.66088(14) 0.60646(15) 0.2160(2)
loop_
_geom_bond_atom_site_label_1
_geom_bond_atom_site_label_2
_geom_bond_site_symmetry_1
_geom_bond_site_symmetry_2
Co1 N1 1_555 1_555
N1 N2 1_555 1_555
N2 C1 1_555 1_555
N3 C2 1_555 1_555
N4 N1 1_555 1_555
N5 N4 1_555 1_555
N6 Co1 1_555 1_555
N7 N8 1_555 1_555
N8 N10 1_555 1_555
N9 Co1 1_555 1_555
N10 Co1 1_555 1_555
N11 N9 1_555 1_555
C1 N5 1_555 1_555
C2 H1 1_555 1_555
C3 N3 1_555 1_555
H2 C3 1_555 1_555
C4 N6 1_555 1_555
H3 C4 1_555 1_555
C5 C2 1_555 1_555
H4 C5 1_555 1_555
C6 C1 1_555 1_555
C7 C4 1_555 1_555
H5 C7 1_555 1_555
C8 C3 1_555 1_555
H6 C8 1_555 1_555
C9 H7 1_555 1_555
H8 C9 1_555 1_555
C10 C9 1_555 1_555
H9 C10 1_555 1_555
C11 H10 1_555 1_555
C12 N6 1_555 1_555
H11 C12 1_555 1_555
C13 C7 1_555 1_555
Co1C N1C 1_555 1_555
Co1C_2 N3 1_555 1_555
Co1B N4 1_555 1_555
Co1B_2 N6B 1_555 1_555
Co1D N9D 1_555 1_555
Co1A N4C 1_555 1_555
N1C N2C 1_555 1_555
N2C C1C 1_555 1_555
N3C Co1 1_555 1_555
N3_2 Co1C 1_555 1_555
N4C N1C 1_555 1_555
N4B Co1 1_555 1_555
N4A Co1C 1_555 1_555
N5C N4C 1_555 1_555
N6B C4B 1_555 1_555
N6C Co1C 1_555 1_555
N9D N11 1_555 1_555
N9C Co1C 1_555 1_555
N10A Co1C 1_555 1_555
C1C N5C 1_555 1_555
C2C N3C 1_555 1_555
H1C C2C 1_555 1_555
C3C N3C 1_555 1_555
H2C C3C 1_555 1_555
C4B H3B 1_555 1_555
C5C C2C 1_555 1_555
H4C C5C 1_555 1_555
C6C C1C 1_555 1_555
C7B C4B 1_555 1_555
H5B C7B 1_555 1_555
C8C C3C 1_555 1_555
H6C C8C 1_555 1_555
C9B C10 1_555 1_555
H7B C9B 1_555 1_555
H8B C9B 1_555 1_555
H9B C10 1_555 1_555
C11B H10B 1_555 1_555
C12B N6B 1_555 1_555
H11B C12B 1_555 1_555
C13B C7B 1_555 1_555
N10 Co1B 1_555 1_555
C5 C6 1_555 1_555
C6 C8 1_555 1_555
C9 C13 1_555 1_555
C11 C12 1_555 1_555
C11 C13 1_555 1_555
Co1A N10A 1_555 1_555
C5C C6C 1_555 1_555
C6C C8C 1_555 1_555
C9B C13B 1_555 1_555
C11B C12B 1_555 1_555
C11B C13B 1_555 1_555

#END
