
#######################################################################
#
#                 Cambridge Crystallographic Data Centre
#                                CCDC 
#
#######################################################################
#
# If this CIF has been generated from an entry in the Cambridge 
# Structural Database, then it will include bibliographic, chemical, 
# crystal, experimental, refinement or atomic coordinate data resulting 
# from the CCDC's data processing and validation procedures.
#
#######################################################################

data_QEHFEO
_symmetry_cell_setting           monoclinic
_symmetry_space_group_name_H-M   'P 21'
_symmetry_Int_Tables_number      4
_space_group_name_Hall           'P 2yb'
loop_
_symmetry_equiv_pos_site_id
_symmetry_equiv_pos_as_xyz
1 x,y,z
2 -x,1/2+y,-z
_cell_length_a                   10.870(2)
_cell_length_b                   13.248(4)
_cell_length_c                   17.804(6)
_cell_angle_alpha                90
_cell_angle_beta                 102.91(3)
_cell_angle_gamma                90
_cell_volume                     2499.07
loop_
_atom_site_label
_atom_site_type_symbol
_atom_site_fract_x
_atom_site_fract_y
_atom_site_fract_z
Cr1 Cr -0.05530(10) 0.30985(8) 0.42669(6)
N1 N -0.0639(6) 0.1773(5) 0.3667(3)
O1 O -0.2388(4) 0.3140(4) 0.4131(3)
C1 C -0.0624(7) 0.0850(6) 0.3982(4)
H1 H -0.0590(7) 0.0790(6) 0.4507(4)
O2 O -0.0666(4) 0.4469(4) 0.4652(3)
C2 C -0.0660(9) -0.0021(7) 0.3535(5)
H2 H -0.0658(9) -0.0655(7) 0.3759(5)
O3 O -0.3926(5) 0.4071(5) 0.4397(3)
C3 C -0.0700(9) 0.0072(7) 0.2757(5)
H3 H -0.0710(9) -0.0500(7) 0.2453(5)
O4 O -0.2101(6) 0.5605(4) 0.4847(3)
C4 C -0.0724(8) 0.1009(7) 0.2439(5)
H4 H -0.0762(8) 0.1082(7) 0.1915(5)
O5 O -0.0369(4) 0.2472(4) 0.5278(3)
C5 C -0.0692(7) 0.1866(6) 0.2909(4)
O6 O 0.1316(4) 0.3126(4) 0.4565(2)
N2 N -0.0629(6) 0.3625(5) 0.3169(3)
O7 O 0.1083(5) 0.2137(5) 0.6353(3)
C6 C -0.0727(7) 0.2904(6) 0.2616(4)
O8 O 0.2878(5) 0.2905(5) 0.5607(3)
C7 C -0.0863(7) 0.3180(7) 0.1844(4)
H5 H -0.0962(7) 0.2687(7) 0.1463(4)
C8 C -0.0851(8) 0.4178(7) 0.1650(5)
H6 H -0.0930(8) 0.4359(7) 0.1137(5)
C9 C -0.0726(8) 0.4914(7) 0.2201(5)
H7 H -0.0715(8) 0.5593(7) 0.2070(5)
C10 C -0.0613(8) 0.4615(6) 0.2969(5)
H8 H -0.0526(8) 0.5105(6) 0.3351(5)
C11 C -0.2809(7) 0.3936(6) 0.4377(5)
C12 C -0.1807(7) 0.4769(6) 0.4657(4)
C13 C 0.1784(7) 0.2843(5) 0.5277(4)
C14 C 0.0767(7) 0.2439(6) 0.5675(4)
Cr2 Cr -0.43791(10) 0.09139(8) 0.06817(6)
O9 O -0.6239(4) 0.0908(4) 0.0416(2)
O10 O -0.4620(4) 0.1562(4) -0.0338(2)
O11 O -0.7861(5) 0.1155(4) -0.0596(3)
O12 O -0.6092(5) 0.1925(4) -0.1389(3)
O13 O -0.2547(4) 0.0891(4) 0.0791(3)
O14 O -0.4274(4) -0.0442(4) 0.0282(3)
O15 O -0.2857(5) -0.1561(4) 0.0059(3)
O16 O -0.1037(5) -0.0069(5) 0.0499(4)
N3 N -0.4284(6) 0.2251(5) 0.1290(3)
C15 C -0.4261(8) 0.3174(6) 0.0988(5)
H9 H -0.4277(8) 0.3242(6) 0.0466(5)
C16 C -0.4214(8) 0.4026(7) 0.1437(5)
H10 H -0.4215(8) 0.4662(7) 0.1216(5)
C17 C -0.4166(8) 0.3936(7) 0.2212(5)
H11 H -0.4130(8) 0.4507(7) 0.2520(5)
C18 C -0.4174(7) 0.2983(6) 0.2526(4)
H12 H -0.4152(7) 0.2904(6) 0.3047(4)
C19 C -0.4214(7) 0.2149(6) 0.2057(4)
C20 C -0.4190(7) 0.1101(6) 0.2327(4)
C21 C -0.4083(7) 0.0844(7) 0.3103(4)
H13 H -0.4025(7) 0.1343(7) 0.3476(4)
C22 C -0.4066(7) -0.0174(7) 0.3305(4)
H14 H -0.3991(7) -0.0367(7) 0.3815(4)
C23 C -0.4161(8) -0.0882(6) 0.2733(5)
H15 H -0.4165(8) -0.1564(6) 0.2857(5)
C24 C -0.4252(7) -0.0598(6) 0.1978(5)
N4 N -0.4265(6) 0.0380(5) 0.1785(3)
C25 C -0.2147(7) 0.0086(6) 0.0539(4)
C26 C -0.3154(7) -0.0746(6) 0.0264(4)
C27 C -0.5761(7) 0.1614(6) -0.0720(4)
C28 C -0.6722(7) 0.1209(6) -0.0281(4)
Mn1 Mn -0.74739(13) 0.71096(10) 0.25296(8)
O17 O -0.6397(5) 0.7620(4) 0.1690(3)
O18 O -0.8599(5) 0.6534(4) 0.3308(3)
O19 O -0.9169(5) 0.7527(6) 0.1699(3)
O20 O -0.5791(5) 0.6770(5) 0.3415(3)
O21 O -0.7203(7) 0.5698(4) 0.1995(3)
N5 N -0.7297(7) 0.4720(5) 0.2158(4)
C29 C -0.7630(8) 0.4057(7) 0.1589(5)
H16 H -0.7838(8) 0.4286(7) 0.1082(5)
C30 C -0.7672(8) 0.3064(7) 0.1730(4)
H17 H -0.7898(8) 0.2620(7) 0.1318(4)
C31 C -0.7384(7) 0.2675(6) 0.2486(4)
C32 C -0.7041(8) 0.3387(6) 0.3069(5)
H18 H -0.6852(8) 0.3177(6) 0.3580(5)
C33 C -0.6977(8) 0.4401(7) 0.2903(4)
H19 H -0.6715(8) 0.4864(7) 0.3299(4)
C34 C -0.7412(7) 0.1582(6) 0.2653(5)
C35 C -0.7508(9) 0.0861(7) 0.2081(5)
H20 H -0.7562(9) 0.1071(7) 0.1576(5)
C36 C -0.7525(9) -0.0145(7) 0.2232(5)
H21 H -0.7574(9) -0.0606(7) 0.1833(5)
N6 N -0.7471(7) -0.0484(5) 0.2956(4)
O22 O -0.7492(8) -0.1447(5) 0.3123(4)
C37 C -0.7348(8) 0.0197(6) 0.3519(5)
H22 H -0.7266(8) -0.0029(6) 0.4022(5)
C38 C -0.7337(7) 0.1214(6) 0.3386(5)
H23 H -0.7279(7) 0.1662(6) 0.3795(5)
O22_2 O -0.7492(8) 0.8553(5) 0.3123(4)
Mn1_2 Mn -0.74739(13) -0.28904(10) 0.25296(8)
O23 O -0.3601(5) 0.6285(5) 0.2983(3)
O24 O -1.1442(5) 0.7718(5) 0.2063(3)
O25 O -0.7222(5) 0.8877(5) 0.0507(3)
O26 O -0.7781(6) 0.5233(5) 0.4484(3)
O27 O -0.5257(6) 0.5456(5) 0.5087(3)
O28 O 0.0312(5) -0.1674(5) 0.0154(4)
O29 O -0.9440(6) 0.1523(4) 0.0403(4)
O30 O -0.5060(6) 0.2518(4) 0.5053(4)
loop_
_geom_bond_atom_site_label_1
_geom_bond_atom_site_label_2
_geom_bond_site_symmetry_1
_geom_bond_site_symmetry_2
Cr1 N1 1_555 1_555
N1 C1 1_555 1_555
O1 Cr1 1_555 1_555
C1 H1 1_555 1_555
O2 Cr1 1_555 1_555
Cr2 O9 1_555 1_555
C2 C1 1_555 1_555
H2 C2 1_555 1_555
O3 C11 1_555 1_555
Mn1 O17 1_555 1_555
C3 C2 1_555 1_555
H3 C3 1_555 1_555
O4 C12 1_555 1_555
C4 C3 1_555 1_555
H4 C4 1_555 1_555
O5 Cr1 1_555 1_555
C5 N1 1_555 1_555
O6 Cr1 1_555 1_555
N2 Cr1 1_555 1_555
O7 C14 1_555 1_555
C6 C5 1_555 1_555
O8 C13 1_555 1_555
C7 C6 1_555 1_555
H5 C7 1_555 1_555
C8 C7 1_555 1_555
H6 C8 1_555 1_555
C9 C8 1_555 1_555
H7 C9 1_555 1_555
O9 C28 1_555 1_555
C10 N2 1_555 1_555
H8 C10 1_555 1_555
O10 Cr2 1_555 1_555
C11 O1 1_555 1_555
O11 C28 1_555 1_555
C12 O2 1_555 1_555
O12 C27 1_555 1_555
C13 O6 1_555 1_555
O13 Cr2 1_555 1_555
O14 Cr2 1_555 1_555
C14 O5 1_555 1_555
O15 C26 1_555 1_555
O16 C25 1_555 1_555
N3 Cr2 1_555 1_555
C15 N3 1_555 1_555
H9 C15 1_555 1_555
C16 C15 1_555 1_555
H10 C16 1_555 1_555
C17 C16 1_555 1_555
H11 C17 1_555 1_555
C18 C17 1_555 1_555
H12 C18 1_555 1_555
C19 N3 1_555 1_555
C20 C19 1_555 1_555
C21 C20 1_555 1_555
H13 C21 1_555 1_555
C22 C21 1_555 1_555
H14 C22 1_555 1_555
C23 C22 1_555 1_555
H15 C23 1_555 1_555
C24 C23 1_555 1_555
N4 Cr2 1_555 1_555
O18 Mn1 1_555 1_555
C25 O13 1_555 1_555
O19 Mn1 1_555 1_555
C26 O14 1_555 1_555
O20 Mn1 1_555 1_555
C27 O10 1_555 1_555
C28 C27 1_555 1_555
O21 Mn1 1_555 1_555
N5 O21 1_555 1_555
C29 N5 1_555 1_555
H16 C29 1_555 1_555
C30 C29 1_555 1_555
H17 C30 1_555 1_555
C31 C30 1_555 1_555
C32 C31 1_555 1_555
H18 C32 1_555 1_555
C33 N5 1_555 1_555
H19 C33 1_555 1_555
C34 C31 1_555 1_555
C35 C34 1_555 1_555
H20 C35 1_555 1_555
C36 C35 1_555 1_555
H21 C36 1_555 1_555
N6 C36 1_555 1_555
O22 N6 1_555 1_555
C37 N6 1_555 1_555
H22 C37 1_555 1_555
C38 C34 1_555 1_555
H23 C38 1_555 1_555
O22_2 Mn1 1_555 1_555
Mn1_2 O22 1_555 1_555
C4 C5 1_555 1_555
N2 C6 1_555 1_555
C9 C10 1_555 1_555
C11 C12 1_555 1_555
C13 C14 1_555 1_555
C18 C19 1_555 1_555
C20 N4 1_555 1_555
C24 N4 1_555 1_555
C25 C26 1_555 1_555
C32 C33 1_555 1_555
C37 C38 1_555 1_555

#END
