
#######################################################################
#
#                 Cambridge Crystallographic Data Centre
#                                CCDC 
#
#######################################################################
#
# If this CIF has been generated from an entry in the Cambridge 
# Structural Database, then it will include bibliographic, chemical, 
# crystal, experimental, refinement or atomic coordinate data resulting 
# from the CCDC's data processing and validation procedures.
#
#######################################################################

data_QESLIK
_symmetry_cell_setting           triclinic
_symmetry_space_group_name_H-M   'P -1'
_symmetry_Int_Tables_number      2
_space_group_name_Hall           '-P 1'
loop_
_symmetry_equiv_pos_site_id
_symmetry_equiv_pos_as_xyz
1 x,y,z
2 -x,-y,-z
_cell_length_a                   5.653(4)
_cell_length_b                   6.627(4)
_cell_length_c                   9.391(8)
_cell_angle_alpha                70.788(8)
_cell_angle_beta                 75.836(12)
_cell_angle_gamma                89.68(9)
_cell_volume                     321.036
loop_
_atom_site_label
_atom_site_type_symbol
_atom_site_fract_x
_atom_site_fract_y
_atom_site_fract_z
In1 In -0.7136(2) -0.6683(2) -0.1606(1)
P1 P -0.6940(6) -0.2098(6) -0.0760(5)
O1 O -0.7230(20) -0.3460(15) -0.1754(14)
O2 O -0.5522(18) -0.7598(17) 0.0305(12)
O3 O -0.0930(20) -0.7450(20) -0.0687(14)
O4 O -0.3160(20) -1.0251(16) 0.1899(13)
O5 O -0.8109(19) -0.5581(16) -0.3955(13)
O6 O -0.3601(19) -0.5740(17) -0.3450(12)
C1 C -0.6280(20) -0.4940(20) -0.5126(17)
In1A In -0.2864(2) -0.3317(2) 0.1606(1)
In1A_2 In -0.2864(2) -0.3317(2) -0.8394(1)
In1A_3 In -1.2864(2) -0.3317(2) 0.1606(1)
In1A_4 In -0.2864(2) -1.3317(2) 0.1606(1)
In1_2 In 0.2864(2) -0.6683(2) -0.1606(1)
In1_3 In -0.7136(2) 0.3317(2) -0.1606(1)
P1A P -0.3060(6) -0.7902(6) 0.0760(5)
O1A O -0.2770(20) -0.6540(15) 0.1754(14)
O2A O -0.4478(18) -0.2402(17) -0.0305(12)
O3_2 O -1.0930(20) -0.7450(20) -0.0687(14)
O3A O 0.0930(20) -0.2550(20) 0.0687(14)
O3A_2 O -0.9070(20) -0.2550(20) 0.0687(14)
O4A O -0.6840(20) -0.9749(16) -0.1899(13)
O4_2 O -0.3160(20) -0.0251(16) 0.1899(13)
O4A_2 O -0.6840(20) 0.0251(16) -0.1899(13)
O5A O -0.1891(19) -0.4419(16) -0.6045(13)
O5A_2 O -0.1891(19) -0.4419(16) 0.3955(13)
O6A O -0.6399(19) -0.4260(17) -0.6550(12)
O6A_2 O -0.6399(19) -0.4260(17) 0.3450(12)
C1A C -0.3720(20) -0.5060(20) -0.4874(17)
C2 C -0.0950(30) -0.0530(30) -0.4280(20)
N1 N -0.1000(30) 0.0260(30) -0.2981(19)
C2A C 0.0950(30) 0.0530(30) -0.5720(20)
N1A N 0.1000(30) -0.0260(30) -0.7019(19)
N2? N -0.0960(10) -0.2210(90) -0.3090(70)
loop_
_geom_bond_atom_site_label_1
_geom_bond_atom_site_label_2
_geom_bond_site_symmetry_1
_geom_bond_site_symmetry_2
In1 O1 1_555 1_555
P1 O1 1_555 1_555
O2 In1 1_555 1_555
O3 In1_2 1_555 1_555
O4 In1A_4 1_555 1_555
O5 In1 1_555 1_555
O6 In1 1_555 1_555
C1 O5 1_555 1_555
C2 N1 1_555 1_555
In1A O1A 1_555 1_555
In1A_2 O5A 1_555 1_555
In1A_3 O3A_2 1_555 1_555
In1_3 O4A_2 1_555 1_555
P1A O2 1_555 1_555
O1A P1A 1_555 1_555
O2A P1 1_555 1_555
O3_2 In1 1_555 1_555
O3A In1A 1_555 1_555
O3A_2 P1 1_555 1_555
O4A In1 1_555 1_555
O4_2 In1A 1_555 1_555
O4A_2 P1 1_555 1_555
O5A C1A 1_555 1_555
O5A_2 In1A 1_555 1_555
O6A C1 1_555 1_555
O6A_2 In1A 1_555 1_555
C1A O6 1_555 1_555
C2A C2 1_555 1_555
N1A C2A 1_555 1_555
O3 P1A 1_555 1_555
O4 P1A 1_555 1_555
C1 C1A 1_555 1_555
In1A O2A 1_555 1_555
In1A_2 O6A 1_555 1_555

#END
