
#######################################################################
#
#                 Cambridge Crystallographic Data Centre
#                                CCDC 
#
#######################################################################
#
# If this CIF has been generated from an entry in the Cambridge 
# Structural Database, then it will include bibliographic, chemical, 
# crystal, experimental, refinement or atomic coordinate data resulting 
# from the CCDC's data processing and validation procedures.
#
#######################################################################

data_QIFLUO
_symmetry_cell_setting           monoclinic
_symmetry_space_group_name_H-M   'P 21/c'
_symmetry_Int_Tables_number      14
_space_group_name_Hall           '-P 2ybc'
loop_
_symmetry_equiv_pos_site_id
_symmetry_equiv_pos_as_xyz
1 x,y,z
2 -x,1/2+y,1/2-z
3 -x,-y,-z
4 x,1/2-y,1/2+z
_cell_length_a                   17.2330(8)
_cell_length_b                   13.8250(6)
_cell_length_c                   12.1786(7)
_cell_angle_alpha                90
_cell_angle_beta                 92.4829(18)
_cell_angle_gamma                90
_cell_volume                     2898.78
loop_
_atom_site_label
_atom_site_type_symbol
_atom_site_fract_x
_atom_site_fract_y
_atom_site_fract_z
Zn1 Zn 0.09840(4) 0.52485(5) 0.56046(7)
Zn2 Zn 0.07323(5) 0.09713(5) 0.53703(7)
C1 C 0.0972(4) 0.3111(4) 0.5172(6)
H1 H 0.1504 0.3034 0.5299
C2 C -0.0227(4) 0.2803(5) 0.4909(7)
C3 C 0.1103(4) 0.4646(5) 0.8060(6)
C4 C 0.0207(4) 0.5684(5) 0.7693(6)
H2 H -0.0112 0.6127 0.7316
C5 C 0.2490(4) 0.5400(5) 0.5587(7)
C6 C 0.3295(4) 0.5827(5) 0.5540(7)
C7 C 0.3420(5) 0.6678(6) 0.5000(9)
H3 H 0.3008 0.6989 0.4631
C8 C 0.4160(5) 0.7079(7) 0.5000(9)
H4 H 0.4244 0.7643 0.4607
C9 C 0.4762(5) 0.6648(6) 0.5575(7)
C10 C 0.4642(5) 0.5778(6) 0.6081(8)
H5 H 0.5056 0.5455 0.6429
C11 C 0.3924(5) 0.5392(6) 0.6073(7)
H6 H 0.3850 0.4812 0.6441
C12 C 0.6037(5) 0.6900(6) 0.6353(7)
C13 C 0.5905(5) 0.7129(8) 0.7439(8)
H7 H 0.5436 0.7402 0.7626
C14 C 0.6482(5) 0.6945(6) 0.8240(8)
H8 H 0.6393 0.7083 0.8971
C15 C 0.7201(4) 0.6552(5) 0.7964(7)
C16 C 0.7318(4) 0.6385(5) 0.6843(7)
H9 H 0.7796 0.6154 0.6631
C17 C 0.6741(4) 0.6558(6) 0.6062(7)
H10 H 0.6830 0.6443 0.5326
C18 C 0.7814(4) 0.6344(5) 0.8827(8)
N1 N 0.0808(3) 0.5208(4) 0.7228(5)
N2 N 0.0719(3) 0.4776(3) 0.8999(5)
N3 N 0.0128(3) 0.5448(4) 0.8730(5)
N4 N 0.1689(4) 0.4021(5) 0.7973(6)
H11 H 0.1907 0.3953 0.7356
H12 H 0.1848 0.3687 0.8534
N5 N -0.0171(3) 0.3771(4) 0.4892(5)
N6 N 0.0473(3) 0.2373(4) 0.5082(5)
N7 N 0.0626(3) 0.3965(3) 0.5059(5)
N8 N -0.0917(4) 0.2318(5) 0.4773(8)
H13 H -0.1344 0.2635 0.4671
H14 H -0.0924 0.1696 0.4789
O1 O 0.5475(3) 0.7113(5) 0.5535(5)
O2 O 0.7720(4) 0.6528(4) 0.9801(5)
O3 O 0.8462(3) 0.5988(4) 0.8470(5)
O4 O 0.2386(3) 0.4587(4) 0.5963(5)
O5 O 0.1933(3) 0.5924(4) 0.5185(5)
Zn1B Zn -0.09840(4) 0.47515(5) 0.43954(7)
Zn2A Zn -0.07323(5) 0.59713(5) 0.96297(7)
Zn2A_2 Zn 0.92677(5) 0.59713(5) 0.96297(7)
Zn2C Zn 0.07323(5) 0.40287(5) 1.03703(7)
N2C N 0.0719(3) 0.0224(3) 0.3999(5)
N3A N -0.0128(3) 0.0448(4) 0.6270(5)
N5B N 0.0171(3) 0.6229(4) 0.5108(5)
O3A O 0.1538(3) 0.0988(4) 0.6530(5)
loop_
_geom_bond_atom_site_label_1
_geom_bond_atom_site_label_2
_geom_bond_site_symmetry_1
_geom_bond_site_symmetry_2
Zn1 N1 1_555 1_555
Zn2 N6 1_555 1_555
C1 H1 1_555 1_555
C2 N5 1_555 1_555
C3 N1 1_555 1_555
C4 H2 1_555 1_555
C5 C6 1_555 1_555
C6 C7 1_555 1_555
C7 H3 1_555 1_555
C8 C7 1_555 1_555
H4 C8 1_555 1_555
C9 C8 1_555 1_555
C10 C9 1_555 1_555
H5 C10 1_555 1_555
C11 C6 1_555 1_555
H6 C11 1_555 1_555
C12 C13 1_555 1_555
C13 H7 1_555 1_555
C14 C13 1_555 1_555
H8 C14 1_555 1_555
C15 C14 1_555 1_555
C16 C15 1_555 1_555
H9 C16 1_555 1_555
C17 C12 1_555 1_555
H10 C17 1_555 1_555
C18 C15 1_555 1_555
N1 C4 1_555 1_555
N2 C3 1_555 1_555
N3 C4 1_555 1_555
N4 C3 1_555 1_555
H11 N4 1_555 1_555
H12 N4 1_555 1_555
N5 N7 1_555 1_555
N6 C1 1_555 1_555
N7 Zn1 1_555 1_555
N8 C2 1_555 1_555
H13 N8 1_555 1_555
H14 N8 1_555 1_555
O1 C9 1_555 1_555
O2 C18 1_555 1_555
O3 C18 1_555 1_555
O4 C5 1_555 1_555
O5 Zn1 1_555 1_555
Zn1B N5 1_555 1_555
Zn2A N3 1_555 1_555
Zn2A_2 O3 1_555 1_555
Zn2C N2 1_555 1_555
N2C Zn2 1_555 1_555
N3A Zn2 1_555 1_555
N5B Zn1 1_555 1_555
O3A Zn2 1_555 1_555
C1 N7 1_555 1_555
C2 N6 1_555 1_555
C5 O5 1_555 1_555
C10 C11 1_555 1_555
C12 O1 1_555 1_555
C16 C17 1_555 1_555
N2 N3 1_555 1_555

#END
