
#######################################################################
#
#                 Cambridge Crystallographic Data Centre
#                                CCDC 
#
#######################################################################
#
# If this CIF has been generated from an entry in the Cambridge 
# Structural Database, then it will include bibliographic, chemical, 
# crystal, experimental, refinement or atomic coordinate data resulting 
# from the CCDC's data processing and validation procedures.
#
#######################################################################

data_QIJLAW
_symmetry_cell_setting           orthorhombic
_symmetry_space_group_name_H-M   'P 21 21 21'
_symmetry_Int_Tables_number      19
_space_group_name_Hall           'P 2ac 2ab'
loop_
_symmetry_equiv_pos_site_id
_symmetry_equiv_pos_as_xyz
1 x,y,z
2 1/2-x,-y,1/2+z
3 -x,1/2+y,1/2-z
4 1/2+x,1/2-y,-z
_cell_length_a                   13.9593(3)
_cell_length_b                   17.2000(2)
_cell_length_c                   20.8587(5)
_cell_angle_alpha                90
_cell_angle_beta                 90
_cell_angle_gamma                90
_cell_volume                     5008.17
loop_
_atom_site_label
_atom_site_type_symbol
_atom_site_fract_x
_atom_site_fract_y
_atom_site_fract_z
Mn1 Mn -0.12255(2) 0.199850(17) 0.074201(16)
Mn2 Mn 0.03190(2) 0.199364(18) 0.419407(17)
N1 N -0.17271(15) 0.20706(12) 0.17488(10)
C1 C -0.19323(17) 0.20930(13) 0.22777(13)
N2 N -0.11445(17) 0.21708(12) 0.37784(11)
C2 C -0.16279(18) 0.21377(13) 0.33362(13)
N3 N -0.22597(16) 0.20937(14) 0.28671(10)
N4 N 0.02418(14) 0.18838(11) 0.11650(10)
C3 C 0.07300(16) 0.18252(11) 0.16052(13)
N5 N 0.08927(16) 0.19198(12) 0.32035(11)
C4 C 0.10683(17) 0.18580(12) 0.26658(13)
N6 N 0.13544(15) 0.17596(11) 0.20716(10)
N7 N -0.06967(14) 0.20027(12) -0.02729(9)
C5 C -0.00842(18) 0.23307(13) -0.05177(11)
N8 N 0.22218(15) 0.28533(10) -0.05252(9)
C6 C 0.14234(19) 0.27787(12) -0.06548(11)
N9 N 0.05370(16) 0.27333(14) -0.08427(12)
N10 N -0.09707(15) 0.32644(11) 0.06925(11)
C7 C -0.05341(18) 0.38153(12) 0.05827(12)
N11 N -0.00858(16) 0.57384(11) 0.07603(12)
C8 C -0.00904(17) 0.50938(13) 0.06246(12)
N12 N 0.00284(16) 0.43873(11) 0.04198(10)
N13 N 0.17626(17) 0.18117(13) 0.46171(12)
C9 C 0.2587(2) 0.18348(13) 0.46038(12)
N14 N 0.46328(15) 0.28484(11) 0.48224(10)
C10 C 0.40628(18) 0.23702(14) 0.47185(12)
N15 N 0.35218(16) 0.17803(11) 0.45721(11)
N16 N -0.05995(17) -0.17544(11) 0.08281(12)
C11 C -0.10482(19) -0.12028(12) 0.08842(13)
N17 N -0.13587(15) 0.07337(10) 0.06968(11)
C12 C -0.14409(17) 0.00851(12) 0.08109(12)
N18 N -0.16460(16) -0.06299(11) 0.09688(11)
N8C N -0.27782(15) 0.21467(10) 0.05252(9)
N11B N 0.00858(16) 0.07384(11) 0.42397(12)
N14C N -0.03672(15) 0.21516(11) 0.51776(10)
N16B N 0.05995(17) 0.32456(11) 0.41719(12)
Mn1C Mn 0.37745(2) 0.300150(17) -0.074201(16)
Mn2B Mn -0.03190(2) 0.699364(18) 0.080593(17)
Mn2C Mn 0.53190(2) 0.300636(18) 0.580593(17)
Mn2B_2 Mn -0.03190(2) -0.300636(18) 0.080593(17)
P1 P 0.26278(4) 0.60063(3) 0.65927(3)
C13 C 0.36689(16) 0.56470(12) 0.69968(10)
C14 C 0.36306(18) 0.49448(12) 0.73306(12)
H1 H 0.3067 0.4636 0.7319
C15 C 0.44186(17) 0.47018(14) 0.76790(12)
H2 H 0.4394 0.4227 0.7911
C16 C 0.52403(18) 0.51468(14) 0.76910(12)
H3 H 0.5781 0.4974 0.7928
C17 C 0.52816(18) 0.58464(14) 0.73579(12)
H4 H 0.5850 0.6151 0.7367
C18 C 0.44952(17) 0.60978(13) 0.70144(12)
H5 H 0.4518 0.6578 0.6790
C19 C 0.19169(17) 0.52116(12) 0.63022(11)
C20 C 0.09196(18) 0.52411(14) 0.63313(12)
H6 H 0.0611 0.5665 0.6538
C21 C 0.03784(19) 0.46508(15) 0.60585(13)
H7 H -0.0301 0.4669 0.6077
C22 C 0.0833(2) 0.40346(14) 0.57588(13)
H8 H 0.0462 0.3632 0.5570
C23 C 0.1817(2) 0.40007(14) 0.57317(13)
H9 H 0.2122 0.3573 0.5529
C24 C 0.23671(19) 0.45907(12) 0.60002(12)
H10 H 0.3046 0.4570 0.5978
C25 C 0.19574(16) 0.65990(12) 0.71429(11)
C26 C 0.1397(2) 0.72102(14) 0.69193(13)
H11 H 0.1354 0.7309 0.6472
C27 C 0.0903(2) 0.76724(15) 0.73464(14)
H12 H 0.0519 0.8088 0.7193
C28 C 0.0967(2) 0.75320(14) 0.79952(14)
H13 H 0.0630 0.7854 0.8288
C29 C 0.1522(2) 0.69215(14) 0.82226(13)
H14 H 0.1561 0.6824 0.8670
C30 C 0.20176(18) 0.64556(13) 0.77974(12)
H15 H 0.2399 0.6038 0.7952
C31 C 0.29575(18) 0.65705(13) 0.59089(11)
H16 H 0.3337 0.7020 0.6047
H17 H 0.2378 0.6751 0.5689
H18 H 0.3338 0.6250 0.5615
P2 P 0.35935(4) -0.06070(3) 0.16038(3)
C32 C 0.47482(16) -0.01547(12) 0.15856(12)
C33 C 0.50911(18) 0.02584(13) 0.21115(12)
H19 H 0.4721 0.0289 0.2493
C34 C 0.59740(18) 0.06244(13) 0.20777(13)
H20 H 0.6210 0.0910 0.2434
C35 C 0.65090(18) 0.05724(13) 0.15224(13)
H21 H 0.7112 0.0827 0.1498
C36 C 0.61803(19) 0.01570(14) 0.10044(13)
H22 H 0.6558 0.0123 0.0627
C37 C 0.52984(18) -0.02126(14) 0.10318(12)
H23 H 0.5072 -0.0503 0.0675
C38 C 0.28027(17) -0.01156(12) 0.10648(11)
C39 C 0.19337(19) -0.04654(14) 0.08982(12)
H24 H 0.1789 -0.0971 0.1053
C40 C 0.1286(2) -0.00842(17) 0.05121(13)
H25 H 0.0697 -0.0326 0.0400
C41 C 0.1498(2) 0.06557(16) 0.02879(13)
H26 H 0.1050 0.0924 0.0025
C42 C 0.2354(2) 0.10020(15) 0.04450(12)
H27 H 0.2497 0.1508 0.0288
C43 C 0.30102(18) 0.06201(13) 0.08290(12)
H28 H 0.3603 0.0861 0.0932
C44 C 0.31354(16) -0.05235(13) 0.24028(11)
C45 C 0.32203(19) -0.11229(14) 0.28458(13)
H29 H 0.3484 -0.1609 0.2720
C46 C 0.2921(2) -0.10112(15) 0.34668(13)
H30 H 0.2963 -0.1426 0.3766
C47 C 0.25597(19) -0.03001(14) 0.36594(12)
H31 H 0.2368 -0.0225 0.4092
C48 C 0.24776(18) 0.02989(14) 0.32255(12)
H32 H 0.2228 0.0786 0.3359
C49 C 0.27560(17) 0.01939(13) 0.25961(11)
H33 H 0.2691 0.0606 0.2296
C50 C 0.3708(2) -0.16033(12) 0.13589(13)
H34 H 0.4145 -0.1875 0.1651
H35 H 0.3963 -0.1625 0.0922
H36 H 0.3078 -0.1854 0.1371
loop_
_geom_bond_atom_site_label_1
_geom_bond_atom_site_label_2
_geom_bond_site_symmetry_1
_geom_bond_site_symmetry_2
Mn1 N1 1_555 1_555
Mn2 N2 1_555 1_555
N1 C1 1_555 1_555
C1 N3 1_555 1_555
N2 C2 1_555 1_555
C2 N3 1_555 1_555
N4 Mn1 1_555 1_555
C3 N4 1_555 1_555
N5 Mn2 1_555 1_555
C4 N5 1_555 1_555
N6 C3 1_555 1_555
N7 Mn1 1_555 1_555
C5 N7 1_555 1_555
N8 C6 1_555 1_555
C6 N9 1_555 1_555
N9 C5 1_555 1_555
N10 Mn1 1_555 1_555
C7 N10 1_555 1_555
N11 C8 1_555 1_555
C8 N12 1_555 1_555
N12 C7 1_555 1_555
N13 Mn2 1_555 1_555
C9 N13 1_555 1_555
N14 C10 1_555 1_555
C10 N15 1_555 1_555
N15 C9 1_555 1_555
N16 C11 1_555 1_555
C11 N18 1_555 1_555
N17 Mn1 1_555 1_555
C12 N17 1_555 1_555
N18 C12 1_555 1_555
P1 C13 1_555 1_555
C13 C14 1_555 1_555
C14 H1 1_555 1_555
C15 C14 1_555 1_555
H2 C15 1_555 1_555
C16 C15 1_555 1_555
H3 C16 1_555 1_555
C17 C16 1_555 1_555
H4 C17 1_555 1_555
C18 C13 1_555 1_555
H5 C18 1_555 1_555
C19 P1 1_555 1_555
C20 C19 1_555 1_555
H6 C20 1_555 1_555
C21 C20 1_555 1_555
H7 C21 1_555 1_555
C22 C21 1_555 1_555
H8 C22 1_555 1_555
C23 C22 1_555 1_555
H9 C23 1_555 1_555
C24 C19 1_555 1_555
H10 C24 1_555 1_555
C25 P1 1_555 1_555
C26 C25 1_555 1_555
H11 C26 1_555 1_555
C27 C26 1_555 1_555
H12 C27 1_555 1_555
C28 C27 1_555 1_555
H13 C28 1_555 1_555
C29 C28 1_555 1_555
H14 C29 1_555 1_555
C30 C25 1_555 1_555
H15 C30 1_555 1_555
C31 P1 1_555 1_555
H16 C31 1_555 1_555
H17 C31 1_555 1_555
H18 C31 1_555 1_555
P2 C32 1_555 1_555
C32 C33 1_555 1_555
C33 H19 1_555 1_555
C34 C33 1_555 1_555
H20 C34 1_555 1_555
C35 C34 1_555 1_555
H21 C35 1_555 1_555
C36 C35 1_555 1_555
H22 C36 1_555 1_555
C37 C32 1_555 1_555
H23 C37 1_555 1_555
C38 P2 1_555 1_555
C39 C38 1_555 1_555
H24 C39 1_555 1_555
C40 C39 1_555 1_555
H25 C40 1_555 1_555
C41 C40 1_555 1_555
H26 C41 1_555 1_555
C42 C41 1_555 1_555
H27 C42 1_555 1_555
C43 C38 1_555 1_555
H28 C43 1_555 1_555
C44 P2 1_555 1_555
C45 C44 1_555 1_555
H29 C45 1_555 1_555
C46 C45 1_555 1_555
H30 C46 1_555 1_555
C47 C46 1_555 1_555
H31 C47 1_555 1_555
C48 C47 1_555 1_555
H32 C48 1_555 1_555
C49 C44 1_555 1_555
H33 C49 1_555 1_555
C50 P2 1_555 1_555
H34 C50 1_555 1_555
H35 C50 1_555 1_555
H36 C50 1_555 1_555
N8C Mn1 1_555 1_555
N11B Mn2 1_555 1_555
N14C Mn2 1_555 1_555
N16B Mn2 1_555 1_555
Mn1C N8 1_555 1_555
Mn2B N11 1_555 1_555
Mn2C N14 1_555 1_555
Mn2B_2 N16 1_555 1_555
C4 N6 1_555 1_555
C17 C18 1_555 1_555
C23 C24 1_555 1_555
C29 C30 1_555 1_555
C36 C37 1_555 1_555
C42 C43 1_555 1_555
C48 C49 1_555 1_555

#END
