
#######################################################################
#
#                 Cambridge Crystallographic Data Centre
#                                CCDC 
#
#######################################################################
#
# If this CIF has been generated from an entry in the Cambridge 
# Structural Database, then it will include bibliographic, chemical, 
# crystal, experimental, refinement or atomic coordinate data resulting 
# from the CCDC's data processing and validation procedures.
#
#######################################################################

data_QIPROY
_symmetry_cell_setting           tetragonal
_symmetry_space_group_name_H-M   'P -4 n 2'
_symmetry_Int_Tables_number      118
_space_group_name_Hall           'P -4 -2n'
loop_
_symmetry_equiv_pos_site_id
_symmetry_equiv_pos_as_xyz
1 x,y,z
2 -x,-y,z
3 y,-x,-z
4 -y,x,-z
5 1/2+x,1/2-y,1/2+z
6 1/2-x,1/2+y,1/2+z
7 1/2+y,1/2+x,1/2-z
8 1/2-y,1/2-x,1/2-z
_cell_length_a                   9.5268(6)
_cell_length_b                   9.5268(6)
_cell_length_c                   23.401(3)
_cell_angle_alpha                90
_cell_angle_beta                 90
_cell_angle_gamma                90
_cell_volume                     2123.87
loop_
_atom_site_label
_atom_site_type_symbol
_atom_site_fract_x
_atom_site_fract_y
_atom_site_fract_z
Cu1 Cu 0.5000 1.0000 0.7500
N1 N 0.6026(3) 0.8873(3) 0.81027(9)
O1 O 0.8317(3) 0.9578(2) 0.92672(10)
O2 O 0.3153(2) 0.8153(2) 0.7500
C1 C 1.0000 1.0000 1.0000
C2 C 0.9283(3) 0.8865(3) 0.96361(12)
H1 H 0.9974 0.8356 0.9413
H2 H 0.8789 0.8204 0.9879
C3 C 0.7571(4) 0.8767(3) 0.88978(14)
C4 C 0.7512(5) 0.7326(4) 0.89000(15)
H3 H 0.7995 0.6801 0.9171
C5 C 0.6719(5) 0.6699(4) 0.84908(19)
H4 H 0.6683 0.5724 0.8477
C6 C 0.5975(5) 0.7449(4) 0.81007(16)
H5 H 0.5428 0.6985 0.7831
C7 C 0.6798(4) 0.9507(4) 0.84980(12)
H6 H 0.6820 1.0482 0.8507
N1A N 1.3974(3) 1.1127(3) 0.81027(9)
O1A O 1.1683(3) 1.0422(2) 0.92672(10)
C2A C 1.0717(3) 1.1135(3) 0.96361(12)
H1A H 1.0026 1.1644 0.9413
H2A H 1.1211 1.1796 0.9879
C3A C 1.2429(4) 1.1233(3) 0.88978(14)
C4A C 1.2488(5) 1.2674(4) 0.89000(15)
H3A H 1.2005 1.3199 0.9171
C5A C 1.3281(5) 1.3301(4) 0.84908(19)
H4A H 1.3317 1.4276 0.8477
C6A C 1.4025(5) 1.2551(4) 0.81007(16)
H5A H 1.4572 1.3015 0.7831
C7A C 1.3202(4) 1.0493(4) 0.84980(12)
H6A H 1.3180 0.9518 0.8507
N1B N 0.8873(3) 1.3974(3) 1.18973(9)
O1B O 0.9578(2) 1.1683(3) 1.07328(10)
C2B C 0.8865(3) 1.0717(3) 1.03639(12)
H1B H 0.8356 1.0026 1.0587
H2B H 0.8204 1.1211 1.0121
C3B C 0.8767(3) 1.2429(4) 1.11022(14)
C4B C 0.7326(4) 1.2488(5) 1.11000(15)
H3B H 0.6801 1.2005 1.0829
C5B C 0.6699(4) 1.3281(5) 1.15092(19)
H4B H 0.5724 1.3317 1.1523
C6B C 0.7449(4) 1.4025(5) 1.18993(16)
H5B H 0.6985 1.4572 1.2169
C7B C 0.9507(4) 1.3202(4) 1.15020(12)
H6B H 1.0482 1.3180 1.1493
N1C N 1.1127(3) 0.6026(3) 1.18973(9)
O1C O 1.0422(2) 0.8317(3) 1.07328(10)
C2C C 1.1135(3) 0.9283(3) 1.03639(12)
H1C H 1.1644 0.9974 1.0587
H2C H 1.1796 0.8789 1.0121
C3C C 1.1233(3) 0.7571(4) 1.11022(14)
C4C C 1.2674(4) 0.7512(5) 1.11000(15)
H3C H 1.3199 0.7995 1.0829
C5C C 1.3301(4) 0.6719(5) 1.15092(19)
H4C H 1.4276 0.6683 1.1523
C6C C 1.2551(4) 0.5975(5) 1.18993(16)
H5C H 1.3015 0.5428 1.2169
C7C C 1.0493(4) 0.6798(4) 1.15020(12)
H6C H 0.9518 0.6820 1.1493
O2A O 0.6847(2) 1.1847(2) 0.7500
Cu1_2 Cu 1.5000 1.0000 0.7500
Cu1B Cu 1.0000 0.5000 1.2500
Cu1B_2 Cu 1.0000 1.5000 1.2500
N1A_2 N 0.3974(3) 1.1127(3) 0.81027(9)
N1F N 0.3873(3) 1.1026(3) 0.68973(9)
N1G N 0.6127(3) 0.8974(3) 0.68973(9)
loop_
_geom_bond_atom_site_label_1
_geom_bond_atom_site_label_2
_geom_bond_site_symmetry_1
_geom_bond_site_symmetry_2
Cu1 N1 1_555 1_555
N1 C6 1_555 1_555
O1 C2 1_555 1_555
O2 Cu1 1_555 1_555
C1 C2 1_555 1_555
C2 H1 1_555 1_555
H2 C2 1_555 1_555
C3 O1 1_555 1_555
C4 C3 1_555 1_555
H3 C4 1_555 1_555
C5 C4 1_555 1_555
H4 C5 1_555 1_555
C6 C5 1_555 1_555
H5 C6 1_555 1_555
C7 N1 1_555 1_555
H6 C7 1_555 1_555
N1A C6A 1_555 1_555
O1A C2A 1_555 1_555
C2A C1 1_555 1_555
H1A C2A 1_555 1_555
H2A C2A 1_555 1_555
C3A O1A 1_555 1_555
C4A C3A 1_555 1_555
H3A C4A 1_555 1_555
C5A C4A 1_555 1_555
H4A C5A 1_555 1_555
C6A C5A 1_555 1_555
H5A C6A 1_555 1_555
C7A N1A 1_555 1_555
H6A C7A 1_555 1_555
N1B C6B 1_555 1_555
O1B C2B 1_555 1_555
C2B C1 1_555 1_555
H1B C2B 1_555 1_555
H2B C2B 1_555 1_555
C3B O1B 1_555 1_555
C4B C3B 1_555 1_555
H3B C4B 1_555 1_555
C5B C4B 1_555 1_555
H4B C5B 1_555 1_555
C6B C5B 1_555 1_555
H5B C6B 1_555 1_555
C7B N1B 1_555 1_555
H6B C7B 1_555 1_555
N1C C6C 1_555 1_555
O1C C2C 1_555 1_555
C2C C1 1_555 1_555
H1C C2C 1_555 1_555
H2C C2C 1_555 1_555
C3C O1C 1_555 1_555
C4C C3C 1_555 1_555
H3C C4C 1_555 1_555
C5C C4C 1_555 1_555
H4C C5C 1_555 1_555
C6C C5C 1_555 1_555
H5C C6C 1_555 1_555
C7C N1C 1_555 1_555
H6C C7C 1_555 1_555
O2A Cu1 1_555 1_555
Cu1_2 N1A 1_555 1_555
Cu1B N1C 1_555 1_555
Cu1B_2 N1B 1_555 1_555
N1A_2 Cu1 1_555 1_555
N1F Cu1 1_555 1_555
N1G Cu1 1_555 1_555
C3 C7 1_555 1_555
C3A C7A 1_555 1_555
C3B C7B 1_555 1_555
C3C C7C 1_555 1_555

#END
