
#######################################################################
#
#                 Cambridge Crystallographic Data Centre
#                                CCDC 
#
#######################################################################
#
# If this CIF has been generated from an entry in the Cambridge 
# Structural Database, then it will include bibliographic, chemical, 
# crystal, experimental, refinement or atomic coordinate data resulting 
# from the CCDC's data processing and validation procedures.
#
#######################################################################

data_QIQTAN
_symmetry_cell_setting           triclinic
_symmetry_space_group_name_H-M   'P -1'
_symmetry_Int_Tables_number      2
_space_group_name_Hall           '-P 1'
loop_
_symmetry_equiv_pos_site_id
_symmetry_equiv_pos_as_xyz
1 x,y,z
2 -x,-y,-z
_cell_length_a                   13.1440(5)
_cell_length_b                   16.1395(8)
_cell_length_c                   17.3653(9)
_cell_angle_alpha                112.258(5)
_cell_angle_beta                 104.013(4)
_cell_angle_gamma                96.650(4)
_cell_volume                     3218.33
loop_
_atom_site_label
_atom_site_type_symbol
_atom_site_fract_x
_atom_site_fract_y
_atom_site_fract_z
Ni1 Ni 0.91930(5) 0.27195(4) 0.30179(4)
Ni2 Ni 1.12297(5) 0.27285(4) 0.22965(4)
Ni3 Ni 0.32717(5) -0.27267(4) 0.32222(4)
O1 O 1.0287(3) 0.3699(2) 0.2754(2)
O2 O 1.0977(3) 0.4684(2) 0.2303(2)
O3 O 1.0143(3) 0.6561(2) 0.5643(2)
O4 O 0.8734(3) 0.7169(3) 0.5339(3)
O5 O 0.8324(6) 0.2475(4) -0.1613(3)
O6 O 0.7383(3) 0.3419(2) -0.1898(2)
O7 O 0.8561(3) 0.2081(2) 0.1711(2)
O8 O 0.9974(3) 0.1929(2) 0.1203(2)
O9 O 0.9159(3) -0.0597(3) -0.2017(3)
O10 O 0.8021(3) -0.1677(2) -0.1911(2)
O11 O 0.3074(3) -0.2993(3) -0.4970(2)
O12 O 0.3929(3) -0.2095(2) -0.5439(2)
O13 O 1.0546(3) 0.2166(2) 0.2999(2)
H1 H 1.0256 0.1595 0.2683
H2 H 1.0938 0.2314 0.3533
O14 O 1.1813(3) 0.3290(3) 0.1536(3)
H3 H 1.1557 0.3733 0.1548
H4 H 1.1263 0.2884 0.1433
O15 O 0.1978(3) -0.3447(2) 0.3369(2)
H5 H 0.1814 -0.3983 0.3003
H6 H 0.2289 -0.3361 0.3894
O16 O 0.2397(4) -0.1687(3) 0.3306(3)
H7 H 0.2000 -0.1921 0.2776
H8 H 0.2839 -0.1808 0.3672
N1 N 0.8337(3) 0.1585(3) 0.3109(3)
N2 N 0.4528(4) -0.1841(3) 0.3176(3)
N3 N 0.7907(3) 0.3392(3) 0.3048(3)
N4 N 0.4218(3) 0.6294(3) 0.3154(3)
N5 N 1.2601(3) 0.3540(3) 0.3332(3)
C1 C 1.0324(4) 0.4425(3) 0.2627(3)
C2 C 0.9633(4) 0.5083(3) 0.2945(3)
C3 C 0.9777(4) 0.5511(3) 0.3831(3)
H9 H 1.0213 0.5326 0.4214
C4 C 0.9265(4) 0.6227(4) 0.4154(3)
C5 C 0.8604(4) 0.6480(4) 0.3566(4)
H10 H 0.8264 0.6955 0.3772
C6 C 0.8451(5) 0.6038(4) 0.2690(4)
H11 H 0.8004 0.6221 0.2311
C7 C 0.8940(4) 0.5321(4) 0.2344(3)
C8 C 0.8714(4) 0.4804(4) 0.1392(4)
C9 C 0.8711(5) 0.5229(4) 0.0826(4)
H12 H 0.8872 0.5868 0.1055
C10 C 0.8473(5) 0.4723(4) -0.0069(4)
H13 H 0.8441 0.5023 -0.0435
C11 C 0.8281(5) 0.3767(4) -0.0421(4)
C12 C 0.8517(4) 0.3836(4) 0.1020(4)
H14 H 0.8527 0.3523 0.1374
C13 C 0.9384(4) 0.6689(4) 0.5122(3)
C14 C 0.7993(6) 0.3182(5) -0.1385(4)
C15 C 0.7770(6) 0.0824(4) 0.2393(5)
H15 H 0.7834 0.0786 0.1859
C16 C 0.7113(6) 0.0106(4) 0.2377(4)
H16 H 0.6736 -0.0397 0.1852
C17 C 0.7014(5) 0.0138(4) 0.3170(4)
C18 C 0.7635(5) 0.0890(4) 0.3920(4)
H17 H 0.7625 0.0926 0.4466
C19 C 0.8268(5) 0.1585(4) 0.3858(4)
H18 H 0.8676 0.2087 0.4375
C20 C 0.6202(5) -0.0580(4) 0.3181(4)
C21 C 0.5773(6) -0.1457(5) 0.2500(5)
H19 H 0.6032 -0.1639 0.2022
C22 C 0.4968(6) -0.2048(5) 0.2537(5)
H20 H 0.4714 -0.2634 0.2081
C23 C 0.4933(5) -0.1020(4) 0.3828(4)
H21 H 0.4655 -0.0864 0.4295
C24 C 0.5757(5) -0.0370(4) 0.3857(4)
H22 H 0.6006 0.0205 0.4330
C25 C 0.8990(4) 0.1757(3) 0.1120(3)
C26 C 0.8256(4) 0.1086(3) 0.0245(3)
C27 C 0.8648(4) 0.0514(4) -0.0375(3)
H23 H 0.9387 0.0561 -0.0252
C28 C 0.7949(4) -0.0135(4) -0.1185(4)
C29 C 0.6842(4) -0.0172(4) -0.1412(4)
C30 C 0.6460(4) 0.0397(4) -0.0773(4)
H24 H 0.5724 0.0366 -0.0900
C31 C 0.7141(4) 0.1007(4) 0.0042(4)
H25 H 0.6858 0.1368 0.0459
C32 C 0.8412(4) -0.0864(4) -0.1752(4)
C33 C 0.6105(4) -0.0775(4) -0.2288(4)
C34 C 0.6305(4) -0.0758(4) -0.3034(4)
H26 H 0.6945 -0.0393 -0.2976
C35 C 0.5585(5) -0.1266(4) -0.3849(4)
H27 H 0.5741 -0.1236 -0.4334
C36 C 0.4626(4) -0.1825(3) -0.3966(3)
C37 C 0.4421(4) -0.1886(4) -0.3240(4)
H28 H 0.3799 -0.2286 -0.3312
C38 C 0.5138(4) -0.1355(4) -0.2403(4)
H29 H 0.4979 -0.1383 -0.1918
C39 C 0.3813(4) -0.2348(3) -0.4852(3)
C40 C 0.7920(4) 0.4079(4) 0.3772(3)
H30 H 0.8453 0.4193 0.4286
C41 C 0.7208(4) 0.4635(4) 0.3821(4)
H31 H 0.7287 0.5125 0.4350
C42 C 0.6356(4) 0.4463(4) 0.3072(4)
C43 C 0.6299(4) 0.3703(4) 0.2324(4)
H32 H 0.5738 0.3536 0.1811
C44 C 0.7065(4) 0.3195(4) 0.2338(4)
H33 H 0.6999 0.2686 0.1826
C45 C 0.5612(4) 0.5084(4) 0.3100(4)
C46 C 0.5930(4) 0.5999(4) 0.3704(4)
H34 H 0.6621 0.6228 0.4103
C47 C 0.5236(4) 0.6560(4) 0.3713(4)
H35 H 0.5474 0.7168 0.4130
C48 C 0.3904(5) 0.5419(4) 0.2577(4)
H36 H 0.3209 0.5216 0.2186
C49 C 0.4547(4) 0.4790(4) 0.2521(4)
H37 H 0.4282 0.4182 0.2109
C50 C 1.2679(4) 0.4438(4) 0.3821(4)
H38 H 1.2073 0.4675 0.3722
C51 C 1.3603(4) 0.5017(4) 0.4453(4)
H39 H 1.3618 0.5636 0.4751
C52 C 1.4496(4) 0.4702(3) 0.4649(4)
C53 C 1.4428(5) 0.3787(4) 0.4148(4)
H40 H 1.5024 0.3538 0.4247
C54 C 1.3486(5) 0.3240(4) 0.3505(5)
H41 H 1.3470 0.2628 0.3176
C55 C 0.8311(5) 0.3354(4) 0.0136(4)
H42 H 0.8187 0.2716 -0.0095
N5A N 1.7399(3) 0.6460(3) 0.6668(3)
C50A C 1.7321(4) 0.5562(4) 0.6179(4)
H38A H 1.7927 0.5325 0.6278
C51A C 1.6397(4) 0.4983(4) 0.5547(4)
H39A H 1.6382 0.4364 0.5249
C52A C 1.5504(4) 0.5298(3) 0.5351(4)
C53A C 1.5572(5) 0.6213(4) 0.5852(4)
H40A H 1.4976 0.6462 0.5753
C54A C 1.6514(5) 0.6760(4) 0.6495(5)
H41A H 1.6530 0.7372 0.6824
Ni1A Ni 0.08070(5) -0.27195(4) -0.30179(4)
Ni2A Ni -0.12297(5) -0.27285(4) -0.22965(4)
Ni3A Ni 0.67283(5) 0.27267(4) -0.32222(4)
O1A O -0.0287(3) -0.3699(2) -0.2754(2)
O2A O -0.0977(3) -0.4684(2) -0.2303(2)
O3A O -0.0143(3) -0.6561(2) -0.5643(2)
O4A O 0.1266(3) -0.7169(3) -0.5339(3)
O5A O 0.1676(6) -0.2475(4) 0.1613(3)
O6A O 0.2617(3) -0.3419(2) 0.1898(2)
O7A O 0.1439(3) -0.2081(2) -0.1711(2)
O8A O 0.0026(3) -0.1929(2) -0.1203(2)
O9A O 0.0841(3) 0.0597(3) 0.2017(3)
O10A O 0.1979(3) 0.1677(2) 0.1911(2)
O11A O 0.6926(3) 0.2993(3) 0.4970(2)
O12A O 0.6071(3) 0.2095(2) 0.5439(2)
O13A O -0.0546(3) -0.2166(2) -0.2999(2)
H1A H -0.0256 -0.1595 -0.2683
H2A H -0.0938 -0.2314 -0.3533
O14A O -0.1813(3) -0.3290(3) -0.1536(3)
H3A H -0.1557 -0.3733 -0.1548
H4A H -0.1263 -0.2884 -0.1433
O15A O 0.8022(3) 0.3447(2) -0.3369(2)
H5A H 0.8186 0.3983 -0.3003
H6A H 0.7711 0.3361 -0.3894
O16A O 0.7603(4) 0.1687(3) -0.3306(3)
H7A H 0.8000 0.1921 -0.2776
H8A H 0.7161 0.1808 -0.3672
N1A N 0.1663(3) -0.1585(3) -0.3109(3)
N2A N 0.5472(4) 0.1841(3) -0.3176(3)
N3A N 0.2093(3) -0.3392(3) -0.3048(3)
N4A N 0.5782(3) -0.6294(3) -0.3154(3)
C1A C -0.0324(4) -0.4425(3) -0.2627(3)
C2A C 0.0367(4) -0.5083(3) -0.2945(3)
C3A C 0.0223(4) -0.5511(3) -0.3831(3)
H9A H -0.0213 -0.5326 -0.4214
C4A C 0.0735(4) -0.6227(4) -0.4154(3)
C5A C 0.1396(4) -0.6480(4) -0.3566(4)
H10A H 0.1736 -0.6955 -0.3772
C6A C 0.1549(5) -0.6038(4) -0.2690(4)
H11A H 0.1996 -0.6221 -0.2311
C7A C 0.1060(4) -0.5321(4) -0.2344(3)
C8A C 0.1286(4) -0.4804(4) -0.1392(4)
C9A C 0.1289(5) -0.5229(4) -0.0826(4)
H12A H 0.1128 -0.5868 -0.1055
C10A C 0.1527(5) -0.4723(4) 0.0069(4)
H13A H 0.1559 -0.5023 0.0435
C11A C 0.1719(5) -0.3767(4) 0.0421(4)
C12A C 0.1483(4) -0.3836(4) -0.1020(4)
H14A H 0.1473 -0.3523 -0.1374
C13A C 0.0616(4) -0.6689(4) -0.5122(3)
C14A C 0.2007(6) -0.3182(5) 0.1385(4)
C15A C 0.2230(6) -0.0824(4) -0.2393(5)
H15A H 0.2166 -0.0786 -0.1859
C16A C 0.2887(6) -0.0106(4) -0.2377(4)
H16A H 0.3264 0.0397 -0.1852
C17A C 0.2986(5) -0.0138(4) -0.3170(4)
C18A C 0.2365(5) -0.0890(4) -0.3920(4)
H17A H 0.2375 -0.0926 -0.4466
C19A C 0.1732(5) -0.1585(4) -0.3858(4)
H18A H 0.1324 -0.2087 -0.4375
C20A C 0.3798(5) 0.0580(4) -0.3181(4)
C21A C 0.4227(6) 0.1457(5) -0.2500(5)
H19A H 0.3968 0.1639 -0.2022
C22A C 0.5032(6) 0.2048(5) -0.2537(5)
H20A H 0.5286 0.2634 -0.2081
C23A C 0.5067(5) 0.1020(4) -0.3828(4)
H21A H 0.5345 0.0864 -0.4295
C24A C 0.4243(5) 0.0370(4) -0.3857(4)
H22A H 0.3994 -0.0205 -0.4330
C25A C 0.1010(4) -0.1757(3) -0.1120(3)
C26A C 0.1744(4) -0.1086(3) -0.0245(3)
C27A C 0.1352(4) -0.0514(4) 0.0375(3)
H23A H 0.0613 -0.0561 0.0252
C28A C 0.2051(4) 0.0135(4) 0.1185(4)
C29A C 0.3158(4) 0.0172(4) 0.1412(4)
C30A C 0.3540(4) -0.0397(4) 0.0773(4)
H24A H 0.4276 -0.0366 0.0900
C31A C 0.2859(4) -0.1007(4) -0.0042(4)
H25A H 0.3142 -0.1368 -0.0459
C32A C 0.1588(4) 0.0864(4) 0.1752(4)
C33A C 0.3895(4) 0.0775(4) 0.2288(4)
C34A C 0.3695(4) 0.0758(4) 0.3034(4)
H26A H 0.3055 0.0393 0.2976
C35A C 0.4415(5) 0.1266(4) 0.3849(4)
H27A H 0.4259 0.1236 0.4334
C36A C 0.5374(4) 0.1825(3) 0.3966(3)
C37A C 0.5579(4) 0.1886(4) 0.3240(4)
H28A H 0.6201 0.2286 0.3312
C38A C 0.4862(4) 0.1355(4) 0.2403(4)
H29A H 0.5021 0.1383 0.1918
C39A C 0.6187(4) 0.2348(3) 0.4852(3)
C40A C 0.2080(4) -0.4079(4) -0.3772(3)
H30A H 0.1547 -0.4193 -0.4286
C41A C 0.2792(4) -0.4635(4) -0.3821(4)
H31A H 0.2713 -0.5125 -0.4350
C42A C 0.3644(4) -0.4463(4) -0.3072(4)
C43A C 0.3701(4) -0.3703(4) -0.2324(4)
H32A H 0.4262 -0.3536 -0.1811
C44A C 0.2935(4) -0.3195(4) -0.2338(4)
H33A H 0.3001 -0.2686 -0.1826
C45A C 0.4388(4) -0.5084(4) -0.3100(4)
C46A C 0.4070(4) -0.5999(4) -0.3704(4)
H34A H 0.3379 -0.6228 -0.4103
C47A C 0.4764(4) -0.6560(4) -0.3713(4)
H35A H 0.4526 -0.7168 -0.4130
C48A C 0.6096(5) -0.5419(4) -0.2577(4)
H36A H 0.6791 -0.5216 -0.2186
C49A C 0.5453(4) -0.4790(4) -0.2521(4)
H37A H 0.5718 -0.4182 -0.2109
C55A C 0.1689(5) -0.3354(4) -0.0136(4)
H42A H 0.1813 -0.2716 0.0095
Ni1_2 Ni -0.08070(5) -0.72805(4) -0.69821(4)
Ni1A_2 Ni 1.08070(5) 0.72805(4) 0.69821(4)
Ni2_2 Ni 0.12297(5) 0.27285(4) 0.22965(4)
Ni2A_2 Ni 0.87703(5) -0.27285(4) -0.22965(4)
Ni2A_3 Ni 1.87703(5) 0.72715(4) 0.77035(4)
Ni3_2 Ni 0.32717(5) -0.27267(4) -0.67778(4)
Ni3_3 Ni 0.32717(5) 0.72733(4) 0.32222(4)
Ni3A_2 Ni 0.67283(5) -0.72733(4) -0.32222(4)
Ni3A_3 Ni 0.67283(5) 0.27267(4) 0.67778(4)
O3_2 O 0.0143(3) -0.3439(2) -0.4357(2)
O3A_2 O 0.9857(3) 0.3439(2) 0.4357(2)
O10_2 O -0.1979(3) -0.1677(2) -0.1911(2)
O10A_2 O 1.1979(3) 0.1677(2) 0.1911(2)
O12_2 O 0.3929(3) -0.2095(2) 0.4561(2)
O12A_2 O 0.6071(3) 0.2095(2) -0.4561(2)
N4_2 N 0.4218(3) -0.3706(3) 0.3154(3)
N4A_2 N 0.5782(3) 0.3706(3) -0.3154(3)
N5A_2 N -0.2601(3) -0.3540(3) -0.3332(3)
O17 O 0.0692(8) 0.2608(8) 0.9639(6)
H43 H 0.1016 0.2792 1.0182
H44 H 0.0076 0.2566 0.9509
O18 O 0.0721(13) 0.8078(13) 0.3952(11)
H45 H 0.1061 0.7659 0.3792
H46 H 0.1238 0.8159 0.3755
O19 O 0.0348(18) 0.1147(10) 0.8406(11)
H47 H -0.0013 0.0616 0.8277
H48 H 0.0663 0.1664 0.8837
loop_
_geom_bond_atom_site_label_1
_geom_bond_atom_site_label_2
_geom_bond_site_symmetry_1
_geom_bond_site_symmetry_2
Ni1 O1 1_555 1_555
Ni2 O1 1_555 1_555
Ni3 O15 1_555 1_555
O1 C1 1_555 1_555
O2 C1 1_555 1_555
O3 C13 1_555 1_555
O4 C13 1_555 1_555
O5 C14 1_555 1_555
O6 C14 1_555 1_555
O7 Ni1 1_555 1_555
O8 Ni2 1_555 1_555
O9 C32 1_555 1_555
O10 C32 1_555 1_555
O11 C39 1_555 1_555
O12 C39 1_555 1_555
O13 Ni1 1_555 1_555
H1 O13 1_555 1_555
H2 O13 1_555 1_555
O14 Ni2 1_555 1_555
H3 O14 1_555 1_555
H4 O14 1_555 1_555
O15 H5 1_555 1_555
H6 O15 1_555 1_555
O16 Ni3 1_555 1_555
H7 O16 1_555 1_555
H8 O16 1_555 1_555
N1 Ni1 1_555 1_555
N2 Ni3 1_555 1_555
N3 Ni1 1_555 1_555
N4 C47 1_555 1_555
N5 Ni2 1_555 1_555
C1 C2 1_555 1_555
C2 C3 1_555 1_555
C3 H9 1_555 1_555
C4 C3 1_555 1_555
C5 C4 1_555 1_555
H10 C5 1_555 1_555
C6 C5 1_555 1_555
H11 C6 1_555 1_555
C7 C2 1_555 1_555
C8 C7 1_555 1_555
C9 C8 1_555 1_555
H12 C9 1_555 1_555
C10 C9 1_555 1_555
H13 C10 1_555 1_555
C11 C10 1_555 1_555
C12 C8 1_555 1_555
H14 C12 1_555 1_555
C13 C4 1_555 1_555
C14 C11 1_555 1_555
C15 N1 1_555 1_555
H15 C15 1_555 1_555
C16 C15 1_555 1_555
H16 C16 1_555 1_555
C17 C16 1_555 1_555
C18 C17 1_555 1_555
H17 C18 1_555 1_555
C19 N1 1_555 1_555
H18 C19 1_555 1_555
C20 C17 1_555 1_555
C21 C20 1_555 1_555
H19 C21 1_555 1_555
C22 N2 1_555 1_555
H20 C22 1_555 1_555
C23 N2 1_555 1_555
H21 C23 1_555 1_555
C24 C20 1_555 1_555
H22 C24 1_555 1_555
C25 O7 1_555 1_555
C26 C25 1_555 1_555
C27 C26 1_555 1_555
H23 C27 1_555 1_555
C28 C27 1_555 1_555
C29 C28 1_555 1_555
C30 C29 1_555 1_555
H24 C30 1_555 1_555
C31 C26 1_555 1_555
H25 C31 1_555 1_555
C32 C28 1_555 1_555
C33 C29 1_555 1_555
C34 C33 1_555 1_555
H26 C34 1_555 1_555
C35 C34 1_555 1_555
H27 C35 1_555 1_555
C36 C35 1_555 1_555
C37 C36 1_555 1_555
H28 C37 1_555 1_555
C38 C33 1_555 1_555
H29 C38 1_555 1_555
C39 C36 1_555 1_555
C40 N3 1_555 1_555
H30 C40 1_555 1_555
C41 C40 1_555 1_555
H31 C41 1_555 1_555
C42 C41 1_555 1_555
C43 C42 1_555 1_555
H32 C43 1_555 1_555
C44 N3 1_555 1_555
H33 C44 1_555 1_555
C45 C42 1_555 1_555
C46 C45 1_555 1_555
H34 C46 1_555 1_555
C47 C46 1_555 1_555
H35 C47 1_555 1_555
C48 N4 1_555 1_555
H36 C48 1_555 1_555
C49 C45 1_555 1_555
H37 C49 1_555 1_555
C50 N5 1_555 1_555
H38 C50 1_555 1_555
C51 C50 1_555 1_555
H39 C51 1_555 1_555
C52 C51 1_555 1_555
C53 C52 1_555 1_555
H40 C53 1_555 1_555
C54 N5 1_555 1_555
H41 C54 1_555 1_555
C55 C11 1_555 1_555
H42 C55 1_555 1_555
O17 H43 1_555 1_555
H44 O17 1_555 1_555
O18 H45 1_555 1_555
H46 O18 1_555 1_555
O19 H47 1_555 1_555
H48 O19 1_555 1_555
N5A C50A 1_555 1_555
C50A H38A 1_555 1_555
C51A C50A 1_555 1_555
H39A C51A 1_555 1_555
C52A C52 1_555 1_555
C53A C52A 1_555 1_555
H40A C53A 1_555 1_555
C54A N5A 1_555 1_555
H41A C54A 1_555 1_555
Ni1A O1A 1_555 1_555
Ni2A O1A 1_555 1_555
Ni3A O6 1_555 1_555
O1A C1A 1_555 1_555
O2A C1A 1_555 1_555
O3A C13A 1_555 1_555
O4A C13A 1_555 1_555
O5A C14A 1_555 1_555
O6A Ni3 1_555 1_555
O7A Ni1A 1_555 1_555
O8A Ni2A 1_555 1_555
O9A C32A 1_555 1_555
O10A C32A 1_555 1_555
O11A C39A 1_555 1_555
O12A C39A 1_555 1_555
O13A Ni1A 1_555 1_555
H1A O13A 1_555 1_555
H2A O13A 1_555 1_555
O14A Ni2A 1_555 1_555
H3A O14A 1_555 1_555
H4A O14A 1_555 1_555
O15A Ni3A 1_555 1_555
H5A O15A 1_555 1_555
H6A O15A 1_555 1_555
O16A Ni3A 1_555 1_555
H7A O16A 1_555 1_555
H8A O16A 1_555 1_555
N1A Ni1A 1_555 1_555
N2A Ni3A 1_555 1_555
N3A Ni1A 1_555 1_555
N4A C47A 1_555 1_555
C1A C2A 1_555 1_555
C2A C3A 1_555 1_555
C3A H9A 1_555 1_555
C4A C3A 1_555 1_555
C5A C4A 1_555 1_555
H10A C5A 1_555 1_555
C6A C5A 1_555 1_555
H11A C6A 1_555 1_555
C7A C2A 1_555 1_555
C8A C7A 1_555 1_555
C9A C8A 1_555 1_555
H12A C9A 1_555 1_555
C10A C9A 1_555 1_555
H13A C10A 1_555 1_555
C11A C10A 1_555 1_555
C12A C8A 1_555 1_555
H14A C12A 1_555 1_555
C13A C4A 1_555 1_555
C14A O6A 1_555 1_555
C15A N1A 1_555 1_555
H15A C15A 1_555 1_555
C16A C15A 1_555 1_555
H16A C16A 1_555 1_555
C17A C16A 1_555 1_555
C18A C17A 1_555 1_555
H17A C18A 1_555 1_555
C19A N1A 1_555 1_555
H18A C19A 1_555 1_555
C20A C17A 1_555 1_555
C21A C20A 1_555 1_555
H19A C21A 1_555 1_555
C22A N2A 1_555 1_555
H20A C22A 1_555 1_555
C23A N2A 1_555 1_555
H21A C23A 1_555 1_555
C24A C20A 1_555 1_555
H22A C24A 1_555 1_555
C25A O7A 1_555 1_555
C26A C25A 1_555 1_555
C27A C26A 1_555 1_555
H23A C27A 1_555 1_555
C28A C27A 1_555 1_555
C29A C28A 1_555 1_555
C30A C29A 1_555 1_555
H24A C30A 1_555 1_555
C31A C26A 1_555 1_555
H25A C31A 1_555 1_555
C32A C28A 1_555 1_555
C33A C29A 1_555 1_555
C34A C33A 1_555 1_555
H26A C34A 1_555 1_555
C35A C34A 1_555 1_555
H27A C35A 1_555 1_555
C36A C35A 1_555 1_555
C37A C36A 1_555 1_555
H28A C37A 1_555 1_555
C38A C33A 1_555 1_555
H29A C38A 1_555 1_555
C39A C36A 1_555 1_555
C40A N3A 1_555 1_555
H30A C40A 1_555 1_555
C41A C40A 1_555 1_555
H31A C41A 1_555 1_555
C42A C41A 1_555 1_555
C43A C42A 1_555 1_555
H32A C43A 1_555 1_555
C44A N3A 1_555 1_555
H33A C44A 1_555 1_555
C45A C42A 1_555 1_555
C46A C45A 1_555 1_555
H34A C46A 1_555 1_555
C47A C46A 1_555 1_555
H35A C47A 1_555 1_555
C48A N4A 1_555 1_555
H36A C48A 1_555 1_555
C49A C45A 1_555 1_555
H37A C49A 1_555 1_555
C55A C11A 1_555 1_555
H42A C55A 1_555 1_555
Ni1_2 O3A 1_555 1_555
Ni1A_2 O3 1_555 1_555
Ni2_2 O10A 1_555 1_555
Ni2A_2 O10 1_555 1_555
Ni2A_3 N5A 1_555 1_555
Ni3_2 O12 1_555 1_555
Ni3_3 N4 1_555 1_555
Ni3A_2 N4A 1_555 1_555
Ni3A_3 O12A 1_555 1_555
O3_2 Ni1A 1_555 1_555
O3A_2 Ni1 1_555 1_555
O10_2 Ni2A 1_555 1_555
O10A_2 Ni2 1_555 1_555
O12_2 Ni3 1_555 1_555
O12A_2 Ni3A 1_555 1_555
N4_2 Ni3 1_555 1_555
N4A_2 Ni3A 1_555 1_555
N5A_2 Ni2A 1_555 1_555
Ni2 O13 1_555 1_555
O8 C25 1_555 1_555
C6 C7 1_555 1_555
C12 C55 1_555 1_555
C18 C19 1_555 1_555
C21 C22 1_555 1_555
C23 C24 1_555 1_555
C30 C31 1_555 1_555
C37 C38 1_555 1_555
C43 C44 1_555 1_555
C48 C49 1_555 1_555
C53 C54 1_555 1_555
C51A C52A 1_555 1_555
C53A C54A 1_555 1_555
Ni2A O13A 1_555 1_555
O8A C25A 1_555 1_555
C6A C7A 1_555 1_555
C11A C14A 1_555 1_555
C12A C55A 1_555 1_555
C18A C19A 1_555 1_555
C21A C22A 1_555 1_555
C23A C24A 1_555 1_555
C30A C31A 1_555 1_555
C37A C38A 1_555 1_555
C43A C44A 1_555 1_555
C48A C49A 1_555 1_555

#END
