
#######################################################################
#
#                 Cambridge Crystallographic Data Centre
#                                CCDC 
#
#######################################################################
#
# If this CIF has been generated from an entry in the Cambridge 
# Structural Database, then it will include bibliographic, chemical, 
# crystal, experimental, refinement or atomic coordinate data resulting 
# from the CCDC's data processing and validation procedures.
#
#######################################################################

data_QIRWAR
_symmetry_cell_setting           monoclinic
_symmetry_space_group_name_H-M   'P 21/c'
_symmetry_Int_Tables_number      14
_space_group_name_Hall           '-P 2ybc'
loop_
_symmetry_equiv_pos_site_id
_symmetry_equiv_pos_as_xyz
1 x,y,z
2 -x,1/2+y,1/2-z
3 -x,-y,-z
4 x,1/2-y,1/2+z
_cell_length_a                   14.745(3)
_cell_length_b                   11.024(2)
_cell_length_c                   13.287(3)
_cell_angle_alpha                90
_cell_angle_beta                 97.27(3)
_cell_angle_gamma                90
_cell_volume                     2142.42
loop_
_atom_site_label
_atom_site_type_symbol
_atom_site_fract_x
_atom_site_fract_y
_atom_site_fract_z
Cu1 Cu 0.01470(3) 0.28742(4) 0.23314(4)
Cu2 Cu 0.31441(3) 0.19730(4) 0.23652(3)
Cu3 Cu 0.5000 0.5000 0.0000
O1 O -0.05700(19) 0.1387(3) 0.2119(2)
O2 O -0.07909(18) -0.0567(2) 0.2392(2)
O3 O 0.12790(18) 0.2097(3) 0.2199(2)
O4 O 0.0016(3) 0.2729(4) 0.4131(3)
O5 O 0.0997(3) 0.1275(3) 0.4443(3)
O6 O 0.0014(2) 0.1635(3) 0.5490(2)
O7 O 0.4386(2) 0.0817(3) 0.2138(2)
O8 O 0.3862(2) 0.3461(3) 0.2308(2)
O9 O 0.4502(2) 0.4659(3) 0.1273(2)
O10 O 0.3989(2) 0.4225(3) -0.0802(2)
O11 O 0.4261(2) 0.6982(3) -0.0178(3)
N1 N 0.2298(2) 0.0578(3) 0.2420(2)
N2 N 0.0949(2) -0.1087(3) 0.2622(2)
N3 N 0.0344(3) 0.1873(4) 0.4699(3)
N4 N 0.3010(2) 0.2150(3) 0.0836(2)
N5 N 0.3049(2) 0.2645(3) -0.1182(2)
C1 C 0.1410(2) 0.0961(3) 0.2339(3)
C2 C 0.0732(3) 0.0069(4) 0.2428(3)
C3 C -0.0269(3) 0.0335(3) 0.2309(3)
C4 C 0.1825(3) -0.1432(4) 0.2726(3)
H1 H 0.1984 -0.2254 0.2873
C5 C 0.2501(3) -0.0585(4) 0.2618(3)
H2 H 0.3122 -0.0837 0.2687
C6 C 0.3538(3) 0.3358(4) -0.0477(3)
C7 C 0.3505(3) 0.3081(4) 0.0566(3)
C8 C 0.3992(3) 0.3788(4) 0.1431(3)
C9 C 0.2532(3) 0.1465(4) 0.0129(3)
H3 H 0.2177 0.0805 0.0321
C10 C 0.2558(3) 0.1722(4) -0.0882(3)
H4 H 0.2217 0.1230 -0.1381
H5 H 0.464(4) 0.048(6) 0.256(5)
H6 H 0.376(6) 0.693(7) 0.001(6)
H7 H 0.435(4) 0.034(4) 0.169(3)
H8 H 0.420(5) 0.708(6) -0.079(5)
Cu1B Cu 0.98530(3) 0.71258(4) -0.23314(4)
Cu2B Cu 0.68559(3) 0.80270(4) -0.23652(3)
O1B O 1.05700(19) 0.8613(3) -0.2119(2)
O2B O 1.07909(18) 1.0567(2) -0.2392(2)
O3B O 0.87210(18) 0.7903(3) -0.2199(2)
O4B O 0.9984(3) 0.7271(4) -0.4131(3)
O5B O 0.9003(3) 0.8725(3) -0.4443(3)
O6B O 0.9986(2) 0.8365(3) -0.5490(2)
O7B O 0.5614(2) 0.9183(3) -0.2138(2)
O8B O 0.6138(2) 0.6539(3) -0.2308(2)
O9B O 0.5498(2) 0.5341(3) -0.1273(2)
O10B O 0.6011(2) 0.5775(3) 0.0802(2)
O11B O 0.5739(2) 0.3018(3) 0.0178(3)
N1B N 0.7702(2) 0.9422(3) -0.2420(2)
N2B N 0.9051(2) 1.1087(3) -0.2622(2)
N3B N 0.9656(3) 0.8127(4) -0.4699(3)
N4B N 0.6990(2) 0.7850(3) -0.0836(2)
N5B N 0.6951(2) 0.7355(3) 0.1182(2)
C1B C 0.8590(2) 0.9039(3) -0.2339(3)
C2B C 0.9268(3) 0.9931(4) -0.2428(3)
C3B C 1.0269(3) 0.9665(3) -0.2309(3)
C4B C 0.8175(3) 1.1432(4) -0.2726(3)
H1B H 0.8016 1.2254 -0.2873
C5B C 0.7499(3) 1.0585(4) -0.2618(3)
H2B H 0.6878 1.0837 -0.2687
C6B C 0.6462(3) 0.6642(4) 0.0477(3)
C7B C 0.6495(3) 0.6919(4) -0.0566(3)
C8B C 0.6008(3) 0.6212(4) -0.1431(3)
C9B C 0.7468(3) 0.8535(4) -0.0129(3)
H3B H 0.7823 0.9195 -0.0321
C10B C 0.7442(3) 0.8278(4) 0.0882(3)
H4B H 0.7783 0.8770 0.1381
H5B H 0.536(4) 0.952(6) -0.256(5)
H6B H 0.624(6) 0.307(7) -0.001(6)
H7B H 0.565(4) 0.966(4) -0.169(3)
H8B H 0.580(5) 0.292(6) 0.079(5)
Cu1A Cu -0.01470(3) -0.21258(4) 0.26686(4)
Cu1A_2 Cu 0.98530(3) 0.78742(4) -0.73314(4)
Cu1C Cu 0.01470(3) 0.21258(4) 0.73314(4)
Cu1C_2 Cu 1.01470(3) 1.21258(4) -0.26686(4)
Cu2A Cu 0.68559(3) 0.69730(4) 0.26348(3)
Cu2C Cu 0.31441(3) 0.30270(4) -0.26348(3)
O2A O 0.07909(18) 0.4433(2) 0.2608(2)
O2C O 0.92091(18) 0.5567(2) -0.2608(2)
O6A O 0.9986(2) 0.6635(3) -0.0490(2)
O6C O 0.0014(2) 0.3365(3) 0.0490(2)
N2A N -0.0949(2) 0.3913(3) 0.2378(2)
N2C N 1.0949(2) 0.6087(3) -0.2378(2)
N5A N 0.6951(2) 0.7645(3) -0.3818(2)
N5C N 0.3049(2) 0.2355(3) 0.3818(2)
O12 O 0.8500(3) 0.3753(4) 0.4864(3)
H9 H 0.864(5) 0.375(7) 0.547(6)
H10 H 0.905(6) 0.349(8) 0.473(6)
O13 O 0.2005(3) 0.0107(4) 0.6087(3)
H11 H 0.162(5) 0.038(6) 0.564(5)
H12 H 0.181(4) 0.027(6) 0.661(3)
O14 O 0.3988(3) 0.7677(4) 0.7782(3)
H13 H 0.374(7) 0.770(11) 0.720(3)
H14 H 0.438(5) 0.815(7) 0.782(5)
O15 O 0.7168(2) 0.2948(4) 0.9078(3)
H15 H 0.742(4) 0.361(6) 0.898(4)
H16 H 0.759(5) 0.237(7) 0.935(5)
O16 O 0.5039(5) 0.4046(6) 0.4099(5)
O17? O 0.5780(6) 0.4475(7) 0.4597(5)
loop_
_geom_bond_atom_site_label_1
_geom_bond_atom_site_label_2
_geom_bond_site_symmetry_1
_geom_bond_site_symmetry_2
Cu1 O1 1_555 1_555
Cu2 O3 1_555 1_555
Cu3 O9 1_555 1_555
O1 C3 1_555 1_555
O2 C3 1_555 1_555
O3 Cu1 1_555 1_555
O4 Cu1 1_555 1_555
O5 N3 1_555 1_555
O6 N3 1_555 1_555
O7 Cu2 1_555 1_555
O8 Cu2 1_555 1_555
O9 C8 1_555 1_555
O10 Cu3 1_555 1_555
O11 Cu3 1_555 1_555
N1 Cu2 1_555 1_555
N2 C2 1_555 1_555
N3 O4 1_555 1_555
N4 Cu2 1_555 1_555
N5 C6 1_555 1_555
C1 O3 1_555 1_555
C2 C1 1_555 1_555
C3 C2 1_555 1_555
C4 N2 1_555 1_555
H1 C4 1_555 1_555
C5 N1 1_555 1_555
H2 C5 1_555 1_555
C6 O10 1_555 1_555
C7 N4 1_555 1_555
C8 O8 1_555 1_555
C9 N4 1_555 1_555
H3 C9 1_555 1_555
C10 N5 1_555 1_555
H4 C10 1_555 1_555
H5 O7 1_555 1_555
H6 O11 1_555 1_555
H7 O7 1_555 1_555
H8 O11 1_555 1_555
O12 H9 1_555 1_555
H10 O12 1_555 1_555
O13 H11 1_555 1_555
H12 O13 1_555 1_555
O14 H13 1_555 1_555
H14 O14 1_555 1_555
O15 H15 1_555 1_555
H16 O15 1_555 1_555
Cu1B O1B 1_555 1_555
Cu2B O3B 1_555 1_555
O1B C3B 1_555 1_555
O2B C3B 1_555 1_555
O3B Cu1B 1_555 1_555
O4B Cu1B 1_555 1_555
O5B N3B 1_555 1_555
O6B N3B 1_555 1_555
O7B Cu2B 1_555 1_555
O8B Cu2B 1_555 1_555
O9B Cu3 1_555 1_555
O10B Cu3 1_555 1_555
O11B Cu3 1_555 1_555
N1B Cu2B 1_555 1_555
N2B C2B 1_555 1_555
N3B O4B 1_555 1_555
N4B Cu2B 1_555 1_555
N5B C6B 1_555 1_555
C1B O3B 1_555 1_555
C2B C1B 1_555 1_555
C3B C2B 1_555 1_555
C4B N2B 1_555 1_555
H1B C4B 1_555 1_555
C5B N1B 1_555 1_555
H2B C5B 1_555 1_555
C6B O10B 1_555 1_555
C7B N4B 1_555 1_555
C8B O8B 1_555 1_555
C9B N4B 1_555 1_555
H3B C9B 1_555 1_555
C10B N5B 1_555 1_555
H4B C10B 1_555 1_555
H5B O7B 1_555 1_555
H6B O11B 1_555 1_555
H7B O7B 1_555 1_555
H8B O11B 1_555 1_555
Cu1A O2 1_555 1_555
Cu1A_2 O6B 1_555 1_555
Cu1C O6 1_555 1_555
Cu1C_2 O2B 1_555 1_555
Cu2A N5B 1_555 1_555
Cu2C N5 1_555 1_555
O2A Cu1 1_555 1_555
O2C Cu1B 1_555 1_555
O6A Cu1B 1_555 1_555
O6C Cu1 1_555 1_555
N2A Cu1 1_555 1_555
N2C Cu1B 1_555 1_555
N5A Cu2B 1_555 1_555
N5C Cu2 1_555 1_555
N1 C1 1_555 1_555
N2 Cu1A 1_555 1_555
C4 C5 1_555 1_555
C6 C7 1_555 1_555
C7 C8 1_555 1_555
C9 C10 1_555 1_555
O9B C8B 1_555 1_555
N1B C1B 1_555 1_555
N2B Cu1C_2 1_555 1_555
C4B C5B 1_555 1_555
C6B C7B 1_555 1_555
C7B C8B 1_555 1_555
C9B C10B 1_555 1_555

#END
