
#######################################################################
#
#                 Cambridge Crystallographic Data Centre
#                                CCDC 
#
#######################################################################
#
# If this CIF has been generated from an entry in the Cambridge 
# Structural Database, then it will include bibliographic, chemical, 
# crystal, experimental, refinement or atomic coordinate data resulting 
# from the CCDC's data processing and validation procedures.
#
#######################################################################

data_QITYOI
_symmetry_cell_setting           triclinic
_symmetry_space_group_name_H-M   'P -1'
_symmetry_Int_Tables_number      2
_space_group_name_Hall           '-P 1'
loop_
_symmetry_equiv_pos_site_id
_symmetry_equiv_pos_as_xyz
1 x,y,z
2 -x,-y,-z
_cell_length_a                   7.8538(5)
_cell_length_b                   11.0219(7)
_cell_length_c                   11.6693(8)
_cell_angle_alpha                108.6740(10)
_cell_angle_beta                 105.8120(10)
_cell_angle_gamma                104.1080(10)
_cell_volume                     857.899
loop_
_atom_site_label
_atom_site_type_symbol
_atom_site_fract_x
_atom_site_fract_y
_atom_site_fract_z
Pr1 Pr 0.27462(6) 0.02108(4) 0.06542(4)
O1 O 0.0682(5) 0.1493(4) 0.0183(3)
O2 O 0.1468(6) -0.0399(4) -0.1765(4)
O3 O 0.5405(7) 0.0235(5) 0.2420(4)
O4 O 0.4101(6) 0.8560(4) -0.0478(3)
O5 O -0.1654(6) -0.0895(4) -0.2431(4)
O6 O 0.4999(6) 0.7284(4) -0.1888(4)
O7 O -0.1561(6) 0.1915(4) -0.1044(4)
C1 C -0.0180(10) -0.0811(6) -0.2656(5)
C2 C 0.1682(9) 0.3366(6) -0.0383(6)
H1 H 0.2308 0.4052 0.0514
H2 H 0.2622 0.3027 -0.0621
C3 C 0.1004(9) 0.4062(5) -0.1265(6)
H3 H -0.0121 0.4228 -0.1176
H4 H 0.0666 0.3459 -0.2171
C4 C -0.0299(9) -0.1149(6) -0.4038(5)
H5 H -0.1543 -0.1827 -0.4642
H6 H 0.0643 -0.1545 -0.4175
C5 C 0.2070(8) 0.6175(5) -0.1767(5)
H7 H 0.1033 0.6468 -0.1661
H8 H 0.1678 0.5565 -0.2679
C7 C 0.0144(9) 0.2186(6) -0.0441(6)
C10 C 0.0037(9) 0.0134(6) -0.4320(5)
H12 H 0.1270 0.0813 -0.3698
H13 H -0.0916 0.0520 -0.4186
C12 C 0.2553(9) 0.5427(6) -0.0905(6)
H14 H 0.2839 0.6031 -0.0008
H15 H 0.3695 0.5254 -0.0938
C14 C 0.3810(9) 0.7410(6) -0.1375(6)
H19 H 0.516(9) -0.034(6) 0.270(6)
H20 H 0.631(18) 0.047(14) 0.221(12)
Pr1A Pr -0.27462(6) -0.02108(4) -0.06542(4)
Pr1_2 Pr 0.27462(6) 1.02108(4) 0.06542(4)
Pr1A_2 Pr 0.72538(6) 0.97892(4) -0.06542(4)
Pr1A_3 Pr -0.27462(6) -0.02108(4) -1.06542(4)
Pr1_3 Pr 0.27462(6) 0.02108(4) -0.93458(4)
Pr1_4 Pr -0.72538(6) -0.97892(4) 0.06542(4)
Pr1A_4 Pr -0.27462(6) -1.02108(4) -0.06542(4)
O1A O -0.0682(5) -0.1493(4) -0.0183(3)
O2A O -0.1468(6) 0.0399(4) -0.8235(4)
O2A_2 O -0.1468(6) 0.0399(4) 0.1765(4)
O3A O -0.5405(7) -0.0235(5) -0.2420(4)
O4A O -0.4101(6) -0.8560(4) 0.0478(3)
O4_2 O 0.4101(6) -0.1440(4) -0.0478(3)
O4A_2 O 0.5899(6) 0.1440(4) 0.0478(3)
O4_3 O -0.5899(6) -0.1440(4) -0.0478(3)
O4A_3 O -0.4101(6) 0.1440(4) 0.0478(3)
O5A O 0.1654(6) 0.0895(4) -0.7569(4)
O5A_2 O 0.1654(6) 0.0895(4) 0.2431(4)
O6A O -0.4999(6) -0.7284(4) 0.1888(4)
O6A_2 O 0.5001(6) 0.2716(4) 0.1888(4)
O6_2 O -0.5001(6) -0.2716(4) -0.1888(4)
O7A O 0.1561(6) -0.1915(4) 0.1044(4)
C1A C 0.0180(10) 0.0811(6) -0.7344(5)
C2A C -0.1682(9) -0.3366(6) 0.0383(6)
H1A H -0.2308 -0.4052 -0.0514
H2A H -0.2622 -0.3027 0.0621
C3A C -0.1004(9) -0.4062(5) 0.1265(6)
H3A H 0.0121 -0.4228 0.1176
H4A H -0.0666 -0.3459 0.2171
C4A C 0.0299(9) 0.1149(6) -0.5962(5)
H5A H 0.1543 0.1827 -0.5358
H6A H -0.0643 0.1545 -0.5825
C5A C -0.2070(8) -0.6175(5) 0.1767(5)
H7A H -0.1033 -0.6468 0.1661
H8A H -0.1678 -0.5565 0.2679
C7A C -0.0144(9) -0.2186(6) 0.0441(6)
C10A C -0.0037(9) -0.0134(6) -0.5680(5)
H12A H -0.1270 -0.0813 -0.6302
H13A H 0.0916 -0.0520 -0.5814
C12A C -0.2553(9) -0.5427(6) 0.0905(6)
H14A H -0.2839 -0.6031 0.0008
H15A H -0.3695 -0.5254 0.0938
C14A C -0.3810(9) -0.7410(6) 0.1375(6)
H19A H -0.516(9) 0.034(6) -0.270(6)
H20A H -0.631(18) -0.047(14) -0.221(12)
N1 N 0.5279(8) 0.1755(6) 0.6620(5)
C6 C 0.5216(10) 0.3999(7) 0.6913(6)
H9 H 0.4968 0.4754 0.7369
C8 C 0.6212(10) 0.2850(7) 0.5302(7)
H10 H 0.6651 0.2810 0.4632
C9 C 0.4958(11) 0.2862(8) 0.7228(6)
H11 H 0.4537 0.2887 0.7904
C11 C 0.5838(10) 0.3983(6) 0.5924(6)
C13 C 0.5933(11) 0.1771(7) 0.5673(7)
H16 H 0.6212 0.1019 0.5247
C15 C 0.5941(10) 0.5118(7) 0.5471(7)
H17 H 0.6857 0.5171 0.5057
H18 H 0.6371 0.5987 0.6220
N1A N 0.4721(8) 0.8245(6) 0.3380(5)
C6A C 0.4784(10) 0.6001(7) 0.3087(6)
H9A H 0.5032 0.5246 0.2631
C8A C 0.3788(10) 0.7150(7) 0.4698(7)
H10A H 0.3349 0.7190 0.5368
C9A C 0.5042(11) 0.7138(8) 0.2772(6)
H11A H 0.5463 0.7113 0.2096
C11A C 0.4162(10) 0.6017(6) 0.4076(6)
C13A C 0.4067(11) 0.8229(7) 0.4327(7)
H16A H 0.3788 0.8981 0.4753
C15A C 0.4059(10) 0.4882(7) 0.4529(7)
H17A H 0.3143 0.4829 0.4943
H18A H 0.3629 0.4013 0.3780
loop_
_geom_bond_atom_site_label_1
_geom_bond_atom_site_label_2
_geom_bond_site_symmetry_1
_geom_bond_site_symmetry_2
Pr1 O1 1_555 1_555
O1 C7 1_555 1_555
O2 Pr1 1_555 1_555
O3 Pr1 1_555 1_555
O4 C14 1_555 1_555
O5 C1 1_555 1_555
O6 C14 1_555 1_555
O7 C7 1_555 1_555
C1 O2 1_555 1_555
C2 H1 1_555 1_555
H2 C2 1_555 1_555
C3 C2 1_555 1_555
H3 C3 1_555 1_555
H4 C3 1_555 1_555
C4 C1 1_555 1_555
H5 C4 1_555 1_555
H6 C4 1_555 1_555
N1 C9 1_555 1_555
C5 H7 1_555 1_555
H8 C5 1_555 1_555
C6 H9 1_555 1_555
C7 C2 1_555 1_555
C8 H10 1_555 1_555
C9 C6 1_555 1_555
H11 C9 1_555 1_555
C10 C4 1_555 1_555
H12 C10 1_555 1_555
H13 C10 1_555 1_555
C11 C6 1_555 1_555
C12 C3 1_555 1_555
H14 C12 1_555 1_555
H15 C12 1_555 1_555
C13 N1 1_555 1_555
H16 C13 1_555 1_555
C14 C5 1_555 1_555
C15 C11 1_555 1_555
H17 C15 1_555 1_555
H18 C15 1_555 1_555
H19 O3 1_555 1_555
H20 O3 1_555 1_555
Pr1A O1 1_555 1_555
Pr1_2 O4 1_555 1_555
Pr1A_2 O4 1_555 1_555
Pr1A_3 O2A 1_555 1_555
Pr1_3 O5A 1_555 1_555
Pr1_4 O4A 1_555 1_555
Pr1A_4 O4A 1_555 1_555
O1A Pr1 1_555 1_555
O2A C1A 1_555 1_555
O2A_2 Pr1A 1_555 1_555
O3A Pr1A 1_555 1_555
O4A C14A 1_555 1_555
O4_2 Pr1 1_555 1_555
O4A_2 Pr1 1_555 1_555
O4_3 Pr1A 1_555 1_555
O4A_3 Pr1A 1_555 1_555
O5A C1A 1_555 1_555
O5A_2 Pr1 1_555 1_555
O6A Pr1_4 1_555 1_555
O6A_2 Pr1 1_555 1_555
O6_2 Pr1A 1_555 1_555
O7A Pr1 1_555 1_555
C1A C4A 1_555 1_555
C2A H1A 1_555 1_555
H2A C2A 1_555 1_555
C3A C2A 1_555 1_555
H3A C3A 1_555 1_555
H4A C3A 1_555 1_555
C4A H5A 1_555 1_555
H6A C4A 1_555 1_555
N1A C9A 1_555 1_555
C5A H7A 1_555 1_555
H8A C5A 1_555 1_555
C6A H9A 1_555 1_555
C7A O1A 1_555 1_555
C8A H10A 1_555 1_555
C9A C6A 1_555 1_555
H11A C9A 1_555 1_555
C10A C10 1_555 1_555
H12A C10A 1_555 1_555
H13A C10A 1_555 1_555
C11A C6A 1_555 1_555
C12A C3A 1_555 1_555
H14A C12A 1_555 1_555
H15A C12A 1_555 1_555
C13A N1A 1_555 1_555
H16A C13A 1_555 1_555
C14A O6A 1_555 1_555
C15A C15 1_555 1_555
H17A C15A 1_555 1_555
H18A C15A 1_555 1_555
H19A O3A 1_555 1_555
H20A O3A 1_555 1_555
O5 Pr1A 1_555 1_555
O6 Pr1A_2 1_555 1_555
O7 Pr1A 1_555 1_555
C5 C12 1_555 1_555
C8 C11 1_555 1_555
C8 C13 1_555 1_555
Pr1A O1A 1_555 1_555
O7A C7A 1_555 1_555
C2A C7A 1_555 1_555
C4A C10A 1_555 1_555
C5A C12A 1_555 1_555
C5A C14A 1_555 1_555
C8A C11A 1_555 1_555
C8A C13A 1_555 1_555
C11A C15A 1_555 1_555

#END
