
#######################################################################
#
#                 Cambridge Crystallographic Data Centre
#                                CCDC 
#
#######################################################################
#
# If this CIF has been generated from an entry in the Cambridge 
# Structural Database, then it will include bibliographic, chemical, 
# crystal, experimental, refinement or atomic coordinate data resulting 
# from the CCDC's data processing and validation procedures.
#
#######################################################################

data_QIXSOG01
_symmetry_cell_setting           monoclinic
_symmetry_space_group_name_H-M   'P 21/n'
_symmetry_Int_Tables_number      14
_space_group_name_Hall           '-P 2yn'
loop_
_symmetry_equiv_pos_site_id
_symmetry_equiv_pos_as_xyz
1 x,y,z
2 1/2-x,1/2+y,1/2-z
3 -x,-y,-z
4 1/2+x,1/2-y,1/2+z
_cell_length_a                   31.936(2)
_cell_length_b                   10.664(6)
_cell_length_c                   12.361(7)
_cell_angle_alpha                90
_cell_angle_beta                 96.20(4)
_cell_angle_gamma                90
_cell_volume                     4185.11
loop_
_atom_site_label
_atom_site_type_symbol
_atom_site_fract_x
_atom_site_fract_y
_atom_site_fract_z
Mn1 Mn 0.24953(3) 0.25010(9) 0.49958(7)
Cu1 Cu -0.00435(3) 0.25738(11) 0.28498(10)
C1 C 0.0745(2) 0.2546(7) 0.4345(6)
C2 C 0.1451(3) 0.2451(6) 0.4847(5)
C3 C 0.3526(3) 0.2520(7) 0.5384(6)
C4 C 0.4201(3) 0.2397(9) 0.6267(7)
C5 C 0.2553(2) -0.0439(8) 0.4109(5)
C6 C 0.2505(2) 0.5440(7) 0.5905(5)
C7 C 0.2527(2) 0.6713(6) 0.7383(6)
C8 C 0.2518(2) -0.1730(6) 0.2652(6)
N1 N 0.0431(2) 0.2541(6) 0.3800(5)
N2 N 0.10618(19) 0.2558(7) 0.5034(5)
N3 N 0.1804(2) 0.2352(6) 0.4799(5)
N4 N 0.3180(2) 0.2615(6) 0.5216(5)
N5 N 0.3926(3) 0.2377(13) 0.5433(7)
N6 N 0.4486(2) 0.2402(7) 0.6900(6)
N7 N 0.2505(3) -0.1571(6) 0.3690(5)
N8 N 0.2562(2) 0.0476(6) 0.4554(5)
N9 N 0.2461(2) 0.4515(6) 0.5440(5)
N10 N 0.2563(3) 0.6537(6) 0.6352(5)
N11 N 0.2511(2) 0.6998(6) 0.8256(5)
N12 N 0.2512(2) -0.2006(6) 0.1752(5)
Mn1A Mn 0.25047(3) 0.75010(9) 0.00042(7)
Mn1A_2 Mn 0.25047(3) 0.75010(9) 1.00042(7)
Mn1A_3 Mn 0.25047(3) -0.24990(9) 0.00042(7)
Mn1A_4 Mn 0.25047(3) -0.24990(9) 1.00042(7)
Mn1C Mn -0.25047(3) 0.24990(9) -0.00042(7)
Cu1C Cu 0.49565(3) 0.24262(11) 0.78498(10)
Cu1A Cu 0.50435(3) 0.75738(11) 0.21502(10)
C1A C 0.4255(2) 0.7546(7) 0.0655(6)
C2A C 0.3549(3) 0.7451(6) 0.0153(5)
C3C C -0.1474(3) 0.2480(7) 0.0384(6)
C4C C -0.0799(3) 0.2603(9) 0.1267(7)
C5A C 0.2447(2) 0.4561(8) 0.0891(5)
C6A C 0.2495(2) 0.0440(7) 0.9095(5)
C7A C 0.2473(2) 0.1713(6) 0.7617(6)
C8A C 0.2482(2) 0.3270(6) 0.2348(6)
N1A N 0.4569(2) 0.7541(6) 0.1200(5)
N1C N 0.5431(2) 0.2459(6) 0.8800(5)
N2A N 0.39382(19) 0.7558(7) -0.0034(5)
N3A N 0.3196(2) 0.7352(6) 0.0201(5)
N4C N -0.1820(2) 0.2385(6) 0.0216(5)
N4A N 0.1820(2) 0.7615(6) -0.0216(5)
N5C N -0.1074(3) 0.2623(13) 0.0433(7)
N6C N -0.0514(2) 0.2598(7) 0.1900(6)
N7A N 0.2495(3) 0.3429(6) 0.1310(5)
N8A N 0.2438(2) 0.5476(6) 0.0446(5)
N9A N 0.2539(2) -0.0485(6) 0.9560(5)
N9A_2 N 0.2539(2) 0.9515(6) -0.0440(5)
N10A N 0.2437(3) 0.1537(6) 0.8648(5)
N11A N 0.2489(2) 0.1998(6) 0.6744(5)
N11_2 N 0.2511(2) 0.6998(6) -0.1744(5)
N12A N 0.2488(2) 0.2994(6) 0.3248(5)
N12_2 N 0.2512(2) 0.7994(6) 0.1752(5)
S1 S 0.03619(6) 0.0046(2) 0.16000(14)
S2 S 0.05821(6) 0.0622(2) -0.05891(14)
S3 S 0.12002(6) 0.05636(19) 0.27048(14)
S4 S 0.14679(7) 0.1200(3) 0.01245(18)
C9 C 0.0198(2) 0.0145(6) 0.0212(5)
C10 C 0.0875(2) 0.0542(6) 0.1493(5)
C11 C 0.0975(2) 0.0780(6) 0.0502(5)
C12 C 0.1672(5) 0.019(2) 0.216(2)
H1 H 0.1895 0.0115 0.2752
H2 H 0.1639 -0.0622 0.1808
C13 C 0.1814(6) 0.1109(19) 0.1345(13)
H3 H 0.2091 0.0866 0.1168
H4 H 0.1838 0.1934 0.1677
S1B S -0.03619(6) -0.0046(2) -0.16000(14)
S2B S -0.05821(6) -0.0622(2) 0.05891(14)
S3B S -0.12002(6) -0.05636(19) -0.27048(14)
S4B S -0.14679(7) -0.1200(3) -0.01245(18)
C9B C -0.0198(2) -0.0145(6) -0.0212(5)
C10B C -0.0875(2) -0.0542(6) -0.1493(5)
C11B C -0.0975(2) -0.0780(6) -0.0502(5)
C12B C -0.1672(5) -0.019(2) -0.216(2)
H1B H -0.1895 -0.0115 -0.2752
H2B H -0.1639 0.0622 -0.1808
C13B C -0.1814(6) -0.1109(19) -0.1345(13)
H3B H -0.2091 -0.0866 -0.1168
H4B H -0.1838 -0.1934 -0.1677
S5 S 0.04286(6) 0.0458(2) 0.64228(14)
S6 S 0.05375(6) -0.09598(18) 0.44776(14)
S7 S 0.13075(7) 0.0251(3) 0.73760(16)
S8 S 0.14381(7) -0.1452(2) 0.50267(16)
C16 C 0.0202(2) -0.0106(7) 0.5193(5)
C17 C 0.0929(2) -0.0085(8) 0.6300(5)
C18 C 0.0985(2) -0.0769(7) 0.5393(5)
C19 C 0.1682(3) -0.0953(8) 0.7183(6)
H9 H 0.1924 -0.0851 0.7721
H10 H 0.1556 -0.1761 0.7306
C20 C 0.1826(2) -0.0947(8) 0.6088(6)
H11 H 0.2071 -0.1489 0.6095
H12 H 0.1915 -0.0104 0.5925
S5B S -0.04286(6) -0.0458(2) 0.35772(14)
S6B S -0.05375(6) 0.09598(18) 0.55224(14)
S7B S -0.13075(7) -0.0251(3) 0.26240(16)
S8B S -0.14381(7) 0.1452(2) 0.49733(16)
C16B C -0.0202(2) 0.0106(7) 0.4807(5)
C17B C -0.0929(2) 0.0085(8) 0.3700(5)
C18B C -0.0985(2) 0.0769(7) 0.4607(5)
C19B C -0.1682(3) 0.0953(8) 0.2817(6)
H9B H -0.1924 0.0851 0.2279
H10B H -0.1556 0.1761 0.2694
C20B C -0.1826(2) 0.0947(8) 0.3912(6)
H11B H -0.2071 0.1489 0.3905
H12B H -0.1915 0.0104 0.4075
S9 S 0.01674(8) -0.5914(2) 0.65600(19)
S10 S 0.06330(8) -0.4219(2) 0.5267(2)
S11 S 0.08797(10) -0.6494(3) 0.8165(2)
S12 S 0.14360(8) -0.4456(3) 0.6641(2)
C21 C 0.0169(2) -0.5029(7) 0.5375(6)
C22 C 0.0694(3) -0.5649(7) 0.7001(6)
C23 C 0.0909(2) -0.4895(7) 0.6427(6)
C24 C 0.1391(5) -0.5899(15) 0.8449(12)
H13 H 0.1369 -0.5118 0.8840
H14 H 0.1545 -0.6480 0.8949
C25 C 0.1653(4) -0.5653(11) 0.7575(10)
H15 H 0.1685 -0.6423 0.7174
H16 H 0.1931 -0.5394 0.7891
S9B S -0.01674(8) -0.4086(2) 0.34400(19)
S10B S -0.06330(8) -0.5781(2) 0.4733(2)
S11B S -0.08797(10) -0.3506(3) 0.1835(2)
S12B S -0.14360(8) -0.5544(3) 0.3359(2)
C21B C -0.0169(2) -0.4971(7) 0.4625(6)
C22B C -0.0694(3) -0.4351(7) 0.2999(6)
C23B C -0.0909(2) -0.5105(7) 0.3573(6)
C24B C -0.1391(5) -0.4101(15) 0.1551(12)
H13B H -0.1369 -0.4882 0.1160
H14B H -0.1545 -0.3520 0.1051
C25B C -0.1653(4) -0.4347(11) 0.2425(10)
H15B H -0.1685 -0.3577 0.2826
H16B H -0.1931 -0.4606 0.2109
S13 S 0.04984(7) 0.39081(18) 0.08846(17)
S14 S 0.02964(6) 0.65548(17) 0.09146(15)
S15 S 0.12778(8) 0.4074(2) 0.2351(2)
S16 S 0.10382(7) 0.72722(18) 0.24061(17)
C26 C 0.0170(2) 0.5096(6) 0.0383(5)
C27 C 0.0851(2) 0.4848(6) 0.1690(6)
C28 C 0.0749(2) 0.6089(7) 0.1703(6)
C29 C 0.1526(3) 0.5296(9) 0.3200(9)
H17 H 0.1377 0.5382 0.3839
H18 H 0.1812 0.5039 0.3445
C30 C 0.1541(3) 0.6527(8) 0.2675(8)
H19 H 0.1662 0.6427 0.1994
H20 H 0.1726 0.7071 0.3138
S13B S -0.04984(7) 0.60919(18) -0.08846(17)
S14B S -0.02964(6) 0.34452(17) -0.09146(15)
S15B S -0.12778(8) 0.5926(2) -0.2351(2)
S16B S -0.10382(7) 0.27278(18) -0.24061(17)
C26B C -0.0170(2) 0.4904(6) -0.0383(5)
C27B C -0.0851(2) 0.5152(6) -0.1690(6)
C28B C -0.0749(2) 0.3911(7) -0.1703(6)
C29B C -0.1526(3) 0.4704(9) -0.3200(9)
H17B H -0.1377 0.4618 -0.3839
H18B H -0.1812 0.4961 -0.3445
C30B C -0.1541(3) 0.3473(8) -0.2675(8)
H19B H -0.1662 0.3573 -0.1994
H20B H -0.1726 0.2929 -0.3138
C14? C 0.1789(7) 0.0467(17) 0.1212(12)
H5? H 0.1748 -0.0433 0.1153
H6? H 0.2081 0.0637 0.1122
C15? C 0.1708(5) 0.087(3) 0.2339(17)
H7? H 0.1761 0.1761 0.2407
H8? H 0.1911 0.0448 0.2859
loop_
_geom_bond_atom_site_label_1
_geom_bond_atom_site_label_2
_geom_bond_site_symmetry_1
_geom_bond_site_symmetry_2
Mn1 N3 1_555 1_555
Cu1 N1 1_555 1_555
C1 N1 1_555 1_555
C2 N2 1_555 1_555
C3 N4 1_555 1_555
C4 N5 1_555 1_555
C5 N7 1_555 1_555
C6 N9 1_555 1_555
C7 N10 1_555 1_555
C8 N7 1_555 1_555
N2 C1 1_555 1_555
N3 C2 1_555 1_555
N4 Mn1 1_555 1_555
N5 C3 1_555 1_555
N6 C4 1_555 1_555
N8 Mn1 1_555 1_555
N9 Mn1 1_555 1_555
N10 C6 1_555 1_555
N11 C7 1_555 1_555
N12 C8 1_555 1_555
S1 C9 1_555 1_555
S2 C9 1_555 1_555
S3 C10 1_555 1_555
S4 C11 1_555 1_555
C9 C9B 1_555 1_555
C10 S1 1_555 1_555
C11 S2 1_555 1_555
C12 S3 1_555 1_555
H1 C12 1_555 1_555
H2 C12 1_555 1_555
C13 S4 1_555 1_555
H3 C13 1_555 1_555
H4 C13 1_555 1_555
S5 C16 1_555 1_555
S6 C16 1_555 1_555
S7 C17 1_555 1_555
S8 C18 1_555 1_555
C16 C16B 1_555 1_555
C17 S5 1_555 1_555
C18 S6 1_555 1_555
C19 S7 1_555 1_555
H9 C19 1_555 1_555
H10 C19 1_555 1_555
C20 S8 1_555 1_555
H11 C20 1_555 1_555
H12 C20 1_555 1_555
S9 C21 1_555 1_555
S10 C21 1_555 1_555
S11 C22 1_555 1_555
S12 C23 1_555 1_555
C21 C21B 1_555 1_555
C22 S9 1_555 1_555
C23 S10 1_555 1_555
C24 S11 1_555 1_555
H13 C24 1_555 1_555
H14 C24 1_555 1_555
C25 S12 1_555 1_555
H15 C25 1_555 1_555
H16 C25 1_555 1_555
S13 C26 1_555 1_555
S14 C26 1_555 1_555
S15 C27 1_555 1_555
S16 C28 1_555 1_555
C26 C26B 1_555 1_555
C27 S13 1_555 1_555
C28 S14 1_555 1_555
C29 S15 1_555 1_555
H17 C29 1_555 1_555
H18 C29 1_555 1_555
C30 S16 1_555 1_555
H19 C30 1_555 1_555
H20 C30 1_555 1_555
Mn1A N3A 1_555 1_555
Mn1A_2 N11 1_555 1_555
Mn1A_3 N12 1_555 1_555
Mn1A_4 N9A 1_555 1_555
Mn1C N4C 1_555 1_555
Cu1C N6 1_555 1_555
Cu1A N1A 1_555 1_555
C1A N1A 1_555 1_555
C2A N2A 1_555 1_555
C3C N4C 1_555 1_555
C4C N5C 1_555 1_555
C5A N7A 1_555 1_555
C6A N9A 1_555 1_555
C7A N10A 1_555 1_555
C8A N7A 1_555 1_555
N1C Cu1C 1_555 1_555
N2A C1A 1_555 1_555
N3A C2A 1_555 1_555
N4A Mn1A 1_555 1_555
N5C C3C 1_555 1_555
N6C Cu1 1_555 1_555
N8A Mn1A 1_555 1_555
N9A_2 Mn1A 1_555 1_555
N10A C6A 1_555 1_555
N11A Mn1 1_555 1_555
N11_2 Mn1A 1_555 1_555
N12A Mn1 1_555 1_555
N12_2 Mn1A 1_555 1_555
S1B C9B 1_555 1_555
S2B C9B 1_555 1_555
S3B C10B 1_555 1_555
S4B C11B 1_555 1_555
C10B S1B 1_555 1_555
C11B S2B 1_555 1_555
C12B S3B 1_555 1_555
H1B C12B 1_555 1_555
H2B C12B 1_555 1_555
C13B S4B 1_555 1_555
H3B C13B 1_555 1_555
H4B C13B 1_555 1_555
S5B C16B 1_555 1_555
S6B C16B 1_555 1_555
S7B C17B 1_555 1_555
S8B C18B 1_555 1_555
C17B S5B 1_555 1_555
C18B S6B 1_555 1_555
C19B S7B 1_555 1_555
H9B C19B 1_555 1_555
H10B C19B 1_555 1_555
C20B S8B 1_555 1_555
H11B C20B 1_555 1_555
H12B C20B 1_555 1_555
S9B C21B 1_555 1_555
S10B C21B 1_555 1_555
S11B C22B 1_555 1_555
S12B C23B 1_555 1_555
C22B S9B 1_555 1_555
C23B S10B 1_555 1_555
C24B S11B 1_555 1_555
H13B C24B 1_555 1_555
H14B C24B 1_555 1_555
C25B S12B 1_555 1_555
H15B C25B 1_555 1_555
H16B C25B 1_555 1_555
S13B C26B 1_555 1_555
S14B C26B 1_555 1_555
S15B C27B 1_555 1_555
S16B C28B 1_555 1_555
C27B S13B 1_555 1_555
C28B S14B 1_555 1_555
C29B S15B 1_555 1_555
H17B C29B 1_555 1_555
H18B C29B 1_555 1_555
C30B S16B 1_555 1_555
H19B C30B 1_555 1_555
H20B C30B 1_555 1_555
C5 N8 1_555 1_555
C10 C11 1_555 1_555
C12 C13 1_555 1_555
C17 C18 1_555 1_555
C19 C20 1_555 1_555
C22 C23 1_555 1_555
C24 C25 1_555 1_555
C27 C28 1_555 1_555
C29 C30 1_555 1_555
C4C N6C 1_555 1_555
C5A N8A 1_555 1_555
C7A N11A 1_555 1_555
C8A N12A 1_555 1_555
C10B C11B 1_555 1_555
C12B C13B 1_555 1_555
C17B C18B 1_555 1_555
C19B C20B 1_555 1_555
C22B C23B 1_555 1_555
C24B C25B 1_555 1_555
C27B C28B 1_555 1_555
C29B C30B 1_555 1_555

#END
