
#######################################################################
#
#                 Cambridge Crystallographic Data Centre
#                                CCDC 
#
#######################################################################
#
# If this CIF has been generated from an entry in the Cambridge 
# Structural Database, then it will include bibliographic, chemical, 
# crystal, experimental, refinement or atomic coordinate data resulting 
# from the CCDC's data processing and validation procedures.
#
#######################################################################

data_QODHUO02
_symmetry_cell_setting           monoclinic
_symmetry_space_group_name_H-M   'C 2/c'
_symmetry_Int_Tables_number      15
_space_group_name_Hall           '-C 2yn'
loop_
_symmetry_equiv_pos_site_id
_symmetry_equiv_pos_as_xyz
1 x,y,z
2 -x,y,1/2-z
3 1/2+x,1/2+y,z
4 1/2-x,1/2+y,1/2-z
5 -x,-y,-z
6 x,-y,1/2+z
7 1/2-x,1/2-y,-z
8 1/2+x,1/2-y,1/2+z
_cell_length_a                   21.9302(11)
_cell_length_b                   16.7795(8)
_cell_length_c                   25.4880(18)
_cell_angle_alpha                90
_cell_angle_beta                 115.029(7)
_cell_angle_gamma                90
_cell_volume                     8498.27
loop_
_atom_site_label
_atom_site_type_symbol
_atom_site_fract_x
_atom_site_fract_y
_atom_site_fract_z
Ag1 Ag 0.34423(4) 0.45588(6) -0.63369(3)
Ag2 Ag 0.32111(5) 0.75773(6) -0.13403(4)
C1 C 0.5976(4) 0.9718(5) -0.0014(4)
C2 C 0.0324(5) 0.8091(6) -0.5918(4)
H1 H 0.0537 0.7878 -0.6133
C3 C 0.7762(5) 1.1387(5) 0.0070(4)
H2 H 0.7969 1.1347 0.0472
C4 C 0.0597(4) 0.7995(5) -0.5329(4)
C5 C 0.2973(4) 0.5833(5) -0.4971(4)
H3 H 0.3194 0.5873 -0.4570
C6 C 0.1228(4) 0.7556(5) -0.5007(4)
C7 C 0.5035(4) 0.8857(6) -0.0061(4)
H4 H 0.5232 0.8841 0.0341
C8 C 0.5326(4) 0.9279(5) -0.0356(4)
C9 C 0.6815(4) 1.0524(5) 0.0044(4)
C10 C 0.2093(4) 0.7251(5) -0.4149(4)
C11 C 0.7137(4) 1.1017(5) -0.0250(4)
C12 C 0.7196(4) 1.1525(5) -0.1102(4)
H5 H 0.7003 1.1564 -0.1503
C13 C 0.4435(5) 0.8450(6) -0.0380(4)
H6 H 0.4241 0.8161 -0.0178
C14 C 0.7117(4) 0.9917(6) 0.1500(4)
C15 C 0.2348(4) 0.6208(5) -0.5280(4)
C16 C 0.2357(5) 0.5645(6) -0.6133(4)
H7 H 0.2147 0.5586 -0.6533
C17 C 0.2426(5) 0.7363(6) -0.3512(4)
C18 C 0.6787(5) 0.9554(7) 0.1792(5)
H8 H 0.6349 0.9371 0.1589
C19 C 0.0249(5) 0.8342(6) -0.5034(4)
H9 H 0.0419 0.8308 -0.4633
C20 C 0.8063(5) 1.1812(6) -0.0224(5)
H10 H 0.8472 1.2063 -0.0011
C21 C 0.6794(4) 1.0025(5) 0.0848(4)
C22 C 0.2041(5) 0.6093(6) -0.5867(4)
H11 H 0.1620 0.6315 -0.6086
C23 C 0.2047(4) 0.6712(5) -0.4980(4)
C24 C 0.6855(4) 1.1105(5) -0.0838(4)
H12 H 0.6436 1.0884 -0.1061
C25 C 0.3249(5) 0.5409(6) -0.5275(4)
H13 H 0.3672 0.5187 -0.5071
C26 C 0.5011(5) 0.9286(6) -0.0955(4)
H14 H 0.5189 0.9579 -0.1167
C27 C -0.0275(5) 0.8510(7) -0.6191(4)
H15 H -0.0451 0.8583 -0.6590
C28 C 0.8059(6) 1.0046(8) 0.2403(5)
H16 H 0.8495 1.0231 0.2614
C29 C 0.2135(5) 0.7860(7) -0.3244(5)
H17 H 0.1738 0.8131 -0.3459
C30 C -0.0332(5) 0.8723(7) -0.5340(5)
H18 H -0.0557 0.8945 -0.5137
C31 C 0.7107(5) 0.9463(8) 0.2379(4)
H19 H 0.6873 0.9229 0.2569
C32 C 0.2452(7) 0.7937(8) -0.2654(5)
H20 H 0.2266 0.8284 -0.2478
C33 C 0.4431(5) 0.8854(7) -0.1230(4)
H21 H 0.4238 0.8838 -0.1633
C34 C 0.7774(5) 1.0152(7) 0.1808(5)
H22 H 0.8020 1.0374 0.1623
C35 C 0.3020(5) 0.6998(7) -0.3180(4)
H23 H 0.3245 0.6688 -0.3346
C36 C 0.3278(6) 0.7108(8) -0.2582(5)
H24 H 0.3676 0.6845 -0.2353
N1 N 0.2951(4) 0.5295(5) -0.5842(3)
N2 N -0.0606(4) 0.8807(5) -0.5906(3)
N3 N 0.3004(5) 0.7551(6) -0.2320(4)
N4 N 0.2368(4) 0.6773(5) -0.4400(3)
N5 N 0.1476(4) 0.7095(4) -0.5303(3)
N6 N 0.1523(4) 0.7655(5) -0.4434(3)
N7 N 0.7792(4) 1.1876(5) -0.0799(3)
N8 N 0.4127(4) 0.8453(5) -0.0952(3)
N9 N 0.7751(4) 0.9698(6) 0.2695(4)
N10 N 0.6249(3) 1.0135(4) -0.0295(3)
N11 N 0.7107(4) 1.0490(5) 0.0625(3)
N12 N 0.6223(4) 0.9623(4) 0.0561(3)
Ag1B Ag -0.15577(4) 0.95588(6) -0.63369(3)
Ag1B_2 Ag 0.84423(4) 0.95588(6) 0.36631(3)
Ag2B Ag 0.82111(5) 1.25773(6) -0.13403(4)
N2B N 0.4394(4) 0.3807(5) -0.5906(3)
N7B N 0.2792(4) 0.6876(5) -0.0799(3)
N9B N 0.2751(4) 0.4698(6) -0.7305(4)
Mo1 Mo 0.5000 0.46806(9) -0.7500
Mo2 Mo 0.49857(4) 0.59027(5) -0.63878(3)
Mo3 Mo 0.49269(4) 0.78953(5) -0.64193(3)
Mo4 Mo 0.5000 0.90685(9) -0.7500
Mo5 Mo 0.40751(4) 0.69202(5) -0.78956(3)
O1 O 0.5638(9) 0.4059(10) -0.7100(9)
O2 O 0.4668(5) 0.5153(5) -0.7050(4)
O3 O 0.5538(5) 0.5341(8) -0.5842(4)
O4 O 0.4287(4) 0.5794(7) -0.6298(4)
O5 O 0.5331(5) 0.6885(5) -0.6057(4)
O6 O 0.4472(5) 0.6865(5) -0.7147(4)
O7 O 0.4244(5) 0.6038(6) -0.8228(4)
O8 O 0.3234(4) 0.6952(5) -0.8177(4)
O9 O 0.4227(5) 0.7884(7) -0.6293(5)
O10 O 0.5465(5) 0.8457(8) -0.5896(4)
O11 O 0.4550(5) 0.8574(6) -0.7102(4)
O12 O 0.4334(5) 0.7783(5) -0.8173(4)
O13 O 0.5594(7) 0.9652(8) -0.7044(6)
Mo2A Mo 0.50143(4) 0.59027(5) -0.86122(3)
Mo3A Mo 0.50731(4) 0.78953(5) -0.85807(3)
Mo5A Mo 0.59249(4) 0.69202(5) -0.71044(3)
O1A O 0.4362(9) 0.4059(10) -0.7900(9)
O2A O 0.5332(5) 0.5153(5) -0.7950(4)
O3A O 0.4462(5) 0.5341(8) -0.9158(4)
O4A O 0.5713(4) 0.5794(7) -0.8702(4)
O5A O 0.4669(5) 0.6885(5) -0.8943(4)
O6A O 0.5528(5) 0.6865(5) -0.7853(4)
O7A O 0.5756(5) 0.6038(6) -0.6772(4)
O8A O 0.6766(4) 0.6952(5) -0.6823(4)
O9A O 0.5773(5) 0.7884(7) -0.8707(5)
O10A O 0.4535(5) 0.8457(8) -0.9104(4)
O11A O 0.5450(5) 0.8574(6) -0.7898(4)
O12A O 0.5666(5) 0.7783(5) -0.6827(4)
O13A O 0.4406(7) 0.9652(8) -0.7956(6)
loop_
_geom_bond_atom_site_label_1
_geom_bond_atom_site_label_2
_geom_bond_site_symmetry_1
_geom_bond_site_symmetry_2
Ag1 N1 1_555 1_555
Ag2 N3 1_555 1_555
C1 C8 1_555 1_555
C2 H1 1_555 1_555
C3 H2 1_555 1_555
C4 C2 1_555 1_555
C5 H3 1_555 1_555
C6 C4 1_555 1_555
C7 H4 1_555 1_555
C8 C7 1_555 1_555
C9 C11 1_555 1_555
C10 C17 1_555 1_555
C11 C3 1_555 1_555
C12 H5 1_555 1_555
C13 C7 1_555 1_555
H6 C13 1_555 1_555
C14 C18 1_555 1_555
C15 C5 1_555 1_555
C16 H7 1_555 1_555
C17 C29 1_555 1_555
C18 H8 1_555 1_555
C19 C4 1_555 1_555
H9 C19 1_555 1_555
C20 C3 1_555 1_555
H10 C20 1_555 1_555
C21 C14 1_555 1_555
C22 C15 1_555 1_555
H11 C22 1_555 1_555
C23 C15 1_555 1_555
C24 C11 1_555 1_555
H12 C24 1_555 1_555
C25 C5 1_555 1_555
H13 C25 1_555 1_555
C26 C8 1_555 1_555
H14 C26 1_555 1_555
C27 C2 1_555 1_555
H15 C27 1_555 1_555
C28 H16 1_555 1_555
C29 H17 1_555 1_555
C30 C19 1_555 1_555
H18 C30 1_555 1_555
C31 C18 1_555 1_555
H19 C31 1_555 1_555
C32 C29 1_555 1_555
H20 C32 1_555 1_555
C33 C26 1_555 1_555
H21 C33 1_555 1_555
C34 C14 1_555 1_555
H22 C34 1_555 1_555
C35 C17 1_555 1_555
H23 C35 1_555 1_555
C36 C35 1_555 1_555
H24 C36 1_555 1_555
N1 C16 1_555 1_555
N2 C27 1_555 1_555
N3 C32 1_555 1_555
N4 C10 1_555 1_555
N5 C6 1_555 1_555
N6 C6 1_555 1_555
N7 C12 1_555 1_555
N8 Ag2 1_555 1_555
N9 C28 1_555 1_555
N10 C1 1_555 1_555
N11 C9 1_555 1_555
N12 C1 1_555 1_555
Mo1 O1 1_555 1_555
Mo2 O2 1_555 1_555
Mo3 O5 1_555 1_555
Mo4 O11 1_555 1_555
Mo5 O6 1_555 1_555
O2 Mo1 1_555 1_555
O3 Mo2 1_555 1_555
O4 Mo2 1_555 1_555
O5 Mo2 1_555 1_555
O6 Mo2 1_555 1_555
O7 Mo5 1_555 1_555
O8 Mo5 1_555 1_555
O9 Mo3 1_555 1_555
O10 Mo3 1_555 1_555
O11 Mo3 1_555 1_555
O12 Mo4 1_555 1_555
O13 Mo4 1_555 1_555
Ag1B N2 1_555 1_555
Ag1B_2 N9 1_555 1_555
Ag2B N7 1_555 1_555
N2B Ag1 1_555 1_555
N7B Ag2 1_555 1_555
N9B Ag1 1_555 1_555
Mo2A O7 1_555 1_555
Mo3A O12 1_555 1_555
Mo5A O6A 1_555 1_555
O1A Mo1 1_555 1_555
O2A Mo1 1_555 1_555
O3A Mo2A 1_555 1_555
O4A Mo2A 1_555 1_555
O5A Mo2A 1_555 1_555
O6A Mo2A 1_555 1_555
O7A Mo2 1_555 1_555
O8A Mo5A 1_555 1_555
O9A Mo3A 1_555 1_555
O10A Mo3A 1_555 1_555
O11A Mo4 1_555 1_555
O12A Mo3 1_555 1_555
O13A Mo4 1_555 1_555
C9 N10 1_555 1_555
C10 N6 1_555 1_555
C12 C24 1_555 1_555
C13 N8 1_555 1_555
C16 C22 1_555 1_555
C20 N7 1_555 1_555
C21 N11 1_555 1_555
C21 N12 1_555 1_555
C23 N4 1_555 1_555
C23 N5 1_555 1_555
C25 N1 1_555 1_555
C28 C34 1_555 1_555
C30 N2 1_555 1_555
C31 N9 1_555 1_555
C33 N8 1_555 1_555
C36 N3 1_555 1_555
Mo3 O6 1_555 1_555
Mo4 O12A 1_555 1_555
Mo5 O12 1_555 1_555
Mo2A O2A 1_555 1_555
Mo3A O5A 1_555 1_555
Mo3A O6A 1_555 1_555
Mo3A O11A 1_555 1_555
Mo5A O7A 1_555 1_555
Mo5A O12A 1_555 1_555

#END
