
#######################################################################
#
#                 Cambridge Crystallographic Data Centre
#                                CCDC 
#
#######################################################################
#
# If this CIF has been generated from an entry in the Cambridge 
# Structural Database, then it will include bibliographic, chemical, 
# crystal, experimental, refinement or atomic coordinate data resulting 
# from the CCDC's data processing and validation procedures.
#
#######################################################################

data_QODHUO08
_symmetry_cell_setting           monoclinic
_symmetry_space_group_name_H-M   'C 2/c'
_symmetry_Int_Tables_number      15
_space_group_name_Hall           '-C 2yn'
loop_
_symmetry_equiv_pos_site_id
_symmetry_equiv_pos_as_xyz
1 x,y,z
2 -x,y,1/2-z
3 1/2+x,1/2+y,z
4 1/2-x,1/2+y,1/2-z
5 -x,-y,-z
6 x,-y,1/2+z
7 1/2-x,1/2-y,-z
8 1/2+x,1/2-y,1/2+z
_cell_length_a                   21.9416(8)
_cell_length_b                   16.7734(6)
_cell_length_c                   25.5513(14)
_cell_angle_alpha                90
_cell_angle_beta                 115.225(5)
_cell_angle_gamma                90
_cell_volume                     8507.05
loop_
_atom_site_label
_atom_site_type_symbol
_atom_site_fract_x
_atom_site_fract_y
_atom_site_fract_z
Ag1 Ag -0.65574(3) 0.04241(5) -0.63278(3)
Ag2 Ag -0.17856(4) 0.24466(5) -0.13319(3)
C1 C 0.0971(3) 0.0292(4) -0.0006(3)
C2 C -0.3762(3) 0.2438(4) -0.4993(3)
C3 C -0.4672(4) 0.1896(5) -0.5903(3)
H1 H -0.4457 0.2104 -0.6117
C4 C -0.4401(3) 0.1995(4) -0.5319(3)
C5 C 0.0032(3) 0.1153(5) -0.0053(3)
H2 H 0.0227 0.1162 0.0350
C6 C 0.1812(3) -0.0522(4) 0.0055(3)
C7 C 0.2200(4) -0.1514(5) -0.1086(3)
H3 H 0.2004 -0.1555 -0.1487
C8 C -0.2024(3) 0.4165(4) -0.4956(3)
H4 H -0.1805 0.4132 -0.4555
C9 C 0.0329(3) 0.0735(4) -0.0348(3)
C10 C -0.0563(4) 0.1557(5) -0.0367(3)
H5 H -0.0760 0.1836 -0.0164
C11 C -0.2906(3) 0.2746(4) -0.4140(3)
C12 C 0.2763(4) -0.1380(5) 0.0083(3)
H6 H 0.2968 -0.1347 0.0485
C13 C -0.2642(4) 0.4349(5) -0.6121(3)
H7 H -0.2858 0.4417 -0.6519
C14 C -0.2576(4) 0.2637(5) -0.3503(3)
C15 C 0.1783(4) 0.0435(6) 0.1793(4)
H8 H 0.1342 0.0612 0.1591
C16 C -0.4748(4) 0.1657(5) -0.5024(3)
H9 H -0.4581 0.1703 -0.4625
C17 C 0.2139(3) -0.1014(4) -0.0241(3)
C18 C 0.2116(4) 0.0080(5) 0.1506(3)
C19 C 0.1794(3) -0.0015(4) 0.0865(3)
C20 C -0.2958(4) 0.3896(5) -0.5858(3)
H10 H -0.3378 0.3670 -0.6078
C21 C -0.2950(3) 0.3279(4) -0.4964(3)
C22 C -0.2646(4) 0.3782(4) -0.5268(3)
C23 C -0.5328(4) 0.1263(6) -0.5330(4)
H11 H -0.5547 0.1035 -0.5125
C24 C 0.3067(4) -0.1795(5) -0.0216(4)
H12 H 0.3482 -0.2036 -0.0003
C25 C -0.1751(4) 0.4590(5) -0.5267(3)
H13 H -0.1330 0.4820 -0.5062
C26 C 0.1860(3) -0.1091(5) -0.0826(3)
H14 H 0.1444 -0.0861 -0.1050
C27 C 0.0012(4) 0.0739(5) -0.0939(3)
H15 H 0.0188 0.0446 -0.1151
C28 C -0.5273(4) 0.1482(6) -0.6175(3)
H16 H -0.5450 0.1416 -0.6574
C29 C 0.2110(4) 0.0526(7) 0.2387(4)
H17 H 0.1879 0.0766 0.2578
C30 C 0.3050(4) -0.0057(6) 0.2411(4)
H18 H 0.3489 -0.0236 0.2623
C31 C -0.0564(4) 0.1172(6) -0.1219(3)
H19 H -0.0754 0.1192 -0.1621
C32 C 0.2772(4) -0.0169(5) 0.1821(4)
H20 H 0.3017 -0.0403 0.1641
C33 C -0.1735(5) 0.2932(7) -0.2577(4)
H21 H -0.1347 0.3216 -0.2352
C34 C -0.2549(5) 0.2056(6) -0.2645(4)
H22 H -0.2728 0.1697 -0.2471
C35 C -0.1986(4) 0.3022(6) -0.3165(4)
H23 H -0.1764 0.3335 -0.3330
C36 C -0.2856(5) 0.2134(6) -0.3233(4)
H24 H -0.3248 0.1853 -0.3451
N1 N -0.5607(3) 0.1177(4) -0.5897(3)
N2 N -0.2044(3) 0.4694(4) -0.5833(3)
N3 N -0.1997(4) 0.2475(5) -0.2304(3)
N4 N -0.3518(3) 0.2893(4) -0.5288(3)
N5 N -0.2624(3) 0.3228(4) -0.4384(3)
N6 N -0.3477(3) 0.2340(4) -0.4423(3)
N7 N -0.0869(3) 0.1568(4) -0.0943(3)
N8 N 0.2797(3) -0.1866(4) -0.0787(3)
N9 N 0.2745(4) 0.0282(5) 0.2700(3)
N10 N 0.1251(3) -0.0122(4) -0.0280(3)
N11 N 0.2103(3) -0.0488(4) 0.0631(3)
N12 N 0.1225(3) 0.0378(4) 0.0569(3)
Ag1_2 Ag 0.34426(3) 0.04241(5) 0.36722(3)
Ag1B Ag -0.15574(3) 0.54241(5) -0.63278(3)
Ag2B Ag 0.32144(4) -0.25534(5) -0.13319(3)
N2B N -0.7044(3) -0.0306(4) -0.5833(3)
N8B N -0.2203(3) 0.3134(4) -0.0787(3)
N9_2 N -0.7255(4) 0.0282(5) -0.7300(3)
Mo1 Mo -0.5000 0.03218(7) -0.7500
Mo2 Mo -0.50144(3) -0.09041(4) -0.63911(3)
Mo3 Mo -0.50815(3) -0.28975(4) -0.64243(3)
Mo4 Mo -0.5000 -0.40459(8) -0.7500
Mo5 Mo -0.59257(3) -0.19270(4) -0.79014(3)
O1 O -0.4365(8) 0.0935(8) -0.7085(8)
O2 O -0.5340(4) -0.0163(4) -0.7054(3)
O3 O -0.4466(4) -0.0311(5) -0.5858(3)
O4 O -0.5721(4) -0.0811(5) -0.6302(3)
O5 O -0.4671(3) -0.1897(4) -0.6063(3)
O6 O -0.5527(4) -0.1868(4) -0.7145(3)
O7 O -0.5761(4) -0.1049(4) -0.8228(3)
O8 O -0.6767(3) -0.1964(4) -0.8181(4)
O9 O -0.4559(4) -0.3490(6) -0.5913(4)
O10 O -0.5776(4) -0.2879(6) -0.6289(4)
O11 O -0.5465(4) -0.3566(5) -0.7108(3)
O12 O -0.5657(3) -0.2802(4) -0.8159(3)
O13 O -0.4414(5) -0.4638(6) -0.7019(4)
Mo2A Mo -0.49856(3) -0.09041(4) -0.86089(3)
Mo3A Mo -0.49185(3) -0.28975(4) -0.85757(3)
Mo5A Mo -0.40743(3) -0.19270(4) -0.70986(3)
O1A O -0.5635(8) 0.0935(8) -0.7915(8)
O2A O -0.4660(4) -0.0163(4) -0.7946(3)
O3A O -0.5534(4) -0.0311(5) -0.9142(3)
O4A O -0.4279(4) -0.0811(5) -0.8698(3)
O5A O -0.5329(3) -0.1897(4) -0.8937(3)
O6A O -0.4473(4) -0.1868(4) -0.7855(3)
O7A O -0.4239(4) -0.1049(4) -0.6772(3)
O8A O -0.3233(3) -0.1964(4) -0.6819(4)
O9A O -0.5441(4) -0.3490(6) -0.9087(4)
O10A O -0.4224(4) -0.2879(6) -0.8711(4)
O11A O -0.4535(4) -0.3566(5) -0.7892(3)
O12A O -0.4343(3) -0.2802(4) -0.6841(3)
O13A O -0.5586(5) -0.4638(6) -0.7981(4)
loop_
_geom_bond_atom_site_label_1
_geom_bond_atom_site_label_2
_geom_bond_site_symmetry_1
_geom_bond_site_symmetry_2
Ag1 N1 1_555 1_555
Ag2 N3 1_555 1_555
C1 C9 1_555 1_555
C2 C4 1_555 1_555
C3 H1 1_555 1_555
C4 C3 1_555 1_555
C5 H2 1_555 1_555
C6 C17 1_555 1_555
C7 H3 1_555 1_555
C8 H4 1_555 1_555
C9 C5 1_555 1_555
C10 C5 1_555 1_555
H5 C10 1_555 1_555
C11 C14 1_555 1_555
C12 H6 1_555 1_555
C13 H7 1_555 1_555
C14 C35 1_555 1_555
C15 H8 1_555 1_555
C16 C4 1_555 1_555
H9 C16 1_555 1_555
C17 C12 1_555 1_555
C18 C15 1_555 1_555
C19 C18 1_555 1_555
C20 C13 1_555 1_555
H10 C20 1_555 1_555
C21 C22 1_555 1_555
C22 C8 1_555 1_555
C23 C16 1_555 1_555
H11 C23 1_555 1_555
C24 C12 1_555 1_555
H12 C24 1_555 1_555
C25 C8 1_555 1_555
H13 C25 1_555 1_555
C26 C7 1_555 1_555
H14 C26 1_555 1_555
C27 C9 1_555 1_555
H15 C27 1_555 1_555
C28 C3 1_555 1_555
H16 C28 1_555 1_555
C29 C15 1_555 1_555
H17 C29 1_555 1_555
C30 H18 1_555 1_555
C31 C27 1_555 1_555
H19 C31 1_555 1_555
C32 C18 1_555 1_555
H20 C32 1_555 1_555
C33 H21 1_555 1_555
C34 H22 1_555 1_555
C35 C33 1_555 1_555
H23 C35 1_555 1_555
C36 C14 1_555 1_555
H24 C36 1_555 1_555
N1 C23 1_555 1_555
N2 C13 1_555 1_555
N3 C33 1_555 1_555
N4 C2 1_555 1_555
N5 C11 1_555 1_555
N6 C2 1_555 1_555
N7 Ag2 1_555 1_555
N8 C7 1_555 1_555
N9 C29 1_555 1_555
N10 C1 1_555 1_555
N11 C6 1_555 1_555
N12 C1 1_555 1_555
Mo1 O1 1_555 1_555
Mo2 O2 1_555 1_555
Mo3 O5 1_555 1_555
Mo4 O11 1_555 1_555
Mo5 O6 1_555 1_555
O2 Mo1 1_555 1_555
O3 Mo2 1_555 1_555
O4 Mo2 1_555 1_555
O5 Mo2 1_555 1_555
O6 Mo2 1_555 1_555
O7 Mo5 1_555 1_555
O8 Mo5 1_555 1_555
O9 Mo3 1_555 1_555
O10 Mo3 1_555 1_555
O11 Mo3 1_555 1_555
O12 Mo4 1_555 1_555
O13 Mo4 1_555 1_555
Ag1_2 N9 1_555 1_555
Ag1B N2 1_555 1_555
Ag2B N8 1_555 1_555
N2B Ag1 1_555 1_555
N8B Ag2 1_555 1_555
N9_2 Ag1 1_555 1_555
Mo2A O7 1_555 1_555
Mo3A O12 1_555 1_555
Mo5A O6A 1_555 1_555
O1A Mo1 1_555 1_555
O2A Mo1 1_555 1_555
O3A Mo2A 1_555 1_555
O4A Mo2A 1_555 1_555
O5A Mo2A 1_555 1_555
O6A Mo2A 1_555 1_555
O7A Mo2 1_555 1_555
O8A Mo5A 1_555 1_555
O9A Mo3A 1_555 1_555
O10A Mo3A 1_555 1_555
O11A Mo4 1_555 1_555
O12A Mo3 1_555 1_555
O13A Mo4 1_555 1_555
C6 N10 1_555 1_555
C10 N7 1_555 1_555
C11 N6 1_555 1_555
C17 C26 1_555 1_555
C19 N11 1_555 1_555
C19 N12 1_555 1_555
C20 C22 1_555 1_555
C21 N4 1_555 1_555
C21 N5 1_555 1_555
C24 N8 1_555 1_555
C25 N2 1_555 1_555
C28 N1 1_555 1_555
C30 C32 1_555 1_555
C30 N9 1_555 1_555
C31 N7 1_555 1_555
C34 C36 1_555 1_555
C34 N3 1_555 1_555
Mo3 O6 1_555 1_555
Mo4 O12A 1_555 1_555
Mo5 O12 1_555 1_555
Mo2A O2A 1_555 1_555
Mo3A O5A 1_555 1_555
Mo3A O6A 1_555 1_555
Mo3A O11A 1_555 1_555
Mo5A O7A 1_555 1_555
Mo5A O12A 1_555 1_555

#END
