
#######################################################################
#
#                 Cambridge Crystallographic Data Centre
#                                CCDC 
#
#######################################################################
#
# If this CIF has been generated from an entry in the Cambridge 
# Structural Database, then it will include bibliographic, chemical, 
# crystal, experimental, refinement or atomic coordinate data resulting 
# from the CCDC's data processing and validation procedures.
#
#######################################################################

data_QODHUO09
_symmetry_cell_setting           monoclinic
_symmetry_space_group_name_H-M   'C 2/c'
_symmetry_Int_Tables_number      15
_space_group_name_Hall           '-C 2yn'
loop_
_symmetry_equiv_pos_site_id
_symmetry_equiv_pos_as_xyz
1 x,y,z
2 -x,y,1/2-z
3 1/2+x,1/2+y,z
4 1/2-x,1/2+y,1/2-z
5 -x,-y,-z
6 x,-y,1/2+z
7 1/2-x,1/2-y,-z
8 1/2+x,1/2-y,1/2+z
_cell_length_a                   22.1162(7)
_cell_length_b                   16.2831(4)
_cell_length_c                   25.6433(12)
_cell_angle_alpha                90
_cell_angle_beta                 115.366(4)
_cell_angle_gamma                90
_cell_volume                     8344.35
loop_
_atom_site_label
_atom_site_type_symbol
_atom_site_fract_x
_atom_site_fract_y
_atom_site_fract_z
Ag1 Ag -0.65622(2) 0.04313(3) -0.632290(19)
Ag2 Ag -0.17721(2) 0.24829(3) -0.13282(2)
N1 N 0.1226(2) 0.0376(3) 0.0592(2)
N2 N 0.2800(2) -0.1867(3) -0.0786(2)
N3 N -0.5611(2) 0.1157(3) -0.5878(2)
N4 N -0.2616(2) 0.3226(3) -0.4369(2)
N5 N -0.0872(2) 0.1582(3) -0.0926(2)
C1 C -0.2646(3) 0.4347(4) -0.6119(3)
H1 H -0.2861 0.4405 -0.6518
C2 C 0.2194(3) -0.1514(4) -0.1079(3)
H2 H 0.1993 -0.1556 -0.1479
N6 N 0.2112(2) -0.0493(3) 0.0648(2)
C3 C -0.4669(3) 0.1872(4) -0.5890(3)
H3 H -0.4448 0.2071 -0.6101
N7 N -0.2041(2) 0.4697(3) -0.5832(2)
N8 N -0.3521(2) 0.2897(3) -0.5274(2)
N9 N -0.2000(3) 0.2471(4) -0.2286(2)
C4 C -0.3761(3) 0.2431(4) -0.4975(3)
C5 C 0.0976(3) 0.0298(4) 0.0013(3)
C6 C 0.2778(3) -0.1382(4) 0.0092(3)
H4 H 0.2987 -0.1346 0.0493
N10 N 0.1263(2) -0.0111(3) -0.0267(2)
C7 C -0.2017(3) 0.4163(4) -0.4950(2)
H5 H -0.1795 0.4123 -0.4551
N11 N 0.2760(3) 0.0291(3) 0.2718(2)
C8 C -0.4404(3) 0.1984(3) -0.5298(3)
C9 C 0.0031(3) 0.1160(4) -0.0036(3)
H6 H 0.0226 0.1171 0.0365
C10 C -0.0569(3) 0.1167(4) -0.1204(3)
H7 H -0.0767 0.1177 -0.1606
C11 C -0.2905(3) 0.2736(4) -0.4123(3)
C12 C -0.4747(3) 0.1651(4) -0.4998(3)
H8 H -0.4576 0.1700 -0.4599
N12 N -0.3470(2) 0.2317(3) -0.4404(2)
C13 C 0.3077(3) -0.0045(4) 0.2430(3)
H9 H 0.3520 -0.0207 0.2637
C14 C -0.2571(3) 0.2630(4) -0.3486(3)
C15 C 0.1787(3) 0.0441(4) 0.1814(3)
H10 H 0.1346 0.0616 0.1613
C16 C -0.0570(3) 0.1569(4) -0.0351(3)
H11 H -0.0771 0.1846 -0.0150
C17 C -0.5268(3) 0.1459(4) -0.6159(3)
H12 H -0.5445 0.1386 -0.6556
C18 C 0.2125(3) 0.0082(4) 0.1521(3)
C19 C -0.1736(3) 0.4598(4) -0.5260(3)
H13 H -0.1315 0.4830 -0.5058
C20 C 0.0017(3) 0.0732(4) -0.0929(3)
H14 H 0.0199 0.0440 -0.1140
C21 C -0.1716(3) 0.2927(4) -0.2549(3)
H15 H -0.1317 0.3192 -0.2321
C22 C 0.0331(3) 0.0739(4) -0.0329(3)
C23 C 0.2153(3) -0.1016(4) -0.0224(3)
C24 C 0.1858(3) -0.1092(3) -0.0815(3)
H16 H 0.1439 -0.0863 -0.1034
C25 C -0.2960(3) 0.3904(4) -0.5844(3)
H17 H -0.3384 0.3686 -0.6057
C26 C -0.2939(3) 0.3278(4) -0.4947(3)
C27 C 0.2116(3) 0.0535(4) 0.2409(3)
H18 H 0.1888 0.0773 0.2603
C28 C 0.1801(3) -0.0028(4) 0.0882(3)
C29 C 0.1825(3) -0.0520(4) 0.0071(3)
C30 C -0.2644(3) 0.3785(4) -0.5255(3)
C31 C 0.3080(3) -0.1801(4) -0.0209(3)
H19 H 0.3494 -0.2045 0.0000
C32 C -0.1981(3) 0.3035(4) -0.3147(3)
H20 H -0.1768 0.3367 -0.3312
C33 C -0.5337(3) 0.1253(4) -0.5303(3)
H21 H -0.5563 0.1036 -0.5100
C34 C -0.2852(3) 0.2113(4) -0.3221(3)
H22 H -0.3235 0.1811 -0.3439
C35 C -0.2554(3) 0.2053(4) -0.2626(3)
H23 H -0.2746 0.1706 -0.2451
C36 C 0.2780(3) -0.0165(4) 0.1835(3)
H24 H 0.3019 -0.0407 0.1652
Ag1_2 Ag 0.34378(2) 0.04313(3) 0.367710(19)
Ag1B Ag -0.15622(2) 0.54313(3) -0.632290(19)
Ag2B Ag 0.32279(2) -0.25171(3) -0.13282(2)
N2B N -0.2200(2) 0.3133(3) -0.0786(2)
N7B N -0.7041(2) -0.0303(3) -0.5832(2)
N11_2 N -0.7240(3) 0.0291(3) -0.7282(2)
Mo1 Mo -0.50130(3) -0.08784(3) -0.63955(2)
Mo2 Mo -0.51065(3) -0.29204(3) -0.64364(2)
Mo3 Mo -0.40858(3) -0.19324(3) -0.70943(2)
Mo4 Mo -0.5000 -0.40447(6) -0.7500
Mo5 Mo -0.5000 0.04009(6) -0.7500
O1 O -0.5733(2) -0.0823(3) -0.6305(2)
O2 O -0.4377(2) -0.2835(3) -0.6861(2)
O3 O -0.4475(2) -0.0230(3) -0.5877(2)
O4 O -0.5790(2) -0.2867(3) -0.6287(2)
O5 O -0.5506(2) -0.3592(3) -0.7123(2)
O6 O -0.4591(2) -0.3578(3) -0.5941(2)
O7 O -0.5351(2) -0.0127(3) -0.7070(2)
O8 O -0.4478(3) -0.1849(3) -0.7860(2)
O9 O -0.3240(2) -0.1989(3) -0.6828(2)
O10 O -0.4435(3) -0.4661(3) -0.6999(2)
O11 O -0.4661(2) -0.1896(3) -0.6068(2)
O12 O -0.4250(3) -0.1037(3) -0.6777(2)
O13 O -0.4380(4) 0.1046(5) -0.7053(3)
Mo1A Mo -0.49870(3) -0.08784(3) -0.86045(2)
Mo2A Mo -0.48935(3) -0.29204(3) -0.85636(2)
Mo3A Mo -0.59142(3) -0.19324(3) -0.79057(2)
O1A O -0.4267(2) -0.0823(3) -0.8695(2)
O2A O -0.5623(2) -0.2835(3) -0.8139(2)
O3A O -0.5525(2) -0.0230(3) -0.9123(2)
O4A O -0.4210(2) -0.2867(3) -0.8713(2)
O5A O -0.4494(2) -0.3592(3) -0.7877(2)
O6A O -0.5409(2) -0.3578(3) -0.9059(2)
O7A O -0.4649(2) -0.0127(3) -0.7930(2)
O8A O -0.5522(3) -0.1849(3) -0.7140(2)
O9A O -0.6760(2) -0.1989(3) -0.8172(2)
O10A O -0.5565(3) -0.4661(3) -0.8001(2)
O11A O -0.5339(2) -0.1896(3) -0.8932(2)
O12A O -0.5750(3) -0.1037(3) -0.8223(2)
O13A O -0.5620(4) 0.1046(5) -0.7947(3)
loop_
_geom_bond_atom_site_label_1
_geom_bond_atom_site_label_2
_geom_bond_site_symmetry_1
_geom_bond_site_symmetry_2
Ag1 N3 1_555 1_555
Ag2 N5 1_555 1_555
N1 C5 1_555 1_555
N2 C2 1_555 1_555
N3 C17 1_555 1_555
N4 C11 1_555 1_555
N5 C10 1_555 1_555
C1 H1 1_555 1_555
C2 H2 1_555 1_555
N6 C28 1_555 1_555
C3 H3 1_555 1_555
N7 C1 1_555 1_555
N8 C4 1_555 1_555
N9 Ag2 1_555 1_555
C4 C8 1_555 1_555
C5 N10 1_555 1_555
C6 H4 1_555 1_555
N10 C29 1_555 1_555
C7 H5 1_555 1_555
N11 C13 1_555 1_555
C8 C3 1_555 1_555
C9 H6 1_555 1_555
C10 H7 1_555 1_555
C11 N12 1_555 1_555
C12 C8 1_555 1_555
H8 C12 1_555 1_555
N12 C4 1_555 1_555
C13 H9 1_555 1_555
C14 C11 1_555 1_555
C15 H10 1_555 1_555
C16 N5 1_555 1_555
H11 C16 1_555 1_555
C17 C3 1_555 1_555
H12 C17 1_555 1_555
C18 C15 1_555 1_555
C19 N7 1_555 1_555
H13 C19 1_555 1_555
C20 C10 1_555 1_555
H14 C20 1_555 1_555
C21 N9 1_555 1_555
H15 C21 1_555 1_555
C22 C5 1_555 1_555
C23 C6 1_555 1_555
C24 C2 1_555 1_555
H16 C24 1_555 1_555
C25 C1 1_555 1_555
H17 C25 1_555 1_555
C26 N4 1_555 1_555
C27 N11 1_555 1_555
H18 C27 1_555 1_555
C28 N1 1_555 1_555
C29 N6 1_555 1_555
C30 C7 1_555 1_555
C31 N2 1_555 1_555
H19 C31 1_555 1_555
C32 C14 1_555 1_555
H20 C32 1_555 1_555
C33 N3 1_555 1_555
H21 C33 1_555 1_555
C34 C14 1_555 1_555
H22 C34 1_555 1_555
C35 N9 1_555 1_555
H23 C35 1_555 1_555
C36 C13 1_555 1_555
H24 C36 1_555 1_555
Mo1 O1 1_555 1_555
Mo2 O2 1_555 1_555
Mo3 O2 1_555 1_555
Mo4 O2 1_555 1_555
Mo5 O7 1_555 1_555
O3 Mo1 1_555 1_555
O4 Mo2 1_555 1_555
O5 Mo2 1_555 1_555
O6 Mo2 1_555 1_555
O7 Mo1 1_555 1_555
O8 Mo3 1_555 1_555
O9 Mo3 1_555 1_555
O10 Mo4 1_555 1_555
O11 Mo1 1_555 1_555
O12 Mo1 1_555 1_555
O13 Mo5 1_555 1_555
Ag1_2 N11 1_555 1_555
Ag1B N7 1_555 1_555
Ag2B N2 1_555 1_555
N2B Ag2 1_555 1_555
N7B Ag1 1_555 1_555
N11_2 Ag1 1_555 1_555
Mo1A O8 1_555 1_555
Mo2A O8 1_555 1_555
Mo3A O2A 1_555 1_555
O1A Mo1A 1_555 1_555
O2A Mo4 1_555 1_555
O3A Mo1A 1_555 1_555
O4A Mo2A 1_555 1_555
O5A Mo4 1_555 1_555
O6A Mo2A 1_555 1_555
O7A Mo5 1_555 1_555
O8A Mo1 1_555 1_555
O9A Mo3A 1_555 1_555
O10A Mo4 1_555 1_555
O11A Mo1A 1_555 1_555
O12A Mo1A 1_555 1_555
O13A Mo5 1_555 1_555
N8 C26 1_555 1_555
C6 C31 1_555 1_555
C7 C19 1_555 1_555
C9 C16 1_555 1_555
C9 C22 1_555 1_555
C12 C33 1_555 1_555
C15 C27 1_555 1_555
C18 C28 1_555 1_555
C18 C36 1_555 1_555
C20 C22 1_555 1_555
C21 C32 1_555 1_555
C23 C24 1_555 1_555
C23 C29 1_555 1_555
C25 C30 1_555 1_555
C26 C30 1_555 1_555
C34 C35 1_555 1_555
Mo2 O11 1_555 1_555
Mo2 O8A 1_555 1_555
Mo3 O12 1_555 1_555
Mo4 O5 1_555 1_555
Mo1A O7A 1_555 1_555
Mo2A O2A 1_555 1_555
Mo2A O5A 1_555 1_555
Mo2A O11A 1_555 1_555
Mo3A O8A 1_555 1_555
Mo3A O12A 1_555 1_555

#END
