
#######################################################################
#
#                 Cambridge Crystallographic Data Centre
#                                CCDC 
#
#######################################################################
#
# If this CIF has been generated from an entry in the Cambridge 
# Structural Database, then it will include bibliographic, chemical, 
# crystal, experimental, refinement or atomic coordinate data resulting 
# from the CCDC's data processing and validation procedures.
#
#######################################################################

data_QODHUO05
_symmetry_cell_setting           monoclinic
_symmetry_space_group_name_H-M   'C 2/c'
_symmetry_Int_Tables_number      15
_space_group_name_Hall           '-C 2yn'
loop_
_symmetry_equiv_pos_site_id
_symmetry_equiv_pos_as_xyz
1 x,y,z
2 -x,y,1/2-z
3 1/2+x,1/2+y,z
4 1/2-x,1/2+y,1/2-z
5 -x,-y,-z
6 x,-y,1/2+z
7 1/2-x,1/2-y,-z
8 1/2+x,1/2-y,1/2+z
_cell_length_a                   22.0267(7)
_cell_length_b                   16.6061(5)
_cell_length_c                   25.5742(12)
_cell_angle_alpha                90
_cell_angle_beta                 115.250(4)
_cell_angle_gamma                90
_cell_volume                     8460.7
loop_
_atom_site_label
_atom_site_type_symbol
_atom_site_fract_x
_atom_site_fract_y
_atom_site_fract_z
Mo1 Mo 0.5000 -0.03524(6) 0.2500
Mo2 Mo 0.50128(3) 0.08977(3) 0.13917(2)
Mo3 Mo 0.50873(3) 0.29074(4) 0.14285(2)
Mo4 Mo 0.5000 0.40706(7) 0.2500
Mo5 Mo 0.59199(3) 0.19286(3) 0.29039(2)
O1 O 0.4377(6) -0.0984(6) 0.2073(6)
O2 O 0.5338(3) 0.0152(3) 0.2058(2)
O3 O 0.4475(3) 0.0278(4) 0.0861(3)
O4 O 0.5728(3) 0.0824(4) 0.1305(3)
O5 O 0.4671(3) 0.1898(3) 0.1064(2)
O6 O 0.5511(3) 0.1860(3) 0.2144(2)
O7 O 0.5764(3) 0.1044(4) 0.3236(3)
O8 O 0.6761(3) 0.1969(3) 0.3167(3)
O9 O 0.5658(3) 0.2811(4) 0.3165(3)
O10 O 0.5783(3) 0.2876(4) 0.1297(3)
O11 O 0.4570(3) 0.3521(4) 0.0919(3)
O12 O 0.5472(3) 0.3578(4) 0.2116(3)
O13 O 0.4420(4) 0.4668(5) 0.2015(3)
Mo2A Mo 0.49872(3) 0.08977(3) 0.36083(2)
Mo3A Mo 0.49127(3) 0.29074(4) 0.35715(2)
Mo5A Mo 0.40801(3) 0.19286(3) 0.20961(2)
O1A O 0.5623(6) -0.0984(6) 0.2927(6)
O2A O 0.4662(3) 0.0152(3) 0.2942(2)
O3A O 0.5525(3) 0.0278(4) 0.4139(3)
O4A O 0.4272(3) 0.0824(4) 0.3695(3)
O5A O 0.5329(3) 0.1898(3) 0.3936(2)
O6A O 0.4489(3) 0.1860(3) 0.2856(2)
O7A O 0.4236(3) 0.1044(4) 0.1764(3)
O8A O 0.3239(3) 0.1969(3) 0.1833(3)
O9A O 0.4342(3) 0.2811(4) 0.1835(3)
O10A O 0.4217(3) 0.2876(4) 0.3703(3)
O11A O 0.5430(3) 0.3521(4) 0.4081(3)
O12A O 0.4528(3) 0.3578(4) 0.2884(3)
O13A O 0.5580(4) 0.4668(5) 0.2985(3)
Ag1 Ag 0.34424(3) -0.04292(4) -0.63274(2)
Ag2 Ag 0.32227(3) 0.25501(4) -0.13325(2)
C1 C 0.0327(3) 0.3107(4) -0.5904(3)
H1 H 0.0540 0.2897 -0.6120
C2 C 0.1237(3) 0.2559(4) -0.4990(3)
C3 C 0.5978(3) 0.4713(4) -0.0005(3)
C4 C 0.0598(3) 0.3009(4) -0.5312(3)
C5 C 0.2977(3) 0.0835(4) -0.4957(3)
H2 H 0.3199 0.0872 -0.4556
C6 C 0.5039(3) 0.3847(4) -0.0046(3)
H3 H 0.5236 0.3833 0.0356
C7 C 0.2095(3) 0.2261(4) -0.4136(3)
C8 C 0.7203(3) 0.6525(4) -0.1089(3)
H4 H 0.7006 0.6572 -0.1489
C9 C 0.6820(3) 0.5522(4) 0.0056(3)
C10 C 0.7775(3) 0.6383(4) 0.0086(3)
H5 H 0.7984 0.6345 0.0487
C11 C 0.5333(3) 0.4272(4) -0.0346(3)
C12 C 0.4441(3) 0.3444(4) -0.0366(3)
H6 H 0.4242 0.3164 -0.0165
C13 C 0.2428(3) 0.2367(4) -0.3496(3)
C14 C 0.0260(3) 0.3343(5) -0.5014(3)
H7 H 0.0431 0.3297 -0.4614
C15 C 0.2353(3) 0.0643(4) -0.6123(3)
H8 H 0.2135 0.0572 -0.6522
C16 C 0.7148(3) 0.6017(4) -0.0235(3)
C17 C 0.2354(3) 0.1216(4) -0.5265(3)
C18 C -0.0330(3) 0.3742(5) -0.5321(3)
H9 H -0.0550 0.3968 -0.5117
C19 C 0.6788(4) 0.4561(5) 0.1795(3)
H10 H 0.6348 0.4388 0.1592
C20 C 0.2041(3) 0.1095(4) -0.5857(3)
H11 H 0.1620 0.1319 -0.6075
C21 C 0.6802(3) 0.5021(4) 0.0869(3)
C22 C 0.7124(3) 0.4914(4) 0.1511(3)
C23 C 0.6865(3) 0.6099(4) -0.0827(3)
H12 H 0.6449 0.5869 -0.1051
C24 C -0.0269(3) 0.3526(5) -0.6169(3)
H13 H -0.0444 0.3600 -0.6567
C25 C 0.8073(3) 0.6801(4) -0.0213(3)
H14 H 0.8486 0.7046 -0.0001
C26 C 0.2053(3) 0.1721(4) -0.4962(3)
C27 C 0.3248(3) 0.0404(4) -0.5269(3)
H15 H 0.3668 0.0171 -0.5065
C28 C 0.5016(3) 0.4279(4) -0.0943(3)
H16 H 0.5191 0.4576 -0.1154
C29 C 0.8066(4) 0.5049(5) 0.2413(3)
H17 H 0.8506 0.5219 0.2624
C30 C 0.7118(4) 0.4464(6) 0.2392(3)
H18 H 0.6890 0.4222 0.2584
C31 C 0.2449(4) 0.2951(5) -0.2641(3)
H19 H 0.2260 0.3299 -0.2466
C32 C 0.4438(3) 0.3840(5) -0.1218(3)
H20 H 0.4245 0.3824 -0.1620
C33 C 0.2144(4) 0.2876(5) -0.3232(3)
H21 H 0.1754 0.3162 -0.3451
C34 C 0.3280(4) 0.2086(6) -0.2570(3)
H22 H 0.3672 0.1809 -0.2344
C35 C 0.7780(4) 0.5166(5) 0.1822(3)
H23 H 0.8019 0.5406 0.1640
C36 C 0.3022(4) 0.1993(5) -0.3161(3)
H24 H 0.3245 0.1684 -0.3328
N1 N 0.2957(3) 0.0300(3) -0.5833(2)
N2 N -0.0608(3) 0.3829(4) -0.5892(2)
N3 N 0.3008(3) 0.2544(4) -0.2303(3)
N4 N 0.1477(3) 0.2104(3) -0.5286(2)
N5 N 0.1526(3) 0.2668(3) -0.4419(2)
N6 N 0.2379(3) 0.1775(3) -0.4383(2)
N7 N 0.7799(3) 0.6871(3) -0.0789(2)
N8 N 0.4135(3) 0.3432(3) -0.0941(2)
N9 N 0.7753(3) 0.4708(4) 0.2700(3)
N10 N 0.6259(2) 0.5127(3) -0.0279(2)
N11 N 0.6229(3) 0.4630(3) 0.0575(2)
N12 N 0.7110(3) 0.5491(3) 0.0635(2)
Ag1B Ag -0.15576(3) 0.45708(4) -0.63274(2)
Ag1B_2 Ag 0.84424(3) 0.45708(4) 0.36726(2)
Ag2B Ag 0.82227(3) 0.75501(4) -0.13325(2)
N2B N 0.4392(3) -0.1171(4) -0.5892(2)
N7B N 0.2799(3) 0.1871(3) -0.0789(2)
N9B N 0.2753(3) -0.0292(4) -0.7300(3)
loop_
_geom_bond_atom_site_label_1
_geom_bond_atom_site_label_2
_geom_bond_site_symmetry_1
_geom_bond_site_symmetry_2
Mo1 O1 1_555 1_555
Mo2 O2 1_555 1_555
Mo3 O5 1_555 1_555
Mo4 O9 1_555 1_555
Mo5 O6 1_555 1_555
O2 Mo1 1_555 1_555
O3 Mo2 1_555 1_555
O4 Mo2 1_555 1_555
O5 Mo2 1_555 1_555
O6 Mo2 1_555 1_555
O7 Mo5 1_555 1_555
O8 Mo5 1_555 1_555
O9 Mo5 1_555 1_555
O10 Mo3 1_555 1_555
O11 Mo3 1_555 1_555
O12 Mo3 1_555 1_555
O13 Mo4 1_555 1_555
Ag1 N1 1_555 1_555
Ag2 N3 1_555 1_555
C1 H1 1_555 1_555
C2 C4 1_555 1_555
C3 C11 1_555 1_555
C4 C1 1_555 1_555
C5 H2 1_555 1_555
C6 H3 1_555 1_555
C7 C13 1_555 1_555
C8 H4 1_555 1_555
C9 C16 1_555 1_555
C10 H5 1_555 1_555
C11 C6 1_555 1_555
C12 C6 1_555 1_555
H6 C12 1_555 1_555
C13 C33 1_555 1_555
C14 C4 1_555 1_555
H7 C14 1_555 1_555
C15 H8 1_555 1_555
C16 C10 1_555 1_555
C17 C5 1_555 1_555
C18 C14 1_555 1_555
H9 C18 1_555 1_555
C19 H10 1_555 1_555
C20 C15 1_555 1_555
H11 C20 1_555 1_555
C21 C22 1_555 1_555
C22 C19 1_555 1_555
C23 C8 1_555 1_555
H12 C23 1_555 1_555
C24 C1 1_555 1_555
H13 C24 1_555 1_555
C25 C10 1_555 1_555
H14 C25 1_555 1_555
C26 C17 1_555 1_555
C27 C5 1_555 1_555
H15 C27 1_555 1_555
C28 C11 1_555 1_555
H16 C28 1_555 1_555
C29 H17 1_555 1_555
C30 C19 1_555 1_555
H18 C30 1_555 1_555
C31 H19 1_555 1_555
C32 C28 1_555 1_555
H20 C32 1_555 1_555
C33 C31 1_555 1_555
H21 C33 1_555 1_555
C34 H22 1_555 1_555
C35 C22 1_555 1_555
H23 C35 1_555 1_555
C36 C13 1_555 1_555
H24 C36 1_555 1_555
N1 C15 1_555 1_555
N2 C18 1_555 1_555
N3 C31 1_555 1_555
N4 C2 1_555 1_555
N5 C2 1_555 1_555
N6 C7 1_555 1_555
N7 C8 1_555 1_555
N8 Ag2 1_555 1_555
N9 C29 1_555 1_555
N10 C3 1_555 1_555
N11 C3 1_555 1_555
N12 C9 1_555 1_555
Mo2A O7 1_555 1_555
Mo3A O9 1_555 1_555
Mo5A O6A 1_555 1_555
O1A Mo1 1_555 1_555
O2A Mo1 1_555 1_555
O3A Mo2A 1_555 1_555
O4A Mo2A 1_555 1_555
O5A Mo2A 1_555 1_555
O6A Mo2A 1_555 1_555
O7A Mo2 1_555 1_555
O8A Mo5A 1_555 1_555
O9A Mo3 1_555 1_555
O10A Mo3A 1_555 1_555
O11A Mo3A 1_555 1_555
O12A Mo4 1_555 1_555
O13A Mo4 1_555 1_555
Ag1B N2 1_555 1_555
Ag1B_2 N9 1_555 1_555
Ag2B N7 1_555 1_555
N2B Ag1 1_555 1_555
N7B Ag2 1_555 1_555
N9B Ag1 1_555 1_555
Mo3 O6 1_555 1_555
Mo4 O12 1_555 1_555
Mo4 O9A 1_555 1_555
C7 N5 1_555 1_555
C9 N10 1_555 1_555
C12 N8 1_555 1_555
C16 C23 1_555 1_555
C17 C20 1_555 1_555
C21 N11 1_555 1_555
C21 N12 1_555 1_555
C24 N2 1_555 1_555
C25 N7 1_555 1_555
C26 N4 1_555 1_555
C26 N6 1_555 1_555
C27 N1 1_555 1_555
C29 C35 1_555 1_555
C30 N9 1_555 1_555
C32 N8 1_555 1_555
C34 C36 1_555 1_555
C34 N3 1_555 1_555
Mo2A O2A 1_555 1_555
Mo3A O5A 1_555 1_555
Mo3A O6A 1_555 1_555
Mo3A O12A 1_555 1_555
Mo5A O7A 1_555 1_555
Mo5A O9A 1_555 1_555

#END
