
#######################################################################
#
#                 Cambridge Crystallographic Data Centre
#                                CCDC 
#
#######################################################################
#
# If this CIF has been generated from an entry in the Cambridge 
# Structural Database, then it will include bibliographic, chemical, 
# crystal, experimental, refinement or atomic coordinate data resulting 
# from the CCDC's data processing and validation procedures.
#
#######################################################################

data_QODHUO06
_symmetry_cell_setting           monoclinic
_symmetry_space_group_name_H-M   'C 2/c'
_symmetry_Int_Tables_number      15
_space_group_name_Hall           '-C 2yn'
loop_
_symmetry_equiv_pos_site_id
_symmetry_equiv_pos_as_xyz
1 x,y,z
2 -x,y,1/2-z
3 1/2+x,1/2+y,z
4 1/2-x,1/2+y,1/2-z
5 -x,-y,-z
6 x,-y,1/2+z
7 1/2-x,1/2-y,-z
8 1/2+x,1/2-y,1/2+z
_cell_length_a                   22.0501(7)
_cell_length_b                   16.5079(5)
_cell_length_c                   25.5960(12)
_cell_angle_alpha                90
_cell_angle_beta                 115.291(4)
_cell_angle_gamma                90
_cell_volume                     8423.93
loop_
_atom_site_label
_atom_site_type_symbol
_atom_site_fract_x
_atom_site_fract_y
_atom_site_fract_z
Mo1 Mo 0.5000 0.09332(6) 0.2500
Mo2 Mo 0.50944(2) 0.20885(3) 0.14323(2)
Mo3 Mo 0.50127(2) 0.41067(3) 0.139337(19)
Mo4 Mo 0.5000 0.53694(6) 0.2500
Mo5 Mo 0.59175(2) 0.30689(3) 0.29073(2)
O1 O 0.4423(3) 0.0332(4) 0.2008(3)
O2 O 0.5481(2) 0.1415(3) 0.2117(2)
O3 O 0.4580(3) 0.1455(3) 0.0924(2)
O4 O 0.5788(3) 0.2129(3) 0.1300(2)
O5 O 0.4669(2) 0.3100(3) 0.10612(19)
O6 O 0.5511(3) 0.3140(3) 0.2145(2)
O7 O 0.5652(2) 0.2180(3) 0.3162(2)
O8 O 0.6763(2) 0.3020(3) 0.3163(2)
O9 O 0.5761(3) 0.3956(3) 0.3234(2)
O10 O 0.4478(3) 0.4736(3) 0.0866(2)
O11 O 0.5732(2) 0.4171(3) 0.1308(2)
O12 O 0.5343(2) 0.4856(3) 0.2063(2)
O13 O 0.4374(5) 0.6002(5) 0.2061(4)
Mo2A Mo 0.49056(2) 0.20885(3) 0.35677(2)
Mo3A Mo 0.49873(2) 0.41067(3) 0.360663(19)
Mo5A Mo 0.40825(2) 0.30689(3) 0.20927(2)
O1A O 0.5577(3) 0.0332(4) 0.2992(3)
O2A O 0.4519(2) 0.1415(3) 0.2883(2)
O3A O 0.5420(3) 0.1455(3) 0.4076(2)
O4A O 0.4212(3) 0.2129(3) 0.3700(2)
O5A O 0.5331(2) 0.3100(3) 0.39388(19)
O6A O 0.4489(3) 0.3140(3) 0.2855(2)
O7A O 0.4348(2) 0.2180(3) 0.1838(2)
O8A O 0.3237(2) 0.3020(3) 0.1837(2)
O9A O 0.4239(3) 0.3956(3) 0.1766(2)
O10A O 0.5522(3) 0.4736(3) 0.4134(2)
O11A O 0.4268(2) 0.4171(3) 0.3692(2)
O12A O 0.4657(2) 0.4856(3) 0.2937(2)
O13A O 0.5626(5) 0.6002(5) 0.2939(4)
Ag1 Ag 0.34423(2) 0.54263(3) -0.63245(2)
Ag2 Ag 0.32266(3) 0.24611(3) -0.13300(2)
C1 C 0.1238(3) 0.2435(3) -0.4986(2)
C2 C 0.5980(3) 0.0293(3) 0.0002(2)
C3 C 0.7203(3) -0.1523(3) -0.1083(2)
H1 H 0.7006 -0.1569 -0.1484
C4 C 0.0328(3) 0.1885(4) -0.5898(3)
H2 H 0.0543 0.2095 -0.6112
C5 C 0.0597(3) 0.1987(3) -0.5308(2)
C6 C 0.7778(3) -0.1384(3) 0.0090(3)
H3 H 0.7986 -0.1350 0.0491
C7 C 0.4440(3) 0.1558(4) -0.0359(3)
H4 H 0.4239 0.1835 -0.0158
C8 C 0.2352(3) 0.4355(4) -0.6118(3)
H5 H 0.2134 0.4425 -0.6517
C9 C 0.2978(3) 0.4160(3) -0.4954(2)
H6 H 0.3200 0.4118 -0.4554
C10 C 0.2430(3) 0.2632(3) -0.3494(2)
C11 C 0.6824(3) -0.0522(3) 0.0061(2)
C12 C 0.5036(3) 0.1155(4) -0.0042(2)
H7 H 0.5232 0.1167 0.0360
C13 C 0.2097(3) 0.2739(3) -0.4130(2)
C14 C 0.0258(3) 0.1649(4) -0.5010(2)
H8 H 0.0431 0.1694 -0.4610
C15 C 0.5335(2) 0.0734(3) -0.0339(2)
C16 C 0.2357(3) 0.3787(3) -0.5260(2)
C17 C 0.2054(2) 0.3280(3) -0.4956(2)
C18 C 0.6792(3) 0.0441(4) 0.1806(3)
H9 H 0.6352 0.0619 0.1605
C19 C 0.2040(3) 0.3903(4) -0.5854(2)
H10 H 0.1620 0.3677 -0.6070
C20 C -0.0331(3) 0.1250(4) -0.5314(3)
H11 H -0.0553 0.1028 -0.5110
C21 C 0.7153(3) -0.1019(3) -0.0231(2)
C22 C 0.6802(3) -0.0021(3) 0.0874(2)
C23 C 0.7125(3) 0.0083(4) 0.1513(2)
C24 C 0.8078(3) -0.1801(4) -0.0212(3)
H12 H 0.8492 -0.2045 -0.0003
C25 C 0.3253(3) 0.4594(3) -0.5266(3)
H13 H 0.3674 0.4826 -0.5062
C26 C -0.0267(3) 0.1464(4) -0.6164(3)
H14 H -0.0440 0.1387 -0.6562
C27 C 0.5020(3) 0.0727(4) -0.0935(3)
H15 H 0.5198 0.0433 -0.1146
C28 C 0.8071(3) -0.0049(4) 0.2419(3)
H16 H 0.8513 -0.0215 0.2628
C29 C 0.6863(3) -0.1099(3) -0.0825(2)
H17 H 0.6445 -0.0873 -0.1048
C30 C 0.7122(3) 0.0533(5) 0.2402(3)
H18 H 0.6895 0.0774 0.2595
C31 C 0.4439(3) 0.1164(4) -0.1211(2)
H19 H 0.4244 0.1179 -0.1612
C32 C 0.2453(3) 0.2047(4) -0.2634(3)
H20 H 0.2263 0.1700 -0.2459
C33 C 0.3023(3) 0.3015(4) -0.3156(3)
H21 H 0.3243 0.3332 -0.3322
C34 C 0.3283(3) 0.2920(5) -0.2564(3)
H22 H 0.3675 0.3197 -0.2338
C35 C 0.7781(3) -0.0165(4) 0.1829(3)
H23 H 0.8021 -0.0405 0.1647
C36 C 0.2151(3) 0.2113(4) -0.3227(3)
H24 H 0.1767 0.1816 -0.3446
N1 N -0.0608(2) 0.1162(3) -0.5886(2)
N2 N 0.2956(2) 0.4700(3) -0.5831(2)
N3 N 0.3008(3) 0.2457(3) -0.2296(2)
N4 N 0.1478(2) 0.2896(3) -0.5282(2)
N5 N 0.2380(2) 0.3226(3) -0.43786(19)
N6 N 0.1529(2) 0.2328(3) -0.4412(2)
N7 N 0.7800(2) -0.1867(3) -0.0787(2)
N8 N 0.4136(2) 0.1572(3) -0.0933(2)
N9 N 0.7754(3) 0.0290(3) 0.2708(2)
N10 N 0.6261(2) -0.0121(3) -0.02746(19)
N11 N 0.6229(2) 0.0370(3) 0.0580(2)
N12 N 0.7115(2) -0.0495(3) 0.0641(2)
Ag1B Ag -0.15577(2) 0.04263(3) -0.63245(2)
Ag1B_2 Ag 0.84423(2) 0.04263(3) 0.36755(2)
Ag2B Ag 0.82266(3) -0.25389(3) -0.13300(2)
N1B N 0.4392(2) 0.6162(3) -0.5886(2)
N7B N 0.2800(2) 0.3133(3) -0.0787(2)
N9B N 0.2754(3) 0.5290(3) -0.7292(2)
loop_
_geom_bond_atom_site_label_1
_geom_bond_atom_site_label_2
_geom_bond_site_symmetry_1
_geom_bond_site_symmetry_2
Mo1 O1 1_555 1_555
Mo2 O2 1_555 1_555
Mo3 O5 1_555 1_555
Mo4 O12 1_555 1_555
Mo5 O6 1_555 1_555
O2 Mo1 1_555 1_555
O3 Mo2 1_555 1_555
O4 Mo2 1_555 1_555
O5 Mo2 1_555 1_555
O6 Mo2 1_555 1_555
O7 Mo1 1_555 1_555
O8 Mo5 1_555 1_555
O9 Mo5 1_555 1_555
O10 Mo3 1_555 1_555
O11 Mo3 1_555 1_555
O12 Mo3 1_555 1_555
O13 Mo4 1_555 1_555
Ag1 N2 1_555 1_555
Ag2 N3 1_555 1_555
C1 C5 1_555 1_555
C2 C15 1_555 1_555
C3 H1 1_555 1_555
C4 H2 1_555 1_555
C5 C4 1_555 1_555
C6 H3 1_555 1_555
C7 H4 1_555 1_555
C8 H5 1_555 1_555
C9 H6 1_555 1_555
C10 C13 1_555 1_555
C11 C21 1_555 1_555
C12 C7 1_555 1_555
H7 C12 1_555 1_555
C13 N5 1_555 1_555
C14 C5 1_555 1_555
H8 C14 1_555 1_555
C15 C12 1_555 1_555
C16 C9 1_555 1_555
C17 C16 1_555 1_555
C18 H9 1_555 1_555
C19 C8 1_555 1_555
H10 C19 1_555 1_555
C20 C14 1_555 1_555
H11 C20 1_555 1_555
C21 C6 1_555 1_555
C22 C23 1_555 1_555
C23 C18 1_555 1_555
C24 C6 1_555 1_555
H12 C24 1_555 1_555
C25 C9 1_555 1_555
H13 C25 1_555 1_555
C26 C4 1_555 1_555
H14 C26 1_555 1_555
C27 C15 1_555 1_555
H15 C27 1_555 1_555
C28 H16 1_555 1_555
C29 C3 1_555 1_555
H17 C29 1_555 1_555
C30 C18 1_555 1_555
H18 C30 1_555 1_555
C31 C27 1_555 1_555
H19 C31 1_555 1_555
C32 H20 1_555 1_555
C33 C10 1_555 1_555
H21 C33 1_555 1_555
C34 C33 1_555 1_555
H22 C34 1_555 1_555
C35 C23 1_555 1_555
H23 C35 1_555 1_555
C36 C10 1_555 1_555
H24 C36 1_555 1_555
N1 C20 1_555 1_555
N2 C8 1_555 1_555
N3 C32 1_555 1_555
N4 C1 1_555 1_555
N5 C17 1_555 1_555
N6 C1 1_555 1_555
N7 C3 1_555 1_555
N8 Ag2 1_555 1_555
N9 C28 1_555 1_555
N10 C2 1_555 1_555
N11 C2 1_555 1_555
N12 C11 1_555 1_555
Mo2A O7 1_555 1_555
Mo3A O9 1_555 1_555
Mo5A O6A 1_555 1_555
O1A Mo1 1_555 1_555
O2A Mo1 1_555 1_555
O3A Mo2A 1_555 1_555
O4A Mo2A 1_555 1_555
O5A Mo2A 1_555 1_555
O6A Mo2A 1_555 1_555
O7A Mo1 1_555 1_555
O8A Mo5A 1_555 1_555
O9A Mo3 1_555 1_555
O10A Mo3A 1_555 1_555
O11A Mo3A 1_555 1_555
O12A Mo4 1_555 1_555
O13A Mo4 1_555 1_555
Ag1B N1 1_555 1_555
Ag1B_2 N9 1_555 1_555
Ag2B N7 1_555 1_555
N1B Ag1 1_555 1_555
N7B Ag2 1_555 1_555
N9B Ag1 1_555 1_555
Mo2 O7A 1_555 1_555
Mo3 O6 1_555 1_555
Mo5 O7 1_555 1_555
C7 N8 1_555 1_555
C11 N10 1_555 1_555
C13 N6 1_555 1_555
C16 C19 1_555 1_555
C17 N4 1_555 1_555
C21 C29 1_555 1_555
C22 N11 1_555 1_555
C22 N12 1_555 1_555
C24 N7 1_555 1_555
C25 N2 1_555 1_555
C26 N1 1_555 1_555
C28 C35 1_555 1_555
C30 N9 1_555 1_555
C31 N8 1_555 1_555
C32 C36 1_555 1_555
C34 N3 1_555 1_555
Mo2A O2A 1_555 1_555
Mo3A O5A 1_555 1_555
Mo3A O6A 1_555 1_555
Mo3A O12A 1_555 1_555
Mo5A O7A 1_555 1_555
Mo5A O9A 1_555 1_555

#END
