
#######################################################################
#
#                 Cambridge Crystallographic Data Centre
#                                CCDC 
#
#######################################################################
#
# If this CIF has been generated from an entry in the Cambridge 
# Structural Database, then it will include bibliographic, chemical, 
# crystal, experimental, refinement or atomic coordinate data resulting 
# from the CCDC's data processing and validation procedures.
#
#######################################################################

data_QODHUO10
_symmetry_cell_setting           monoclinic
_symmetry_space_group_name_H-M   'C 2/c'
_symmetry_Int_Tables_number      15
_space_group_name_Hall           '-C 2yn'
loop_
_symmetry_equiv_pos_site_id
_symmetry_equiv_pos_as_xyz
1 x,y,z
2 -x,y,1/2-z
3 1/2+x,1/2+y,z
4 1/2-x,1/2+y,1/2-z
5 -x,-y,-z
6 x,-y,1/2+z
7 1/2-x,1/2-y,-z
8 1/2+x,1/2-y,1/2+z
_cell_length_a                   22.0935(9)
_cell_length_b                   16.2897(4)
_cell_length_c                   25.6306(11)
_cell_angle_alpha                90
_cell_angle_beta                 115.277(5)
_cell_angle_gamma                90
_cell_volume                     8341.17
loop_
_atom_site_label
_atom_site_type_symbol
_atom_site_fract_x
_atom_site_fract_y
_atom_site_fract_z
Ag1 Ag -0.65611(2) -0.45704(3) -0.632255(18)
Ag2 Ag -0.17711(2) -0.25187(3) -0.132785(18)
N1 N -0.2616(2) -0.1776(3) -0.43679(19)
N2 N 0.2799(2) -0.6869(3) -0.07872(19)
N3 N 0.1226(2) -0.4629(3) 0.05882(19)
N4 N -0.5608(2) -0.3842(3) -0.58779(19)
N5 N -0.0868(2) -0.3422(3) -0.09259(19)
C1 C -0.3763(3) -0.2572(3) -0.4976(2)
N6 N 0.1263(2) -0.5111(3) -0.02678(18)
N7 N -0.3519(2) -0.2102(3) -0.52719(19)
C2 C -0.2649(3) -0.0649(3) -0.6119(2)
H1 H -0.2869 -0.0578 -0.6516
N8 N -0.2042(2) -0.0304(3) -0.58332(19)
N9 N 0.2115(2) -0.5499(3) 0.06477(19)
N10 N -0.1996(2) -0.2533(3) -0.2287(2)
C3 C 0.2780(3) -0.6377(3) 0.0092(2)
H2 H 0.2989 -0.6340 0.0492
C4 C -0.2016(2) -0.0842(3) -0.4950(2)
H3 H -0.1792 -0.0887 -0.4551
C5 C 0.2195(3) -0.6517(3) -0.1081(2)
H4 H 0.1995 -0.6559 -0.1481
C6 C -0.4402(2) -0.3022(3) -0.5298(2)
N11 N 0.2758(2) -0.4708(3) 0.2718(2)
C7 C 0.0976(2) -0.4696(3) 0.0011(2)
N12 N -0.3470(2) -0.2680(3) -0.44068(18)
C8 C -0.0564(3) -0.3430(3) -0.0349(2)
H5 H -0.0764 -0.3147 -0.0148
C9 C -0.4671(3) -0.3120(3) -0.5890(2)
H6 H -0.4455 -0.2905 -0.6102
C10 C 0.0031(3) -0.3838(3) -0.0036(2)
H7 H 0.0225 -0.3829 0.0365
C11 C -0.2566(3) -0.2372(3) -0.3483(2)
C12 C 0.1804(3) -0.5022(3) 0.0883(2)
C13 C 0.1789(3) -0.4562(4) 0.1816(2)
H8 H 0.1348 -0.4388 0.1618
C14 C -0.4740(3) -0.3351(3) -0.4998(2)
H9 H -0.4567 -0.3303 -0.4599
C15 C 0.2155(2) -0.6013(3) -0.0223(2)
C16 C -0.1738(3) -0.0409(3) -0.5259(2)
H10 H -0.1317 -0.0178 -0.5057
C17 C -0.2905(3) -0.2267(3) -0.4124(2)
C18 C 0.0331(2) -0.4261(3) -0.0330(2)
C19 C 0.3078(3) -0.6796(3) -0.0208(2)
H11 H 0.3493 -0.7040 0.0002
C20 C -0.2638(3) -0.1209(3) -0.5251(2)
C21 C -0.0567(3) -0.3834(4) -0.1206(2)
H12 H -0.0765 -0.3824 -0.1607
C22 C -0.2944(3) -0.1722(3) -0.4948(2)
C23 C 0.3078(3) -0.5049(4) 0.2429(3)
H13 H 0.3520 -0.5214 0.2637
C24 C 0.1828(3) -0.5515(3) 0.0069(2)
C25 C 0.1856(3) -0.6095(3) -0.0816(2)
H14 H 0.1436 -0.5871 -0.1034
C26 C -0.2961(3) -0.1104(3) -0.5848(2)
H15 H -0.3379 -0.1338 -0.6061
C27 C -0.5269(3) -0.3544(3) -0.6160(2)
H16 H -0.5442 -0.3625 -0.6557
C28 C -0.5335(3) -0.3750(4) -0.5303(2)
H17 H -0.5561 -0.3968 -0.5101
C29 C -0.1715(3) -0.2067(4) -0.2552(2)
H18 H -0.1322 -0.1790 -0.2325
C30 C 0.2122(3) -0.4921(3) 0.1520(2)
C31 C 0.0023(3) -0.4271(3) -0.0927(2)
H19 H 0.0206 -0.4564 -0.1136
C32 C -0.1978(3) -0.1972(4) -0.3148(2)
H20 H -0.1762 -0.1648 -0.3315
C33 C 0.2122(3) -0.4468(4) 0.2406(3)
H21 H 0.1894 -0.4225 0.2599
C34 C -0.2848(3) -0.2894(4) -0.3218(2)
H22 H -0.3229 -0.3198 -0.3436
C35 C 0.2783(3) -0.5167(3) 0.1834(2)
H23 H 0.3022 -0.5405 0.1650
C36 C -0.2551(3) -0.2950(4) -0.2626(3)
H24 H -0.2744 -0.3295 -0.2450
Ag1_2 Ag 0.34389(2) -0.45704(3) 0.367745(18)
Ag1B Ag -0.15611(2) 0.04296(3) -0.632255(18)
Ag2B Ag 0.32289(2) -0.75187(3) -0.132785(18)
N2B N -0.2201(2) -0.1869(3) -0.07872(19)
N8B N -0.7042(2) -0.5304(3) -0.58332(19)
N11_2 N -0.7242(2) -0.4708(3) -0.7282(2)
Mo1 Mo -0.50134(2) -0.58796(3) -0.639577(19)
Mo2 Mo -0.59137(2) -0.69324(3) -0.79066(2)
Mo3 Mo -0.51064(2) -0.79194(3) -0.643666(19)
Mo4 Mo -0.5000 -0.90469(5) -0.7500
Mo5 Mo -0.5000 -0.46013(5) -0.7500
O1 O -0.5628(2) -0.7830(3) -0.81435(18)
O2 O -0.5519(2) -0.6848(3) -0.71378(18)
O3 O -0.4591(2) -0.8574(3) -0.59390(19)
O4 O -0.5503(2) -0.8586(3) -0.71245(18)
O5 O -0.5351(2) -0.5125(3) -0.70697(18)
O6 O -0.4477(2) -0.5232(3) -0.58752(18)
O7 O -0.5791(2) -0.7869(3) -0.6290(2)
O8 O -0.6760(2) -0.6992(3) -0.8169(2)
O9 O -0.4434(2) -0.9665(3) -0.6998(2)
O10 O -0.4666(2) -0.6900(3) -0.60683(18)
O11 O -0.5750(2) -0.6035(3) -0.8225(2)
O12 O -0.4383(3) -0.3959(4) -0.7050(3)
O13 O -0.5733(2) -0.5821(3) -0.63063(18)
Mo1A Mo -0.49866(2) -0.58796(3) -0.860423(19)
Mo2A Mo -0.40863(2) -0.69324(3) -0.70934(2)
Mo3A Mo -0.48936(2) -0.79194(3) -0.856334(19)
O1A O -0.4372(2) -0.7830(3) -0.68565(18)
O2A O -0.4481(2) -0.6848(3) -0.78622(18)
O3A O -0.5409(2) -0.8574(3) -0.90610(19)
O4A O -0.4497(2) -0.8586(3) -0.78755(18)
O5A O -0.4649(2) -0.5125(3) -0.79303(18)
O6A O -0.5523(2) -0.5232(3) -0.91248(18)
O7A O -0.4209(2) -0.7869(3) -0.8710(2)
O8A O -0.3240(2) -0.6992(3) -0.6831(2)
O9A O -0.5566(2) -0.9665(3) -0.8002(2)
O10A O -0.5334(2) -0.6900(3) -0.89317(18)
O11A O -0.4250(2) -0.6035(3) -0.6775(2)
O12A O -0.5617(3) -0.3959(4) -0.7950(3)
O13A O -0.4267(2) -0.5821(3) -0.86937(18)
loop_
_geom_bond_atom_site_label_1
_geom_bond_atom_site_label_2
_geom_bond_site_symmetry_1
_geom_bond_site_symmetry_2
Ag1 N4 1_555 1_555
Ag2 N5 1_555 1_555
N1 C17 1_555 1_555
N2 C5 1_555 1_555
N3 C7 1_555 1_555
N4 C27 1_555 1_555
N5 C8 1_555 1_555
C1 N7 1_555 1_555
N6 C7 1_555 1_555
N7 C22 1_555 1_555
C2 H1 1_555 1_555
N8 C2 1_555 1_555
N9 C12 1_555 1_555
N10 Ag2 1_555 1_555
C3 H2 1_555 1_555
C4 H3 1_555 1_555
C5 H4 1_555 1_555
C6 C1 1_555 1_555
N11 C23 1_555 1_555
C7 C18 1_555 1_555
N12 C1 1_555 1_555
C8 H5 1_555 1_555
C9 C6 1_555 1_555
H6 C9 1_555 1_555
C10 C8 1_555 1_555
H7 C10 1_555 1_555
C11 C17 1_555 1_555
C12 N3 1_555 1_555
C13 H8 1_555 1_555
C14 C6 1_555 1_555
H9 C14 1_555 1_555
C15 C3 1_555 1_555
C16 N8 1_555 1_555
H10 C16 1_555 1_555
C17 N12 1_555 1_555
C18 C10 1_555 1_555
C19 N2 1_555 1_555
H11 C19 1_555 1_555
C20 C4 1_555 1_555
C21 N5 1_555 1_555
H12 C21 1_555 1_555
C22 N1 1_555 1_555
C23 H13 1_555 1_555
C24 N6 1_555 1_555
C25 C5 1_555 1_555
H14 C25 1_555 1_555
C26 C2 1_555 1_555
H15 C26 1_555 1_555
C27 C9 1_555 1_555
H16 C27 1_555 1_555
C28 N4 1_555 1_555
H17 C28 1_555 1_555
C29 N10 1_555 1_555
H18 C29 1_555 1_555
C30 C12 1_555 1_555
C31 C18 1_555 1_555
H19 C31 1_555 1_555
C32 C11 1_555 1_555
H20 C32 1_555 1_555
C33 N11 1_555 1_555
H21 C33 1_555 1_555
C34 C11 1_555 1_555
H22 C34 1_555 1_555
C35 C23 1_555 1_555
H23 C35 1_555 1_555
C36 N10 1_555 1_555
H24 C36 1_555 1_555
Mo1 O2 1_555 1_555
Mo2 O1 1_555 1_555
Mo3 O2 1_555 1_555
Mo4 O1 1_555 1_555
Mo5 O5 1_555 1_555
O1 Mo3A 1_555 1_555
O2 Mo2 1_555 1_555
O3 Mo3 1_555 1_555
O4 Mo3 1_555 1_555
O5 Mo1 1_555 1_555
O6 Mo1 1_555 1_555
O7 Mo3 1_555 1_555
O8 Mo2 1_555 1_555
O9 Mo4 1_555 1_555
O10 Mo1 1_555 1_555
O11 Mo2 1_555 1_555
O12 Mo5 1_555 1_555
O13 Mo1 1_555 1_555
Ag1_2 N11 1_555 1_555
Ag1B N8 1_555 1_555
Ag2B N2 1_555 1_555
N2B Ag2 1_555 1_555
N8B Ag1 1_555 1_555
N11_2 Ag1 1_555 1_555
Mo1A O11 1_555 1_555
Mo2A O1A 1_555 1_555
Mo3A O2A 1_555 1_555
O1A Mo3 1_555 1_555
O2A Mo1A 1_555 1_555
O3A Mo3A 1_555 1_555
O4A Mo4 1_555 1_555
O5A Mo5 1_555 1_555
O6A Mo1A 1_555 1_555
O7A Mo3A 1_555 1_555
O8A Mo2A 1_555 1_555
O9A Mo4 1_555 1_555
O10A Mo1A 1_555 1_555
O11A Mo1 1_555 1_555
O12A Mo5 1_555 1_555
O13A Mo1A 1_555 1_555
N9 C24 1_555 1_555
C3 C19 1_555 1_555
C4 C16 1_555 1_555
C13 C30 1_555 1_555
C13 C33 1_555 1_555
C14 C28 1_555 1_555
C15 C24 1_555 1_555
C15 C25 1_555 1_555
C20 C22 1_555 1_555
C20 C26 1_555 1_555
C21 C31 1_555 1_555
C29 C32 1_555 1_555
C30 C35 1_555 1_555
C34 C36 1_555 1_555
Mo3 O10 1_555 1_555
Mo4 O4 1_555 1_555
Mo4 O1A 1_555 1_555
Mo1A O5A 1_555 1_555
Mo2A O2A 1_555 1_555
Mo2A O11A 1_555 1_555
Mo3A O4A 1_555 1_555
Mo3A O10A 1_555 1_555

#END
