
#######################################################################
#
#                 Cambridge Crystallographic Data Centre
#                                CCDC 
#
#######################################################################
#
# If this CIF has been generated from an entry in the Cambridge 
# Structural Database, then it will include bibliographic, chemical, 
# crystal, experimental, refinement or atomic coordinate data resulting 
# from the CCDC's data processing and validation procedures.
#
#######################################################################

data_QODSUZ
_symmetry_cell_setting           monoclinic
_symmetry_space_group_name_H-M   'C 2/c'
_symmetry_Int_Tables_number      15
_space_group_name_Hall           '-C 2yn'
loop_
_symmetry_equiv_pos_site_id
_symmetry_equiv_pos_as_xyz
1 x,y,z
2 -x,y,1/2-z
3 1/2+x,1/2+y,z
4 1/2-x,1/2+y,1/2-z
5 -x,-y,-z
6 x,-y,1/2+z
7 1/2-x,1/2-y,-z
8 1/2+x,1/2-y,1/2+z
_cell_length_a                   21.9475(9)
_cell_length_b                   16.6741(7)
_cell_length_c                   25.5226(17)
_cell_angle_alpha                90
_cell_angle_beta                 115.119(6)
_cell_angle_gamma                90
_cell_volume                     8456.81
loop_
_atom_site_label
_atom_site_type_symbol
_atom_site_fract_x
_atom_site_fract_y
_atom_site_fract_z
Ag1 Ag 0.32170(4) 0.74386(6) -0.13357(3)
Ag2 Ag 0.84425(4) 0.54332(5) 0.36689(3)
C1 C 0.5975(4) 0.5283(4) -0.0011(3)
C2 C 0.6234(4) 0.2440(4) 0.5004(3)
C3 C 0.5597(4) 0.1987(5) 0.4680(3)
C4 C 0.7764(4) 0.3615(5) 0.0081(4)
H1 H 0.7969 0.3646 0.0483
C5 C 0.5036(4) 0.6150(5) -0.0052(3)
H2 H 0.5233 0.6165 0.0350
C6 C 0.7975(4) 0.4164(5) 0.5038(4)
H3 H 0.8195 0.4123 0.5439
C7 C 0.5325(4) 0.1904(6) 0.4094(4)
H4 H 0.5535 0.2129 0.3880
C8 C 0.6814(4) 0.4478(5) 0.0050(4)
C9 C 0.7198(4) 0.3471(5) -0.1095(4)
H5 H 0.7004 0.3425 -0.1496
C10 C 0.4437(4) 0.6551(5) -0.0372(4)
H6 H 0.4238 0.6833 -0.0171
C11 C 0.6790(5) 0.5440(6) 0.1794(4)
H7 H 0.6350 0.5618 0.1590
C12 C 0.7096(4) 0.2740(5) 0.5858(3)
C13 C 0.5330(4) 0.5727(5) -0.0351(3)
C14 C 0.7427(4) 0.2637(5) 0.6492(4)
C15 C 0.7352(4) 0.3791(5) 0.4730(3)
C16 C 0.6799(4) 0.4980(5) 0.0857(3)
C17 C 0.7120(4) 0.5076(5) 0.1504(3)
C18 C 0.7358(4) 0.4351(6) 0.3872(4)
H8 H 0.7148 0.4412 0.3473
C19 C 0.7038(4) 0.3905(5) 0.4138(4)
H9 H 0.6617 0.3684 0.3920
C20 C 0.7046(4) 0.3278(4) 0.5031(4)
C21 C 0.7146(4) 0.3990(4) -0.0239(3)
C22 C 0.5256(4) 0.1650(6) 0.4978(4)
H10 H 0.5428 0.1690 0.5379
C23 C 0.8252(4) 0.4590(5) 0.4734(4)
H11 H 0.8674 0.4817 0.4938
C24 C 0.6856(4) 0.3894(5) -0.0833(3)
H12 H 0.6434 0.4111 -0.1056
C25 C 0.8065(5) 0.3192(6) -0.0221(4)
H13 H 0.8476 0.2943 -0.0009
C26 C 0.8062(5) 0.4949(7) 0.2408(4)
H14 H 0.8501 0.4772 0.2618
C27 C 0.4669(5) 0.1265(6) 0.4673(4)
H15 H 0.4443 0.1045 0.4876
C28 C 0.4730(4) 0.1479(6) 0.3820(4)
H16 H 0.4559 0.1398 0.3422
C29 C 0.7111(5) 0.5539(7) 0.2384(4)
H17 H 0.6881 0.5785 0.2574
C30 C 0.7456(5) 0.2058(7) 0.7355(4)
H18 H 0.7268 0.1710 0.7531
C31 C 0.5015(4) 0.5722(6) -0.0947(4)
H19 H 0.5191 0.5425 -0.1160
C32 C 0.4438(5) 0.6163(6) -0.1222(4)
H20 H 0.4248 0.6188 -0.1624
C33 C 0.8020(5) 0.3002(6) 0.6828(4)
H21 H 0.8248 0.3308 0.6663
C34 C 0.7145(5) 0.2129(7) 0.6765(4)
H22 H 0.6753 0.1844 0.6549
C35 C 0.7777(5) 0.4840(6) 0.1816(4)
H23 H 0.8022 0.4614 0.1632
C36 C 0.8277(5) 0.2905(8) 0.7426(4)
H24 H 0.8669 0.3182 0.7653
N1 N 0.4132(3) 0.6558(4) -0.0945(3)
N2 N 0.7793(3) 0.3129(4) -0.0793(3)
N3 N 0.7753(4) 0.5290(5) 0.2699(3)
N4 N 0.6228(3) 0.5372(4) 0.0571(3)
N5 N 0.6252(3) 0.4869(4) -0.0289(3)
N6 N 0.7109(3) 0.4502(4) 0.0628(3)
N7 N 0.7955(3) 0.4698(4) 0.4166(3)
N8 N 0.4396(3) 0.1182(5) 0.4105(3)
N9 N 0.8008(4) 0.2455(5) 0.7692(3)
N10 N 0.7377(3) 0.3229(4) 0.5610(3)
N11 N 0.6476(3) 0.2900(4) 0.4706(3)
N12 N 0.6525(3) 0.2337(4) 0.5575(3)
Ag1B Ag 0.82170(4) 0.24386(6) -0.13357(3)
Ag1B_2 Ag 0.82170(4) 0.24386(6) 0.86643(3)
Ag2B Ag 0.34425(4) 0.04332(5) 0.36689(3)
N2B N 0.2793(3) 0.8129(4) -0.0793(3)
N8B N 0.9396(3) 0.6182(5) 0.4105(3)
N9B N 0.3008(4) 0.7455(5) -0.2308(3)
Mo1 Mo 1.0000 0.53360(8) 0.2500
Mo2 Mo 0.99866(4) 0.40982(4) 0.36097(3)
Mo3 Mo 0.99198(4) 0.20983(5) 0.35758(3)
Mo4 Mo 1.0000 0.09296(8) 0.2500
Mo5 Mo 0.90780(3) 0.30751(4) 0.21004(3)
O1 O 1.0632(8) 0.5956(8) 0.2915(8)
O2 O 0.9665(4) 0.4854(5) 0.2946(3)
O3 O 1.0535(4) 0.4704(6) 0.4149(4)
O4 O 0.9276(4) 0.4189(5) 0.3697(3)
O5 O 1.0332(4) 0.3104(5) 0.3942(3)
O6 O 0.9482(4) 0.3136(5) 0.2855(3)
O7 O 0.9245(4) 0.3957(5) 0.1770(3)
O8 O 0.9342(4) 0.2200(5) 0.1833(4)
O9 O 0.9226(4) 0.2119(6) 0.3707(4)
O10 O 1.0446(5) 0.1507(7) 0.4092(4)
O11 O 0.9533(4) 0.1422(5) 0.2887(3)
O12 O 0.8237(3) 0.3037(4) 0.1828(4)
O13 O 1.0584(6) 0.0343(6) 0.2973(5)
Mo2A Mo 1.00134(4) 0.40982(4) 0.13903(3)
Mo3A Mo 1.00802(4) 0.20983(5) 0.14242(3)
Mo5A Mo 1.09220(3) 0.30751(4) 0.28996(3)
O1A O 0.9368(8) 0.5956(8) 0.2085(8)
O2A O 1.0335(4) 0.4854(5) 0.2054(3)
O3A O 0.9465(4) 0.4704(6) 0.0851(4)
O4A O 1.0724(4) 0.4189(5) 0.1303(3)
O5A O 0.9668(4) 0.3104(5) 0.1058(3)
O6A O 1.0518(4) 0.3136(5) 0.2145(3)
O7A O 1.0755(4) 0.3957(5) 0.3230(3)
O8A O 1.0658(4) 0.2200(5) 0.3167(4)
O9A O 1.0774(4) 0.2119(6) 0.1293(4)
O10A O 0.9554(5) 0.1507(7) 0.0908(4)
O11A O 1.0467(4) 0.1422(5) 0.2113(3)
O12A O 1.1763(3) 0.3037(4) 0.3172(4)
O13A O 0.9416(6) 0.0343(6) 0.2027(5)
loop_
_geom_bond_atom_site_label_1
_geom_bond_atom_site_label_2
_geom_bond_site_symmetry_1
_geom_bond_site_symmetry_2
Ag1 N1 1_555 1_555
Ag2 N3 1_555 1_555
C1 C13 1_555 1_555
C2 C3 1_555 1_555
C3 C7 1_555 1_555
C4 H1 1_555 1_555
C5 H2 1_555 1_555
C6 H3 1_555 1_555
C7 H4 1_555 1_555
C8 C21 1_555 1_555
C9 H5 1_555 1_555
C10 C5 1_555 1_555
H6 C10 1_555 1_555
C11 H7 1_555 1_555
C12 C14 1_555 1_555
C13 C5 1_555 1_555
C14 C33 1_555 1_555
C15 C6 1_555 1_555
C16 C17 1_555 1_555
C17 C11 1_555 1_555
C18 H8 1_555 1_555
C19 C15 1_555 1_555
H9 C19 1_555 1_555
C20 C15 1_555 1_555
C21 C4 1_555 1_555
C22 C3 1_555 1_555
H10 C22 1_555 1_555
C23 C6 1_555 1_555
H11 C23 1_555 1_555
C24 C9 1_555 1_555
H12 C24 1_555 1_555
C25 C4 1_555 1_555
H13 C25 1_555 1_555
C26 H14 1_555 1_555
C27 C22 1_555 1_555
H15 C27 1_555 1_555
C28 C7 1_555 1_555
H16 C28 1_555 1_555
C29 C11 1_555 1_555
H17 C29 1_555 1_555
C30 H18 1_555 1_555
C31 C13 1_555 1_555
H19 C31 1_555 1_555
C32 C31 1_555 1_555
H20 C32 1_555 1_555
C33 H21 1_555 1_555
C34 C14 1_555 1_555
H22 C34 1_555 1_555
C35 C17 1_555 1_555
H23 C35 1_555 1_555
C36 C33 1_555 1_555
H24 C36 1_555 1_555
N1 C10 1_555 1_555
N2 C9 1_555 1_555
N3 C26 1_555 1_555
N4 C1 1_555 1_555
N5 C1 1_555 1_555
N6 C8 1_555 1_555
N7 Ag2 1_555 1_555
N8 C27 1_555 1_555
N9 C30 1_555 1_555
N10 C12 1_555 1_555
N11 C2 1_555 1_555
N12 C2 1_555 1_555
Mo1 O1 1_555 1_555
Mo2 O2 1_555 1_555
Mo3 O5 1_555 1_555
Mo4 O8 1_555 1_555
Mo5 O6 1_555 1_555
O2 Mo1 1_555 1_555
O3 Mo2 1_555 1_555
O4 Mo2 1_555 1_555
O5 Mo2 1_555 1_555
O6 Mo2 1_555 1_555
O7 Mo5 1_555 1_555
O8 Mo5 1_555 1_555
O9 Mo3 1_555 1_555
O10 Mo3 1_555 1_555
O11 Mo3 1_555 1_555
O12 Mo5 1_555 1_555
O13 Mo4 1_555 1_555
Ag1B N2 1_555 1_555
Ag1B_2 N9 1_555 1_555
Ag2B N8 1_555 1_555
N2B Ag1 1_555 1_555
N8B Ag2 1_555 1_555
N9B Ag1 1_555 1_555
Mo2A O7 1_555 1_555
Mo3A O8 1_555 1_555
Mo5A O6A 1_555 1_555
O1A Mo1 1_555 1_555
O2A Mo1 1_555 1_555
O3A Mo2A 1_555 1_555
O4A Mo2A 1_555 1_555
O5A Mo2A 1_555 1_555
O6A Mo2A 1_555 1_555
O7A Mo2 1_555 1_555
O8A Mo3 1_555 1_555
O9A Mo3A 1_555 1_555
O10A Mo3A 1_555 1_555
O11A Mo4 1_555 1_555
O12A Mo5A 1_555 1_555
O13A Mo4 1_555 1_555
C8 N5 1_555 1_555
C12 N12 1_555 1_555
C16 N4 1_555 1_555
C16 N6 1_555 1_555
C18 C19 1_555 1_555
C18 N7 1_555 1_555
C20 N10 1_555 1_555
C20 N11 1_555 1_555
C21 C24 1_555 1_555
C23 N7 1_555 1_555
C25 N2 1_555 1_555
C26 C35 1_555 1_555
C28 N8 1_555 1_555
C29 N3 1_555 1_555
C30 C34 1_555 1_555
C32 N1 1_555 1_555
C36 N9 1_555 1_555
Mo3 O6 1_555 1_555
Mo4 O11 1_555 1_555
Mo4 O8A 1_555 1_555
Mo2A O2A 1_555 1_555
Mo3A O5A 1_555 1_555
Mo3A O6A 1_555 1_555
Mo3A O11A 1_555 1_555
Mo5A O7A 1_555 1_555
Mo5A O8A 1_555 1_555

#END
