
#######################################################################
#
#                 Cambridge Crystallographic Data Centre
#                                CCDC 
#
#######################################################################
#
# If this CIF has been generated from an entry in the Cambridge 
# Structural Database, then it will include bibliographic, chemical, 
# crystal, experimental, refinement or atomic coordinate data resulting 
# from the CCDC's data processing and validation procedures.
#
#######################################################################

data_QOFBIY02
_symmetry_cell_setting           monoclinic
_symmetry_space_group_name_H-M   'C 2/c'
_symmetry_Int_Tables_number      15
_space_group_name_Hall           '-C 2yn'
loop_
_symmetry_equiv_pos_site_id
_symmetry_equiv_pos_as_xyz
1 x,y,z
2 -x,y,1/2-z
3 1/2+x,1/2+y,z
4 1/2-x,1/2+y,1/2-z
5 -x,-y,-z
6 x,-y,1/2+z
7 1/2-x,1/2-y,-z
8 1/2+x,1/2-y,1/2+z
_cell_length_a                   22.0532(5)
_cell_length_b                   16.3828(5)
_cell_length_c                   25.6809(8)
_cell_angle_alpha                90
_cell_angle_beta                 115.391(4)
_cell_angle_gamma                90
_cell_volume                     8382.07
loop_
_atom_site_label
_atom_site_type_symbol
_atom_site_fract_x
_atom_site_fract_y
_atom_site_fract_z
Ag1 Ag 0.343888(14) 0.45794(2) 0.367957(14)
Ag2 Ag 0.823012(14) 0.25006(2) 0.867545(14)
Mo1 Mo 0.5000 0.46264(4) 0.2500
Mo2 Mo 0.498184(15) 0.58777(2) 0.360364(15)
Mo3 Mo 0.488896(15) 0.79128(2) 0.356366(15)
Mo4 Mo 0.5000 0.90106(3) 0.2500
Mo5 Mo 0.408358(15) 0.69313(2) 0.209001(15)
C1 C 0.62426(17) 0.2573(2) 0.50269(17)
C2 C 1.00246(17) 0.3828(2) 0.99685(17)
H1 H 1.0218 0.3820 1.0369
C3 C 0.53329(18) 0.3116(2) 0.41154(18)
H2 H 0.5547 0.2898 0.3904
C4 C 1.27767(18) 0.6371(2) 1.00952(18)
H3 H 1.2985 0.6339 1.0495
C5 C 0.73574(17) 0.0667(2) 0.38882(18)
H4 H 0.7140 0.0609 0.3490
C6 C 0.56003(17) 0.3025(2) 0.47056(17)
C7 C 1.09731(17) 0.4691(2) 1.00160(17)
C8 C 1.21965(18) 0.6506(2) 0.89287(18)
H5 H 1.1993 0.6558 0.8530
C9 C 0.71001(17) 0.2265(2) 0.58794(17)
C10 C 0.94336(17) 0.3424(2) 0.96570(18)
H6 H 0.9232 0.3149 0.9858
C11 C 0.52662(18) 0.3359(3) 0.50049(18)
H7 H 0.5439 0.3310 0.5403
C12 C 0.74322(17) 0.2368(3) 0.65183(17)
C13 C 1.17820(18) 0.4572(3) 1.18188(18)
H8 H 1.1341 0.4395 1.1620
C14 C 1.3061(2) 0.5068(3) 1.24296(19)
H9 H 1.3503 0.5237 1.2638
C15 C 1.21544(17) 0.6003(2) 0.97815(17)
C16 C 0.46710(18) 0.3765(3) 0.46970(19)
H10 H 0.4449 0.3991 0.4900
C17 C 1.17955(17) 0.5024(2) 1.08870(17)
C18 C 1.03272(17) 0.4248(2) 0.96747(17)
C19 C 0.82586(18) 0.0407(2) 0.47462(17)
H11 H 0.8676 0.0164 0.4950
C20 C 0.8270(2) 0.2028(3) 0.7448(2)
H12 H 0.8655 0.1736 0.7674
C21 C 1.18608(17) 0.6080(2) 0.91861(17)
H13 H 1.1444 0.5847 0.8965
C22 C 0.79855(17) 0.0842(2) 0.50551(18)
H14 H 0.8209 0.0884 0.5454
C23 C 0.70600(17) 0.1725(2) 0.50584(17)
C24 C 1.18210(17) 0.5509(2) 1.00720(17)
C25 C 1.30779(18) 0.6784(2) 0.97975(18)
H15 H 1.3493 0.7026 1.0008
C26 C 0.47327(18) 0.3545(3) 0.38447(18)
H16 H 0.4559 0.3620 0.3448
C27 C 1.21077(19) 0.4484(3) 1.24078(18)
H17 H 1.1878 0.4245 1.2599
C28 C 1.00208(18) 0.4247(3) 0.90778(18)
H18 H 1.0208 0.4532 0.8869
C29 C 1.27737(18) 0.5183(3) 1.18389(18)
H19 H 1.3014 0.5425 1.1658
C30 C 0.70463(18) 0.1111(2) 0.41562(18)
H20 H 0.6626 0.1339 0.3942
C31 C 0.94299(18) 0.3813(3) 0.87979(18)
H21 H 0.9231 0.3803 0.8397
C32 C 1.21120(18) 0.4925(3) 1.15223(17)
C33 C 0.73634(17) 0.1219(2) 0.47507(17)
C34 C 0.7452(2) 0.2935(3) 0.73782(19)
H22 H 0.7266 0.3286 0.7554
C35 C 0.71564(19) 0.2884(3) 0.67849(18)
H23 H 0.6778 0.3193 0.6568
C36 C 0.80146(19) 0.1946(3) 0.68548(18)
H24 H 0.8227 0.1618 0.6688
N1 N 0.43924(14) 0.3854(2) 0.41206(15)
N2 N 0.79631(14) 0.03108(19) 0.41731(14)
N3 N 0.79971(16) 0.2501(2) 0.77150(15)
N4 N 0.64818(14) 0.2108(2) 0.47294(14)
N5 N 0.73866(14) 0.17717(19) 0.56336(14)
N6 N 0.65333(14) 0.2683(2) 0.55991(14)
N7 N 0.91294(14) 0.3404(2) 0.90776(15)
N8 N 1.28001(15) 0.6853(2) 0.92195(15)
N9 N 1.27483(16) 0.4731(2) 1.27201(15)
N10 N 1.12603(14) 0.5099(2) 0.97341(14)
N11 N 1.21081(14) 0.5491(2) 1.06505(15)
N12 N 1.12185(14) 0.4624(2) 1.05918(14)
O1 O 0.5618(2) 0.3994(3) 0.2951(2)
O2 O 0.46390(13) 0.51390(18) 0.29297(12)
O3 O 0.55219(13) 0.52423(19) 0.41186(13)
O4 O 0.42641(13) 0.58255(19) 0.37022(13)
O5 O 0.32348(13) 0.69965(18) 0.18235(15)
O6 O 0.42639(14) 0.60415(19) 0.17914(15)
O7 O 0.44537(15) 0.68531(18) 0.28571(13)
O8 O 0.53343(12) 0.69001(17) 0.39257(12)
O9 O 0.42120(13) 0.78742(19) 0.37168(14)
O10 O 0.54140(13) 0.85717(19) 0.40567(14)
O11 O 0.43827(13) 0.78249(19) 0.18693(13)
O12 O 0.44952(12) 0.85823(17) 0.28791(13)
O13 O 0.55687(15) 0.9640(2) 0.30001(14)
Ag1A Ag 0.656112(14) 0.45794(2) 0.132043(14)
Ag2A Ag 0.176988(14) 0.25006(2) -0.367545(14)
Mo2A Mo 0.501816(15) 0.58777(2) 0.139636(15)
Mo3A Mo 0.511104(15) 0.79128(2) 0.143634(15)
Mo5A Mo 0.591642(15) 0.69313(2) 0.290999(15)
C1A C 0.37574(17) 0.2573(2) -0.00269(17)
C2A C -0.00246(17) 0.3828(2) -0.49685(17)
H1A H -0.0218 0.3820 -0.5369
C3A C 0.46671(18) 0.3116(2) 0.08846(18)
H2A H 0.4453 0.2898 0.1096
C4A C -0.27767(18) 0.6371(2) -0.50952(18)
H3A H -0.2985 0.6339 -0.5495
C5A C 0.26426(17) 0.0667(2) 0.11118(18)
H4A H 0.2860 0.0609 0.1510
C6A C 0.43997(17) 0.3025(2) 0.02944(17)
C7A C -0.09731(17) 0.4691(2) -0.50160(17)
C8A C -0.21965(18) 0.6506(2) -0.39287(18)
H5A H -0.1993 0.6558 -0.3530
C9A C 0.28999(17) 0.2265(2) -0.08794(17)
C10A C 0.05664(17) 0.3424(2) -0.46570(18)
H6A H 0.0768 0.3149 -0.4858
C11A C 0.47338(18) 0.3359(3) -0.00049(18)
H7A H 0.4561 0.3310 -0.0403
C12A C 0.25678(17) 0.2368(3) -0.15183(17)
C13A C -0.17820(18) 0.4572(3) -0.68188(18)
H8A H -0.1341 0.4395 -0.6620
C14A C -0.3061(2) 0.5068(3) -0.74296(19)
H9A H -0.3503 0.5237 -0.7638
C15A C -0.21544(17) 0.6003(2) -0.47815(17)
C16A C 0.53290(18) 0.3765(3) 0.03030(19)
H10A H 0.5551 0.3991 0.0100
C17A C -0.17955(17) 0.5024(2) -0.58870(17)
C18A C -0.03272(17) 0.4248(2) -0.46747(17)
C19A C 0.17414(18) 0.0407(2) 0.02538(17)
H11A H 0.1324 0.0164 0.0050
C20A C 0.1730(2) 0.2028(3) -0.2448(2)
H12A H 0.1345 0.1736 -0.2674
C21A C -0.18608(17) 0.6080(2) -0.41861(17)
H13A H -0.1444 0.5847 -0.3965
C22A C 0.20145(17) 0.0842(2) -0.00551(18)
H14A H 0.1791 0.0884 -0.0454
C23A C 0.29400(17) 0.1725(2) -0.00584(17)
C24A C -0.18210(17) 0.5509(2) -0.50720(17)
C25A C -0.30779(18) 0.6784(2) -0.47975(18)
H15A H -0.3493 0.7026 -0.5008
C26A C 0.52673(18) 0.3545(3) 0.11553(18)
H16A H 0.5441 0.3620 0.1552
C27A C -0.21077(19) 0.4484(3) -0.74078(18)
H17A H -0.1878 0.4245 -0.7599
C28A C -0.00208(18) 0.4247(3) -0.40778(18)
H18A H -0.0208 0.4532 -0.3869
C29A C -0.27737(18) 0.5183(3) -0.68389(18)
H19A H -0.3014 0.5425 -0.6658
C30A C 0.29537(18) 0.1111(2) 0.08438(18)
H20A H 0.3374 0.1339 0.1058
C31A C 0.05701(18) 0.3813(3) -0.37979(18)
H21A H 0.0769 0.3803 -0.3397
C32A C -0.21120(18) 0.4925(3) -0.65223(17)
C33A C 0.26366(17) 0.1219(2) 0.02493(17)
C34A C 0.2548(2) 0.2935(3) -0.23782(19)
H22A H 0.2734 0.3286 -0.2554
C35A C 0.28436(19) 0.2884(3) -0.17849(18)
H23A H 0.3222 0.3193 -0.1568
C36A C 0.19854(19) 0.1946(3) -0.18548(18)
H24A H 0.1773 0.1618 -0.1688
N1A N 0.56076(14) 0.3854(2) 0.08794(15)
N2A N 0.20369(14) 0.03108(19) 0.08269(14)
N3A N 0.20029(16) 0.2501(2) -0.27150(15)
N4A N 0.35182(14) 0.2108(2) 0.02706(14)
N5A N 0.26134(14) 0.17717(19) -0.06336(14)
N6A N 0.34667(14) 0.2683(2) -0.05991(14)
N7A N 0.08706(14) 0.3404(2) -0.40776(15)
N8A N -0.28001(15) 0.6853(2) -0.42195(15)
N9A N -0.27483(16) 0.4731(2) -0.77201(15)
N10A N -0.12603(14) 0.5099(2) -0.47341(14)
N11A N -0.21081(14) 0.5491(2) -0.56505(15)
N12A N -0.12185(14) 0.4624(2) -0.55918(14)
O1A O 0.4382(2) 0.3994(3) 0.2049(2)
O2A O 0.53610(13) 0.51390(18) 0.20703(12)
O3A O 0.44781(13) 0.52423(19) 0.08814(13)
O4A O 0.57359(13) 0.58255(19) 0.12978(13)
O5A O 0.67652(13) 0.69965(18) 0.31765(15)
O6A O 0.57361(14) 0.60415(19) 0.32086(15)
O7A O 0.55463(15) 0.68531(18) 0.21429(13)
O8A O 0.46657(12) 0.69001(17) 0.10743(12)
O9A O 0.57880(13) 0.78742(19) 0.12832(14)
O10A O 0.45860(13) 0.85717(19) 0.09433(14)
O11A O 0.56173(13) 0.78249(19) 0.31307(13)
O12A O 0.55048(12) 0.85823(17) 0.21209(13)
O13A O 0.44313(15) 0.9640(2) 0.19999(14)
Ag1_2 Ag 1.343888(14) 0.45794(2) 1.367957(14)
Ag1A_2 Ag -0.343888(14) 0.45794(2) -0.867957(14)
Ag1B Ag 0.843888(14) -0.04206(2) 0.367957(14)
Ag1C Ag 0.156112(14) -0.04206(2) 0.132043(14)
Ag2B Ag 1.323012(14) 0.75006(2) 0.867545(14)
Ag2C Ag -0.323012(14) 0.75006(2) -0.367545(14)
N2B N 0.29631(14) 0.53108(19) 0.41731(14)
N2C N 0.70369(14) 0.53108(19) 0.08269(14)
N8B N 0.78001(15) 0.1853(2) 0.92195(15)
N8C N 0.21999(15) 0.1853(2) -0.42195(15)
N9_2 N 0.27483(16) 0.4731(2) 0.27201(15)
N9A_2 N 0.72517(16) 0.4731(2) 0.22799(15)
O14 O 0.5995(4) 1.1143(5) 0.2677(3)
H25 H 0.5866 1.0700 0.2770
H26 H 0.5699 1.1506 0.2624
O15 O 0.5000 1.2387(16) 0.2500
H27 H 0.4696 1.2034 0.2443
H27A H 0.5304 1.2034 0.2557
H28? H 0.4813 1.2842 0.2368
loop_
_geom_bond_atom_site_label_1
_geom_bond_atom_site_label_2
_geom_bond_site_symmetry_1
_geom_bond_site_symmetry_2
Ag1 N1 1_555 1_555
Ag2 N3 1_555 1_555
Mo1 O1 1_555 1_555
Mo2 O2 1_555 1_555
Mo3 O7 1_555 1_555
Mo4 O11 1_555 1_555
Mo5 O5 1_555 1_555
C1 C6 1_555 1_555
C2 H1 1_555 1_555
C3 H2 1_555 1_555
C4 H3 1_555 1_555
C5 H4 1_555 1_555
C6 C3 1_555 1_555
C7 C18 1_555 1_555
C8 H5 1_555 1_555
C9 C12 1_555 1_555
C10 C2 1_555 1_555
H6 C10 1_555 1_555
C11 C6 1_555 1_555
H7 C11 1_555 1_555
C12 C35 1_555 1_555
C13 H8 1_555 1_555
C14 H9 1_555 1_555
C15 C4 1_555 1_555
C16 C11 1_555 1_555
H10 C16 1_555 1_555
C17 C32 1_555 1_555
C18 C2 1_555 1_555
C19 H11 1_555 1_555
C20 H12 1_555 1_555
C21 C8 1_555 1_555
H13 C21 1_555 1_555
C22 C19 1_555 1_555
H14 C22 1_555 1_555
C23 C33 1_555 1_555
C24 C15 1_555 1_555
C25 C4 1_555 1_555
H15 C25 1_555 1_555
C26 C3 1_555 1_555
H16 C26 1_555 1_555
C27 C13 1_555 1_555
H17 C27 1_555 1_555
C28 C18 1_555 1_555
H18 C28 1_555 1_555
C29 C14 1_555 1_555
H19 C29 1_555 1_555
C30 C5 1_555 1_555
H20 C30 1_555 1_555
C31 C28 1_555 1_555
H21 C31 1_555 1_555
C32 C13 1_555 1_555
C33 C22 1_555 1_555
C34 H22 1_555 1_555
C35 C34 1_555 1_555
H23 C35 1_555 1_555
C36 C12 1_555 1_555
H24 C36 1_555 1_555
N1 C16 1_555 1_555
N2 C5 1_555 1_555
N3 C20 1_555 1_555
N4 C1 1_555 1_555
N5 C9 1_555 1_555
N6 C1 1_555 1_555
N7 Ag2 1_555 1_555
N8 C8 1_555 1_555
N9 C14 1_555 1_555
N10 C7 1_555 1_555
N11 C17 1_555 1_555
N12 C7 1_555 1_555
O2 Mo1 1_555 1_555
O3 Mo2 1_555 1_555
O4 Ag1 1_555 1_555
O6 Mo5 1_555 1_555
O7 Mo2 1_555 1_555
O8 Mo2 1_555 1_555
O9 Mo3 1_555 1_555
O10 Mo3 1_555 1_555
O11 Mo5 1_555 1_555
O12 Mo3 1_555 1_555
O13 Mo4 1_555 1_555
O14 H25 1_555 1_555
H26 O14 1_555 1_555
O15 H27 1_555 1_555
Ag1A N1A 1_555 1_555
Ag2A N3A 1_555 1_555
Mo2A O6 1_555 1_555
Mo3A O11 1_555 1_555
Mo5A O5A 1_555 1_555
C1A C6A 1_555 1_555
C2A H1A 1_555 1_555
C3A H2A 1_555 1_555
C4A H3A 1_555 1_555
C5A H4A 1_555 1_555
C6A C3A 1_555 1_555
C7A C18A 1_555 1_555
C8A H5A 1_555 1_555
C9A C12A 1_555 1_555
C10A C2A 1_555 1_555
H6A C10A 1_555 1_555
C11A C6A 1_555 1_555
H7A C11A 1_555 1_555
C12A C35A 1_555 1_555
C13A H8A 1_555 1_555
C14A H9A 1_555 1_555
C15A C4A 1_555 1_555
C16A C11A 1_555 1_555
H10A C16A 1_555 1_555
C17A C32A 1_555 1_555
C18A C2A 1_555 1_555
C19A H11A 1_555 1_555
C20A H12A 1_555 1_555
C21A C8A 1_555 1_555
H13A C21A 1_555 1_555
C22A C19A 1_555 1_555
H14A C22A 1_555 1_555
C23A C33A 1_555 1_555
C24A C15A 1_555 1_555
C25A C4A 1_555 1_555
H15A C25A 1_555 1_555
C26A C3A 1_555 1_555
H16A C26A 1_555 1_555
C27A C13A 1_555 1_555
H17A C27A 1_555 1_555
C28A C18A 1_555 1_555
H18A C28A 1_555 1_555
C29A C14A 1_555 1_555
H19A C29A 1_555 1_555
C30A C5A 1_555 1_555
H20A C30A 1_555 1_555
C31A C28A 1_555 1_555
H21A C31A 1_555 1_555
C32A C13A 1_555 1_555
C33A C22A 1_555 1_555
C34A H22A 1_555 1_555
C35A C34A 1_555 1_555
H23A C35A 1_555 1_555
C36A C12A 1_555 1_555
H24A C36A 1_555 1_555
N1A C16A 1_555 1_555
N2A C5A 1_555 1_555
N3A C20A 1_555 1_555
N4A C1A 1_555 1_555
N5A C9A 1_555 1_555
N6A C1A 1_555 1_555
N7A Ag2A 1_555 1_555
N8A C8A 1_555 1_555
N9A C14A 1_555 1_555
N10A C7A 1_555 1_555
N11A C17A 1_555 1_555
N12A C7A 1_555 1_555
O1A Mo1 1_555 1_555
O2A Mo1 1_555 1_555
O3A Mo2A 1_555 1_555
O4A Ag1A 1_555 1_555
O6A Mo2 1_555 1_555
O7A Mo2A 1_555 1_555
O8A Mo2A 1_555 1_555
O9A Mo3A 1_555 1_555
O10A Mo3A 1_555 1_555
O11A Mo3 1_555 1_555
O12A Mo4 1_555 1_555
O13A Mo4 1_555 1_555
Ag1_2 N9 1_555 1_555
Ag1A_2 N9A 1_555 1_555
Ag1B N2 1_555 1_555
Ag1C N2A 1_555 1_555
Ag2B N8 1_555 1_555
Ag2C N8A 1_555 1_555
N2B Ag1 1_555 1_555
N2C Ag1A 1_555 1_555
N8B Ag2 1_555 1_555
N8C Ag2A 1_555 1_555
N9_2 Ag1 1_555 1_555
N9A_2 Ag1A 1_555 1_555
H27A O15 1_555 1_555
Mo2 O4 1_555 1_555
Mo3 O8 1_555 1_555
Mo4 O12 1_555 1_555
Mo4 O11A 1_555 1_555
Mo5 O7 1_555 1_555
C9 N6 1_555 1_555
C10 N7 1_555 1_555
C15 C21 1_555 1_555
C17 N12 1_555 1_555
C19 N2 1_555 1_555
C20 C36 1_555 1_555
C23 N4 1_555 1_555
C23 N5 1_555 1_555
C24 N10 1_555 1_555
C24 N11 1_555 1_555
C25 N8 1_555 1_555
C26 N1 1_555 1_555
C27 N9 1_555 1_555
C29 C32 1_555 1_555
C30 C33 1_555 1_555
C31 N7 1_555 1_555
C34 N3 1_555 1_555
Mo2A O2A 1_555 1_555
Mo2A O4A 1_555 1_555
Mo3A O7A 1_555 1_555
Mo3A O8A 1_555 1_555
Mo3A O12A 1_555 1_555
Mo5A O6A 1_555 1_555
Mo5A O7A 1_555 1_555
Mo5A O11A 1_555 1_555
C9A N6A 1_555 1_555
C10A N7A 1_555 1_555
C15A C21A 1_555 1_555
C17A N12A 1_555 1_555
C19A N2A 1_555 1_555
C20A C36A 1_555 1_555
C23A N4A 1_555 1_555
C23A N5A 1_555 1_555
C24A N10A 1_555 1_555
C24A N11A 1_555 1_555
C25A N8A 1_555 1_555
C26A N1A 1_555 1_555
C27A N9A 1_555 1_555
C29A C32A 1_555 1_555
C30A C33A 1_555 1_555
C31A N7A 1_555 1_555
C34A N3A 1_555 1_555

#END
