
#######################################################################
#
#                 Cambridge Crystallographic Data Centre
#                                CCDC 
#
#######################################################################
#
# If this CIF has been generated from an entry in the Cambridge 
# Structural Database, then it will include bibliographic, chemical, 
# crystal, experimental, refinement or atomic coordinate data resulting 
# from the CCDC's data processing and validation procedures.
#
#######################################################################

data_QOFCOF
_symmetry_cell_setting           monoclinic
_symmetry_space_group_name_H-M   'C 2/c'
_symmetry_Int_Tables_number      15
_space_group_name_Hall           '-C 2yn'
loop_
_symmetry_equiv_pos_site_id
_symmetry_equiv_pos_as_xyz
1 x,y,z
2 -x,y,1/2-z
3 1/2+x,1/2+y,z
4 1/2-x,1/2+y,1/2-z
5 -x,-y,-z
6 x,-y,1/2+z
7 1/2-x,1/2-y,-z
8 1/2+x,1/2-y,1/2+z
_cell_length_a                   22.0121(6)
_cell_length_b                   16.5301(6)
_cell_length_c                   25.6641(9)
_cell_angle_alpha                90
_cell_angle_beta                 115.386(5)
_cell_angle_gamma                90
_cell_volume                     8436.5
loop_
_atom_site_label
_atom_site_type_symbol
_atom_site_fract_x
_atom_site_fract_y
_atom_site_fract_z
Ag1 Ag -0.226084(16) 0.70883(2) -0.631747(15)
Ag2 Ag 0.294821(17) 1.00096(2) -0.132307(15)
C1 C -0.07686(19) 1.4005(3) -0.10736(19)
H1 H -0.0962 1.4056 -0.1473
C2 C 0.1280(2) 1.0618(3) -0.58873(19)
H2 H 0.0856 1.0398 -0.6100
C3 C 0.15399(18) 1.2193(2) 0.00136(18)
C4 C 0.12825(18) 1.0072(2) -0.49744(18)
C5 C -0.0968(2) 0.8167(3) -0.61092(19)
H3 H -0.1149 0.8106 -0.6508
C6 C -0.0184(2) 1.3872(3) 0.00948(19)
H4 H 0.0007 1.3842 0.0495
C7 C 0.07521(19) 1.3008(2) 0.00726(18)
C8 C 0.15995(19) 1.0526(2) -0.52958(18)
C9 C 0.24355(19) 1.1335(3) -0.00322(18)
H5 H 0.2642 1.1332 0.0369
C10 C 0.2233(2) 1.0863(3) -0.50016(19)
H6 H 0.2461 1.0817 -0.4603
C11 C 0.15821(19) 0.9867(3) -0.34837(18)
C12 C -0.0391(2) 0.8616(3) -0.58412(18)
H7 H -0.0190 0.8851 -0.6058
C13 C 0.12806(18) 0.9763(2) -0.41174(17)
C14 C 0.2719(2) 1.0926(3) -0.03433(19)
H8 H 0.3121 1.0651 -0.0141
C15 C 0.2520(2) 1.1264(3) -0.5305(2)
H9 H 0.2945 1.1487 -0.5102
C16 C 0.05010(19) 0.9227(2) -0.49413(18)
C17 C 0.2796(2) 1.1983(3) 0.2406(2)
H10 H 0.3216 1.1743 0.2597
C18 C 0.18403(19) 1.1749(2) -0.03273(17)
C19 C 0.1904(2) 1.2426(3) 0.15193(18)
C20 C -0.01794(19) 1.3582(2) -0.08116(18)
H11 H 0.0015 1.3349 -0.1033
C21 C 0.15897(19) 1.2525(2) 0.08851(18)
C22 C 0.1607(2) 1.1048(3) -0.61567(19)
H12 H 0.1383 1.1127 -0.6553
C23 C 0.1867(2) 1.2573(3) 0.2428(2)
H13 H 0.1637 1.2748 0.2638
C24 C -0.04290(19) 0.8339(2) -0.49464(18)
H14 H -0.0253 0.8378 -0.4547
C25 C 0.2529(2) 1.2072(3) 0.18124(19)
H15 H 0.2769 1.1894 0.1612
C26 C 0.2121(2) 1.0379(3) -0.3216(2)
H16 H 0.2284 1.0683 -0.3434
C27 C 0.01259(19) 1.3501(2) -0.02197(18)
C28 C 0.2417(2) 1.0437(3) -0.2624(2)
H17 H 0.2775 1.0793 -0.2451
C29 C 0.1565(2) 1.2683(3) 0.1841(2)
H18 H 0.1143 1.2923 0.1662
C30 C -0.1010(2) 0.7907(2) -0.52529(19)
H19 H -0.1224 0.7669 -0.5048
C31 C -0.0779(2) 1.4284(3) -0.0203(2)
H20 H -0.0981 1.4529 0.0009
C32 C 0.1337(2) 0.9450(3) -0.3145(2)
H21 H 0.0959 0.9121 -0.3311
C33 C -0.01086(19) 0.8720(2) -0.52517(18)
C34 C 0.1553(2) 1.1746(3) -0.09224(19)
H22 H 0.1159 1.2031 -0.1132
C35 C 0.1668(2) 0.9535(3) -0.2558(2)
H23 H 0.1504 0.9248 -0.2334
C36 C 0.1864(2) 1.1310(3) -0.12001(19)
H24 H 0.1659 1.1296 -0.1601
N1 N -0.12859(16) 0.7809(2) -0.58231(15)
N2 N 0.22223(16) 1.1354(2) -0.58802(16)
N3 N 0.22110(19) 1.0002(2) -0.22825(16)
N4 N 0.07457(16) 0.9608(2) -0.52723(15)
N5 N 0.15590(16) 1.0184(2) -0.44058(15)
N6 N 0.07492(16) 0.9276(2) -0.43688(15)
N7 N 0.24452(17) 1.0905(2) -0.09229(16)
N8 N 0.24695(19) 1.2232(2) 0.27181(16)
N9 N -0.10831(16) 1.4354(2) -0.07793(16)
N10 N 0.09757(16) 1.2605(2) -0.02662(15)
N11 N 0.18686(16) 1.2127(2) 0.05897(15)
N12 N 0.10392(16) 1.2990(2) 0.06458(15)
Ag1B Ag 0.273916(16) 1.20883(2) -0.631747(15)
Ag1B_2 Ag 0.273916(16) 1.20883(2) 0.368253(15)
Ag2B Ag -0.205179(17) 1.50096(2) -0.132307(15)
N2B N -0.27777(16) 0.6354(2) -0.58802(16)
N8B N -0.25305(19) 0.7232(2) -0.72819(16)
N9B N 0.39169(16) 0.9354(2) -0.07793(16)
Mo1 Mo -0.5000 0.71396(4) -0.7500
Mo2 Mo -0.388005(17) 0.83898(2) -0.639608(15)
Mo3 Mo -0.382905(17) 1.04087(2) -0.643557(16)
Mo4 Mo -0.5000 1.15172(4) -0.7500
Mo5 Mo -0.449209(17) 0.94361(2) -0.791227(16)
O1 O -0.5176(2) 0.6523(3) -0.7052(3)
O2 O -0.42149(15) 0.76527(19) -0.70668(14)
O3 O -0.39009(17) 0.7767(2) -0.58779(15)
O4 O -0.30670(15) 0.8335(2) -0.63042(15)
O5 O -0.39030(14) 0.94029(19) -0.60713(13)
O6 O -0.41101(18) 0.93566(19) -0.71455(14)
O7 O -0.49707(15) 0.8555(2) -0.82179(16)
O8 O -0.39043(16) 0.9497(2) -0.81725(16)
O9 O -0.30004(16) 1.0376(2) -0.62938(16)
O10 O -0.38546(15) 1.1059(2) -0.59404(15)
O11 O -0.41240(14) 1.10795(19) -0.71207(14)
O12 O -0.50101(14) 1.03231(19) -0.81420(14)
O13 O -0.50787(19) 1.2138(2) -0.70064(16)
Mo2A Mo -0.611995(17) 0.83898(2) -0.860392(15)
Mo3A Mo -0.617095(17) 1.04087(2) -0.856443(16)
Mo5A Mo -0.550791(17) 0.94361(2) -0.708773(16)
O1A O -0.4824(2) 0.6523(3) -0.7948(3)
O2A O -0.57851(15) 0.76527(19) -0.79332(14)
O3A O -0.60991(17) 0.7767(2) -0.91221(15)
O4A O -0.69330(15) 0.8335(2) -0.86958(15)
O5A O -0.60970(14) 0.94029(19) -0.89287(13)
O6A O -0.58899(18) 0.93566(19) -0.78545(14)
O7A O -0.50293(15) 0.8555(2) -0.67821(16)
O8A O -0.60957(16) 0.9497(2) -0.68275(16)
O9A O -0.69996(16) 1.0376(2) -0.87062(16)
O10A O -0.61454(15) 1.1059(2) -0.90596(15)
O11A O -0.58760(14) 1.10795(19) -0.78793(14)
O12A O -0.49899(14) 1.03231(19) -0.68580(14)
O13A O -0.49213(19) 1.2138(2) -0.79936(16)
O14 O -0.5794(6) 1.3636(7) -0.7322(4)
H25 H -0.5509 1.4002 -0.7292
H26 H -0.5588 1.3186 -0.7229
O15 O -0.4861(14) 1.4828(15) -0.7216(10)
H27 H -0.4985 1.5298 -0.7167
H28 H -0.5166 1.4492 -0.7244
loop_
_geom_bond_atom_site_label_1
_geom_bond_atom_site_label_2
_geom_bond_site_symmetry_1
_geom_bond_site_symmetry_2
Ag1 N1 1_555 1_555
Ag2 N3 1_555 1_555
C1 H1 1_555 1_555
C2 H2 1_555 1_555
C3 C18 1_555 1_555
C4 C8 1_555 1_555
C5 H3 1_555 1_555
C6 H4 1_555 1_555
C7 C27 1_555 1_555
C8 C2 1_555 1_555
C9 H5 1_555 1_555
C10 C8 1_555 1_555
H6 C10 1_555 1_555
C11 C13 1_555 1_555
C12 C5 1_555 1_555
H7 C12 1_555 1_555
C13 N5 1_555 1_555
C14 C9 1_555 1_555
H8 C14 1_555 1_555
C15 C10 1_555 1_555
H9 C15 1_555 1_555
C16 C33 1_555 1_555
C17 H10 1_555 1_555
C18 C9 1_555 1_555
C19 C21 1_555 1_555
C20 C1 1_555 1_555
H11 C20 1_555 1_555
C21 N11 1_555 1_555
C22 C2 1_555 1_555
H12 C22 1_555 1_555
C23 H13 1_555 1_555
C24 H14 1_555 1_555
C25 C17 1_555 1_555
H15 C25 1_555 1_555
C26 C11 1_555 1_555
H16 C26 1_555 1_555
C27 C6 1_555 1_555
C28 C26 1_555 1_555
H17 C28 1_555 1_555
C29 C19 1_555 1_555
H18 C29 1_555 1_555
C30 C24 1_555 1_555
H19 C30 1_555 1_555
C31 C6 1_555 1_555
H20 C31 1_555 1_555
C32 C11 1_555 1_555
H21 C32 1_555 1_555
C33 C12 1_555 1_555
C34 C18 1_555 1_555
H22 C34 1_555 1_555
C35 C32 1_555 1_555
H23 C35 1_555 1_555
C36 C34 1_555 1_555
H24 C36 1_555 1_555
N1 C5 1_555 1_555
N2 C15 1_555 1_555
N3 C28 1_555 1_555
N4 C4 1_555 1_555
N5 C4 1_555 1_555
N6 C13 1_555 1_555
N7 Ag2 1_555 1_555
N8 C17 1_555 1_555
N9 C1 1_555 1_555
N10 C3 1_555 1_555
N11 C3 1_555 1_555
N12 C7 1_555 1_555
Mo1 O1 1_555 1_555
Mo2 O2 1_555 1_555
Mo3 O5 1_555 1_555
Mo4 O11 1_555 1_555
Mo5 O6 1_555 1_555
O2 Mo1 1_555 1_555
O3 Mo2 1_555 1_555
O4 Mo2 1_555 1_555
O5 Mo2 1_555 1_555
O6 Mo2 1_555 1_555
O7 Mo5 1_555 1_555
O8 Mo5 1_555 1_555
O9 Mo3 1_555 1_555
O10 Mo3 1_555 1_555
O11 Mo3 1_555 1_555
O12 Mo4 1_555 1_555
O13 Mo4 1_555 1_555
O14 H25 1_555 1_555
H26 O14 1_555 1_555
O15 H27 1_555 1_555
H28 O15 1_555 1_555
Ag1B N2 1_555 1_555
Ag1B_2 N8 1_555 1_555
Ag2B N9 1_555 1_555
N2B Ag1 1_555 1_555
N8B Ag1 1_555 1_555
N9B Ag2 1_555 1_555
Mo2A O7 1_555 1_555
Mo3A O12 1_555 1_555
Mo5A O6A 1_555 1_555
O1A Mo1 1_555 1_555
O2A Mo1 1_555 1_555
O3A Mo2A 1_555 1_555
O4A Mo2A 1_555 1_555
O5A Mo2A 1_555 1_555
O6A Mo2A 1_555 1_555
O7A Mo2 1_555 1_555
O8A Mo5A 1_555 1_555
O9A Mo3A 1_555 1_555
O10A Mo3A 1_555 1_555
O11A Mo4 1_555 1_555
O12A Mo3 1_555 1_555
O13A Mo4 1_555 1_555
C7 N10 1_555 1_555
C14 N7 1_555 1_555
C16 N4 1_555 1_555
C16 N6 1_555 1_555
C19 C25 1_555 1_555
C20 C27 1_555 1_555
C21 N12 1_555 1_555
C22 N2 1_555 1_555
C23 C29 1_555 1_555
C23 N8 1_555 1_555
C24 C33 1_555 1_555
C30 N1 1_555 1_555
C31 N9 1_555 1_555
C35 N3 1_555 1_555
C36 N7 1_555 1_555
Mo3 O6 1_555 1_555
Mo4 O12A 1_555 1_555
Mo5 O12 1_555 1_555
Mo2A O2A 1_555 1_555
Mo3A O5A 1_555 1_555
Mo3A O6A 1_555 1_555
Mo3A O11A 1_555 1_555
Mo5A O7A 1_555 1_555
Mo5A O12A 1_555 1_555

#END
