
#######################################################################
#
#                 Cambridge Crystallographic Data Centre
#                                CCDC 
#
#######################################################################
#
# If this CIF has been generated from an entry in the Cambridge 
# Structural Database, then it will include bibliographic, chemical, 
# crystal, experimental, refinement or atomic coordinate data resulting 
# from the CCDC's data processing and validation procedures.
#
#######################################################################

data_QOFDIA07
_symmetry_cell_setting           monoclinic
_symmetry_space_group_name_H-M   'C 2/c'
_symmetry_Int_Tables_number      15
_space_group_name_Hall           '-C 2yn'
loop_
_symmetry_equiv_pos_site_id
_symmetry_equiv_pos_as_xyz
1 x,y,z
2 -x,y,1/2-z
3 1/2+x,1/2+y,z
4 1/2-x,1/2+y,1/2-z
5 -x,-y,-z
6 x,-y,1/2+z
7 1/2-x,1/2-y,-z
8 1/2+x,1/2-y,1/2+z
_cell_length_a                   21.9867(10)
_cell_length_b                   16.5916(5)
_cell_length_c                   25.5520(12)
_cell_angle_alpha                90
_cell_angle_beta                 115.203(6)
_cell_angle_gamma                90
_cell_volume                     8433.89
loop_
_atom_site_label
_atom_site_type_symbol
_atom_site_fract_x
_atom_site_fract_y
_atom_site_fract_z
Ag1 Ag -0.15573(3) 0.45709(4) -0.63275(3)
Ag2 Ag -0.17779(4) 0.75508(5) -0.13326(3)
C1 C 0.0978(3) 0.9705(4) -0.0006(3)
C2 C -0.3763(3) 0.7559(4) -0.4988(3)
C3 C 0.2772(4) 1.1384(5) 0.0084(3)
H1 H 0.2979 1.1350 0.0485
C4 C -0.4404(3) 0.8014(4) -0.5316(3)
C5 C 0.1818(3) 1.0525(4) 0.0055(3)
C6 C 0.0038(3) 0.8847(5) -0.0049(3)
H2 H 0.0237 0.8831 0.0353
C7 C -0.2026(3) 0.5836(4) -0.4961(3)
H3 H -0.1806 0.5875 -0.4560
C8 C -0.4671(4) 0.8110(5) -0.5899(3)
H4 H -0.4455 0.7898 -0.6112
C9 C -0.2900(4) 0.7262(4) -0.4136(3)
C10 C -0.0559(4) 0.8442(4) -0.0364(3)
H5 H -0.0759 0.8162 -0.0163
C11 C 0.2201(4) 1.1530(4) -0.1088(3)
H6 H 0.2004 1.1581 -0.1489
C12 C 0.1801(3) 1.0023(4) 0.0867(3)
C13 C 0.1789(4) 0.9559(6) 0.1798(4)
H7 H 0.1349 0.9381 0.1596
C14 C -0.2569(4) 0.7364(4) -0.3498(3)
C15 C 0.0333(3) 0.9275(4) -0.0345(3)
C16 C -0.2644(4) 0.5648(5) -0.6122(3)
H8 H -0.2857 0.5585 -0.6522
C17 C -0.2645(3) 0.6209(4) -0.5267(3)
C18 C -0.4744(4) 0.8351(5) -0.5020(3)
H9 H -0.4571 0.8308 -0.4619
C19 C 0.2147(3) 1.1013(4) -0.0234(3)
C20 C -0.2961(4) 0.6095(4) -0.5860(3)
H10 H -0.3382 0.6318 -0.6077
C21 C 0.2123(4) 0.9918(5) 0.1510(3)
C22 C 0.1860(3) 1.1103(4) -0.0828(3)
H11 H 0.1442 1.0878 -0.1053
C23 C -0.2950(3) 0.6723(4) -0.4964(3)
C24 C -0.5267(4) 0.8528(5) -0.6172(3)
H12 H -0.5441 0.8603 -0.6570
C25 C -0.5330(4) 0.8744(5) -0.5321(3)
H13 H -0.5552 0.8968 -0.5116
C26 C -0.1747(4) 0.5410(5) -0.5266(3)
H14 H -0.1324 0.5184 -0.5061
C27 C 0.3074(4) 1.1807(5) -0.0217(4)
H15 H 0.3487 1.2054 -0.0007
C28 C 0.0020(4) 0.9280(5) -0.0943(3)
H16 H 0.0197 0.9577 -0.1154
C29 C 0.3068(4) 1.0050(6) 0.2416(4)
H17 H 0.3511 1.0216 0.2626
C30 C -0.2855(4) 0.7880(5) -0.3233(3)
H18 H -0.3242 0.8172 -0.3450
C31 C -0.0559(4) 0.8837(5) -0.1219(3)
H19 H -0.0752 0.8817 -0.1621
C32 C 0.2114(4) 0.9466(6) 0.2390(3)
H20 H 0.1885 0.9222 0.2581
C33 C 0.2778(4) 1.0168(5) 0.1825(4)
H21 H 0.3018 1.0409 0.1643
C34 C -0.2545(5) 0.7942(6) -0.2640(4)
H22 H -0.2735 0.8287 -0.2464
C35 C -0.1719(5) 0.7085(6) -0.2568(4)
H23 H -0.1327 0.6808 -0.2341
C36 C -0.1979(4) 0.6991(5) -0.3160(4)
H24 H -0.1756 0.6678 -0.3325
N1 N -0.2046(3) 0.5302(4) -0.5835(3)
N2 N -0.5606(3) 0.8827(4) -0.5890(3)
N3 N -0.1995(4) 0.7549(5) -0.2303(3)
N4 N -0.2624(3) 0.6773(4) -0.4385(3)
N5 N -0.3521(3) 0.7101(4) -0.5287(3)
N6 N -0.3473(3) 0.7669(4) -0.4418(3)
N7 N -0.0863(3) 0.8433(4) -0.0942(3)
N8 N 0.2751(3) 0.9714(5) 0.2703(3)
N9 N 0.2798(3) 1.1870(4) -0.0788(3)
N10 N 0.1256(3) 1.0127(3) -0.0282(2)
N11 N 0.1227(3) 0.9633(4) 0.0573(3)
N12 N 0.2111(3) 1.0499(4) 0.0635(3)
Ag1B Ag -0.65573(3) 0.95709(4) -0.63275(3)
Ag1B_2 Ag 0.34427(3) 0.95709(4) 0.36725(3)
Ag2B Ag 0.32221(4) 1.25508(5) -0.13326(3)
N2B N -0.0606(3) 0.3827(4) -0.5890(3)
N8B N -0.2249(3) 0.4714(5) -0.7297(3)
N9B N -0.2202(3) 0.6870(4) -0.0788(3)
Mo1 Mo 0.0000 0.46487(7) -0.7500
Mo2 Mo -0.00129(3) 0.58983(4) -0.63920(3)
Mo3 Mo -0.00866(3) 0.79067(4) -0.64284(3)
Mo4 Mo 0.0000 0.90716(7) -0.7500
Mo5 Mo -0.09195(3) 0.69280(4) -0.79034(3)
O1 O 0.0624(6) 0.4024(7) -0.7074(6)
O2 O -0.0340(3) 0.5144(4) -0.7058(3)
O3 O 0.0526(4) 0.5281(5) -0.5861(3)
O4 O -0.0724(3) 0.5815(4) -0.6303(3)
O5 O 0.0329(3) 0.6898(4) -0.6062(3)
O6 O -0.0512(4) 0.6860(4) -0.7140(3)
O7 O -0.0758(4) 0.6043(4) -0.8232(3)
O8 O -0.1762(3) 0.6971(4) -0.8168(3)
O9 O -0.0779(4) 0.7875(5) -0.6295(3)
O10 O 0.0428(4) 0.8522(5) -0.5918(3)
O11 O -0.0471(3) 0.8584(4) -0.7115(3)
O12 O -0.0657(3) 0.7810(4) -0.8165(3)
O13 O 0.0580(5) 0.9663(5) -0.7016(4)
Mo2A Mo 0.00129(3) 0.58983(4) -0.86080(3)
Mo3A Mo 0.00866(3) 0.79067(4) -0.85716(3)
Mo5A Mo 0.09195(3) 0.69280(4) -0.70966(3)
O1A O -0.0624(6) 0.4024(7) -0.7926(6)
O2A O 0.0340(3) 0.5144(4) -0.7942(3)
O3A O -0.0526(4) 0.5281(5) -0.9139(3)
O4A O 0.0724(3) 0.5815(4) -0.8697(3)
O5A O -0.0329(3) 0.6898(4) -0.8938(3)
O6A O 0.0512(4) 0.6860(4) -0.7860(3)
O7A O 0.0758(4) 0.6043(4) -0.6768(3)
O8A O 0.1762(3) 0.6971(4) -0.6832(3)
O9A O 0.0779(4) 0.7875(5) -0.8705(3)
O10A O -0.0428(4) 0.8522(5) -0.9082(3)
O11A O 0.0471(3) 0.8584(4) -0.7885(3)
O12A O 0.0657(3) 0.7810(4) -0.6835(3)
O13A O -0.0580(5) 0.9663(5) -0.7984(4)
loop_
_geom_bond_atom_site_label_1
_geom_bond_atom_site_label_2
_geom_bond_site_symmetry_1
_geom_bond_site_symmetry_2
Ag1 N1 1_555 1_555
Ag2 N3 1_555 1_555
C1 C15 1_555 1_555
C2 C4 1_555 1_555
C3 H1 1_555 1_555
C4 C8 1_555 1_555
C5 C19 1_555 1_555
C6 H2 1_555 1_555
C7 H3 1_555 1_555
C8 H4 1_555 1_555
C9 C14 1_555 1_555
C10 C6 1_555 1_555
H5 C10 1_555 1_555
C11 H6 1_555 1_555
C12 C21 1_555 1_555
C13 H7 1_555 1_555
C14 C30 1_555 1_555
C15 C6 1_555 1_555
C16 H8 1_555 1_555
C17 C7 1_555 1_555
C18 C4 1_555 1_555
H9 C18 1_555 1_555
C19 C3 1_555 1_555
C20 C16 1_555 1_555
H10 C20 1_555 1_555
C21 C13 1_555 1_555
C22 C11 1_555 1_555
H11 C22 1_555 1_555
C23 C17 1_555 1_555
C24 C8 1_555 1_555
H12 C24 1_555 1_555
C25 C18 1_555 1_555
H13 C25 1_555 1_555
C26 C7 1_555 1_555
H14 C26 1_555 1_555
C27 C3 1_555 1_555
H15 C27 1_555 1_555
C28 C15 1_555 1_555
H16 C28 1_555 1_555
C29 H17 1_555 1_555
C30 H18 1_555 1_555
C31 C28 1_555 1_555
H19 C31 1_555 1_555
C32 C13 1_555 1_555
H20 C32 1_555 1_555
C33 C21 1_555 1_555
H21 C33 1_555 1_555
C34 C30 1_555 1_555
H22 C34 1_555 1_555
C35 H23 1_555 1_555
C36 C14 1_555 1_555
H24 C36 1_555 1_555
N1 C16 1_555 1_555
N2 C24 1_555 1_555
N3 C34 1_555 1_555
N4 C9 1_555 1_555
N5 C2 1_555 1_555
N6 C2 1_555 1_555
N7 Ag2 1_555 1_555
N8 C29 1_555 1_555
N9 C11 1_555 1_555
N10 C1 1_555 1_555
N11 C1 1_555 1_555
N12 C5 1_555 1_555
Mo1 O1 1_555 1_555
Mo2 O2 1_555 1_555
Mo3 O5 1_555 1_555
Mo4 O11 1_555 1_555
Mo5 O6 1_555 1_555
O2 Mo1 1_555 1_555
O3 Mo2 1_555 1_555
O4 Mo2 1_555 1_555
O5 Mo2 1_555 1_555
O6 Mo2 1_555 1_555
O7 Mo5 1_555 1_555
O8 Mo5 1_555 1_555
O9 Mo3 1_555 1_555
O10 Mo3 1_555 1_555
O11 Mo3 1_555 1_555
O12 Mo4 1_555 1_555
O13 Mo4 1_555 1_555
Ag1B N2 1_555 1_555
Ag1B_2 N8 1_555 1_555
Ag2B N9 1_555 1_555
N2B Ag1 1_555 1_555
N8B Ag1 1_555 1_555
N9B Ag2 1_555 1_555
Mo2A O7 1_555 1_555
Mo3A O12 1_555 1_555
Mo5A O6A 1_555 1_555
O1A Mo1 1_555 1_555
O2A Mo1 1_555 1_555
O3A Mo2A 1_555 1_555
O4A Mo2A 1_555 1_555
O5A Mo2A 1_555 1_555
O6A Mo2A 1_555 1_555
O7A Mo2 1_555 1_555
O8A Mo5A 1_555 1_555
O9A Mo3A 1_555 1_555
O10A Mo3A 1_555 1_555
O11A Mo4 1_555 1_555
O12A Mo3 1_555 1_555
O13A Mo4 1_555 1_555
C5 N10 1_555 1_555
C9 N6 1_555 1_555
C10 N7 1_555 1_555
C12 N11 1_555 1_555
C12 N12 1_555 1_555
C17 C20 1_555 1_555
C19 C22 1_555 1_555
C23 N4 1_555 1_555
C23 N5 1_555 1_555
C25 N2 1_555 1_555
C26 N1 1_555 1_555
C27 N9 1_555 1_555
C29 C33 1_555 1_555
C31 N7 1_555 1_555
C32 N8 1_555 1_555
C35 C36 1_555 1_555
C35 N3 1_555 1_555
Mo3 O6 1_555 1_555
Mo4 O12A 1_555 1_555
Mo5 O12 1_555 1_555
Mo2A O2A 1_555 1_555
Mo3A O5A 1_555 1_555
Mo3A O6A 1_555 1_555
Mo3A O11A 1_555 1_555
Mo5A O7A 1_555 1_555
Mo5A O12A 1_555 1_555

#END
