
#######################################################################
#
#                 Cambridge Crystallographic Data Centre
#                                CCDC 
#
#######################################################################
#
# If this CIF has been generated from an entry in the Cambridge 
# Structural Database, then it will include bibliographic, chemical, 
# crystal, experimental, refinement or atomic coordinate data resulting 
# from the CCDC's data processing and validation procedures.
#
#######################################################################

data_QOFDIA08
_symmetry_cell_setting           monoclinic
_symmetry_space_group_name_H-M   'C 2/c'
_symmetry_Int_Tables_number      15
_space_group_name_Hall           '-C 2yn'
loop_
_symmetry_equiv_pos_site_id
_symmetry_equiv_pos_as_xyz
1 x,y,z
2 -x,y,1/2-z
3 1/2+x,1/2+y,z
4 1/2-x,1/2+y,1/2-z
5 -x,-y,-z
6 x,-y,1/2+z
7 1/2-x,1/2-y,-z
8 1/2+x,1/2-y,1/2+z
_cell_length_a                   21.9660(9)
_cell_length_b                   16.6288(6)
_cell_length_c                   25.5315(16)
_cell_angle_alpha                90
_cell_angle_beta                 115.158(6)
_cell_angle_gamma                90
_cell_volume                     8441.19
loop_
_atom_site_label
_atom_site_type_symbol
_atom_site_fract_x
_atom_site_fract_y
_atom_site_fract_z
Ag1 Ag 0.34423(3) -0.04307(5) -0.63294(3)
Ag2 Ag 0.32195(4) 0.25558(5) -0.13341(3)
C1 C 0.5976(3) 0.4710(4) -0.0007(3)
C2 C 0.7771(4) 0.6382(5) 0.0085(3)
H1 H 0.7980 0.6346 0.0486
C3 C 0.2974(4) 0.0842(5) -0.4960(3)
H2 H 0.3196 0.0884 -0.4560
C4 C 0.1233(3) 0.2565(4) -0.4993(3)
C5 C 0.5034(4) 0.3848(5) -0.0052(3)
H3 H 0.5229 0.3835 0.0350
C6 C 0.0328(4) 0.3103(5) -0.5904(4)
H4 H 0.0540 0.2886 -0.6118
C7 C 0.0596(4) 0.3014(4) -0.5318(3)
C8 C 0.6816(4) 0.5524(5) 0.0056(3)
C9 C 0.2094(4) 0.2260(5) -0.4140(3)
C10 C 0.4442(4) 0.3444(5) -0.0368(3)
H5 H 0.4246 0.3158 -0.0166
C11 C 0.5333(3) 0.4272(5) -0.0346(3)
C12 C 0.2426(4) 0.2366(5) -0.3503(3)
C13 C 0.7199(4) 0.6532(5) -0.1093(4)
H6 H 0.7000 0.6583 -0.1493
C14 C 0.6793(4) 0.4565(6) 0.1798(4)
H7 H 0.6350 0.4395 0.1597
C15 C 0.2355(4) 0.1213(4) -0.5263(3)
C16 C 0.2355(4) 0.0644(5) -0.6125(4)
H8 H 0.2142 0.0575 -0.6525
C17 C 0.7145(4) 0.6011(4) -0.0236(3)
C18 C 0.0256(4) 0.3350(6) -0.5020(3)
H9 H 0.0428 0.3308 -0.4619
C19 C 0.2048(3) 0.1724(4) -0.4967(3)
C20 C 0.6797(4) 0.5021(5) 0.0862(3)
C21 C 0.7122(4) 0.4918(5) 0.1506(3)
C22 C 0.2039(4) 0.1095(5) -0.5862(3)
H10 H 0.1618 0.1320 -0.6080
C23 C 0.6861(4) 0.6100(4) -0.0828(3)
H11 H 0.6444 0.5872 -0.1052
C24 C 0.3252(4) 0.0412(5) -0.5267(4)
H12 H 0.3675 0.0187 -0.5062
C25 C -0.0269(4) 0.3526(5) -0.6172(4)
H13 H -0.0441 0.3605 -0.6570
C26 C -0.0328(4) 0.3738(6) -0.5323(4)
H14 H -0.0550 0.3961 -0.5119
C27 C 0.8061(5) 0.5048(6) 0.2410(4)
H15 H 0.8503 0.5216 0.2619
C28 C 0.8066(4) 0.6806(5) -0.0219(4)
H16 H 0.8477 0.7056 -0.0008
C29 C 0.5022(4) 0.4280(5) -0.0943(4)
H17 H 0.5199 0.4577 -0.1154
C30 C 0.7779(4) 0.5161(6) 0.1820(4)
H18 H 0.8023 0.5395 0.1639
C31 C 0.4443(4) 0.3835(6) -0.1218(4)
H19 H 0.4254 0.3808 -0.1620
C32 C 0.7118(5) 0.4462(7) 0.2388(4)
H20 H 0.6891 0.4208 0.2577
C33 C 0.2450(5) 0.2944(6) -0.2644(4)
H21 H 0.2257 0.3289 -0.2470
C34 C 0.3021(5) 0.1990(6) -0.3168(4)
H22 H 0.3246 0.1679 -0.3333
C35 C 0.2146(5) 0.2871(6) -0.3235(4)
H23 H 0.1757 0.3158 -0.3453
C36 C 0.3274(5) 0.2092(7) -0.2575(4)
H24 H 0.3666 0.1816 -0.2347
N1 N 0.2955(3) 0.0300(4) -0.5834(3)
N2 N -0.0606(3) 0.3823(4) -0.5893(3)
N3 N 0.3005(4) 0.2547(5) -0.2307(3)
N4 N 0.2375(3) 0.1770(4) -0.4387(3)
N5 N 0.1478(3) 0.2103(4) -0.5289(3)
N6 N 0.1525(3) 0.2664(4) -0.4422(3)
N7 N 0.4134(3) 0.3439(4) -0.0942(3)
N8 N 0.7753(4) 0.4718(5) 0.2701(3)
N9 N 0.7796(3) 0.6873(4) -0.0793(3)
N10 N 0.6254(3) 0.5128(4) -0.0284(3)
N11 N 0.6226(3) 0.4631(4) 0.0573(3)
N12 N 0.7111(3) 0.5495(4) 0.0634(3)
Ag1B Ag -0.15577(3) 0.45693(5) -0.63294(3)
Ag1B_2 Ag 0.84423(3) 0.45693(5) 0.36706(3)
Ag2B Ag 0.82195(4) 0.75558(5) -0.13341(3)
N2B N 0.4394(3) -0.1177(4) -0.5893(3)
N8B N 0.2753(4) -0.0282(5) -0.7299(3)
N9B N 0.2796(3) 0.1873(4) -0.0793(3)
Mo1 Mo 0.5000 -0.03430(8) -0.7500
Mo2 Mo 0.49870(3) 0.09000(4) -0.63912(3)
Mo3 Mo 0.49165(4) 0.29044(4) -0.64262(3)
Mo4 Mo 0.5000 0.40713(8) -0.7500
Mo5 Mo 0.40790(3) 0.19269(4) -0.79018(3)
O1 O 0.5630(7) -0.0969(7) -0.7079(7)
O2 O 0.4662(4) 0.0143(4) -0.7056(3)
O3 O 0.5527(4) 0.0289(6) -0.5856(3)
O4 O 0.4276(4) 0.0818(5) -0.6303(3)
O5 O 0.5328(3) 0.1892(4) -0.6061(3)
O6 O 0.4487(4) 0.1864(4) -0.7141(3)
O7 O 0.4245(4) 0.1043(5) -0.8229(3)
O8 O 0.3235(3) 0.1969(4) -0.8171(3)
O9 O 0.4227(4) 0.2876(5) -0.6293(4)
O10 O 0.5435(4) 0.3511(6) -0.5915(3)
O11 O 0.4533(4) 0.3582(5) -0.7111(3)
O12 O 0.4345(4) 0.2807(4) -0.8166(3)
O13 O 0.5584(5) 0.4659(6) -0.7021(4)
Mo2A Mo 0.50130(3) 0.09000(4) -0.86088(3)
Mo3A Mo 0.50835(4) 0.29044(4) -0.85738(3)
Mo5A Mo 0.59210(3) 0.19269(4) -0.70982(3)
O1A O 0.4370(7) -0.0969(7) -0.7921(7)
O2A O 0.5338(4) 0.0143(4) -0.7944(3)
O3A O 0.4473(4) 0.0289(6) -0.9144(3)
O4A O 0.5724(4) 0.0818(5) -0.8697(3)
O5A O 0.4672(3) 0.1892(4) -0.8939(3)
O6A O 0.5513(4) 0.1864(4) -0.7859(3)
O7A O 0.5755(4) 0.1043(5) -0.6771(3)
O8A O 0.6765(3) 0.1969(4) -0.6829(3)
O9A O 0.5773(4) 0.2876(5) -0.8707(4)
O10A O 0.4565(4) 0.3511(6) -0.9085(3)
O11A O 0.5467(4) 0.3582(5) -0.7889(3)
O12A O 0.5655(4) 0.2807(4) -0.6834(3)
O13A O 0.4416(5) 0.4659(6) -0.7979(4)
loop_
_geom_bond_atom_site_label_1
_geom_bond_atom_site_label_2
_geom_bond_site_symmetry_1
_geom_bond_site_symmetry_2
Ag1 N1 1_555 1_555
Ag2 N3 1_555 1_555
C1 C11 1_555 1_555
C2 H1 1_555 1_555
C3 H2 1_555 1_555
C4 C7 1_555 1_555
C5 H3 1_555 1_555
C6 H4 1_555 1_555
C7 C6 1_555 1_555
C8 C17 1_555 1_555
C9 C12 1_555 1_555
C10 C5 1_555 1_555
H5 C10 1_555 1_555
C11 C5 1_555 1_555
C12 C34 1_555 1_555
C13 H6 1_555 1_555
C14 H7 1_555 1_555
C15 C3 1_555 1_555
C16 H8 1_555 1_555
C17 C2 1_555 1_555
C18 C7 1_555 1_555
H9 C18 1_555 1_555
C19 C15 1_555 1_555
C20 C21 1_555 1_555
C21 C14 1_555 1_555
C22 C15 1_555 1_555
H10 C22 1_555 1_555
C23 C13 1_555 1_555
H11 C23 1_555 1_555
C24 C3 1_555 1_555
H12 C24 1_555 1_555
C25 C6 1_555 1_555
H13 C25 1_555 1_555
C26 C18 1_555 1_555
H14 C26 1_555 1_555
C27 H15 1_555 1_555
C28 C2 1_555 1_555
H16 C28 1_555 1_555
C29 C11 1_555 1_555
H17 C29 1_555 1_555
C30 C21 1_555 1_555
H18 C30 1_555 1_555
C31 C29 1_555 1_555
H19 C31 1_555 1_555
C32 C14 1_555 1_555
H20 C32 1_555 1_555
C33 H21 1_555 1_555
C34 H22 1_555 1_555
C35 C12 1_555 1_555
H23 C35 1_555 1_555
C36 C34 1_555 1_555
H24 C36 1_555 1_555
N1 C16 1_555 1_555
N2 C25 1_555 1_555
N3 C33 1_555 1_555
N4 C9 1_555 1_555
N5 C4 1_555 1_555
N6 C4 1_555 1_555
N7 Ag2 1_555 1_555
N8 C27 1_555 1_555
N9 C13 1_555 1_555
N10 C1 1_555 1_555
N11 C1 1_555 1_555
N12 C8 1_555 1_555
Mo1 O1 1_555 1_555
Mo2 O2 1_555 1_555
Mo3 O5 1_555 1_555
Mo4 O11 1_555 1_555
Mo5 O6 1_555 1_555
O2 Mo1 1_555 1_555
O3 Mo2 1_555 1_555
O4 Mo2 1_555 1_555
O5 Mo2 1_555 1_555
O6 Mo2 1_555 1_555
O7 Mo5 1_555 1_555
O8 Mo5 1_555 1_555
O9 Mo3 1_555 1_555
O10 Mo3 1_555 1_555
O11 Mo3 1_555 1_555
O12 Mo4 1_555 1_555
O13 Mo4 1_555 1_555
Ag1B N2 1_555 1_555
Ag1B_2 N8 1_555 1_555
Ag2B N9 1_555 1_555
N2B Ag1 1_555 1_555
N8B Ag1 1_555 1_555
N9B Ag2 1_555 1_555
Mo2A O7 1_555 1_555
Mo3A O12 1_555 1_555
Mo5A O6A 1_555 1_555
O1A Mo1 1_555 1_555
O2A Mo1 1_555 1_555
O3A Mo2A 1_555 1_555
O4A Mo2A 1_555 1_555
O5A Mo2A 1_555 1_555
O6A Mo2A 1_555 1_555
O7A Mo2 1_555 1_555
O8A Mo5A 1_555 1_555
O9A Mo3A 1_555 1_555
O10A Mo3A 1_555 1_555
O11A Mo4 1_555 1_555
O12A Mo3 1_555 1_555
O13A Mo4 1_555 1_555
C8 N10 1_555 1_555
C9 N6 1_555 1_555
C10 N7 1_555 1_555
C16 C22 1_555 1_555
C17 C23 1_555 1_555
C19 N4 1_555 1_555
C19 N5 1_555 1_555
C20 N11 1_555 1_555
C20 N12 1_555 1_555
C24 N1 1_555 1_555
C26 N2 1_555 1_555
C27 C30 1_555 1_555
C28 N9 1_555 1_555
C31 N7 1_555 1_555
C32 N8 1_555 1_555
C33 C35 1_555 1_555
C36 N3 1_555 1_555
Mo3 O6 1_555 1_555
Mo4 O12A 1_555 1_555
Mo5 O12 1_555 1_555
Mo2A O2A 1_555 1_555
Mo3A O5A 1_555 1_555
Mo3A O6A 1_555 1_555
Mo3A O11A 1_555 1_555
Mo5A O7A 1_555 1_555
Mo5A O12A 1_555 1_555

#END
