
#######################################################################
#
#                 Cambridge Crystallographic Data Centre
#                                CCDC 
#
#######################################################################
#
# If this CIF has been generated from an entry in the Cambridge 
# Structural Database, then it will include bibliographic, chemical, 
# crystal, experimental, refinement or atomic coordinate data resulting 
# from the CCDC's data processing and validation procedures.
#
#######################################################################

data_QOFDIA01
_symmetry_cell_setting           monoclinic
_symmetry_space_group_name_H-M   'C 2/c'
_symmetry_Int_Tables_number      15
_space_group_name_Hall           '-C 2yn'
loop_
_symmetry_equiv_pos_site_id
_symmetry_equiv_pos_as_xyz
1 x,y,z
2 -x,y,1/2-z
3 1/2+x,1/2+y,z
4 1/2-x,1/2+y,1/2-z
5 -x,-y,-z
6 x,-y,1/2+z
7 1/2-x,1/2-y,-z
8 1/2+x,1/2-y,1/2+z
_cell_length_a                   21.9362(7)
_cell_length_b                   16.7329(5)
_cell_length_c                   25.5715(11)
_cell_angle_alpha                90
_cell_angle_beta                 115.324(4)
_cell_angle_gamma                90
_cell_volume                     8484.2
loop_
_atom_site_label
_atom_site_type_symbol
_atom_site_fract_x
_atom_site_fract_y
_atom_site_fract_z
Ag1 Ag 0.34428(3) -0.04164(4) -0.63233(3)
Ag2 Ag 0.32166(3) 0.25405(5) -0.13281(3)
C1 C 0.5974(3) 0.4705(4) 0.0000(3)
C2 C 0.1235(3) 0.2563(4) -0.4990(3)
C3 C 0.0329(4) 0.3109(5) -0.5899(3)
H1 H 0.0541 0.2897 -0.6114
C4 C 0.7201(3) 0.6503(4) -0.1083(3)
H2 H 0.7006 0.6540 -0.1485
C5 C 0.0602(3) 0.3014(4) -0.5313(3)
C6 C 0.5027(3) 0.3844(4) -0.0047(3)
H3 H 0.5222 0.3837 0.0355
C7 C 0.5327(3) 0.4261(4) -0.0341(3)
C8 C 0.2978(3) 0.0839(4) -0.4950(3)
H4 H 0.3199 0.0875 -0.4549
C9 C 0.4435(3) 0.3438(4) -0.0358(3)
H5 H 0.4236 0.3163 -0.0155
C10 C 0.6813(3) 0.5515(4) 0.0058(3)
C11 C 0.2097(3) 0.2253(4) -0.4134(3)
C12 C 0.7767(4) 0.6376(4) 0.0088(3)
H6 H 0.7975 0.6348 0.0489
C13 C 0.2361(3) 0.0658(4) -0.6112(3)
H7 H 0.2145 0.0591 -0.6511
C14 C 0.7113(3) 0.4929(4) 0.1511(3)
C15 C 0.2426(3) 0.2359(4) -0.3498(3)
C16 C 0.0256(3) 0.3347(5) -0.5018(3)
H8 H 0.0423 0.3295 -0.4619
C17 C -0.0328(4) 0.3745(5) -0.5321(3)
H9 H -0.0547 0.3970 -0.5116
C18 C 0.6792(3) 0.5017(4) 0.0868(3)
C19 C 0.7144(3) 0.6006(4) -0.0233(3)
C20 C 0.2054(3) 0.1725(4) -0.4955(3)
C21 C 0.6782(4) 0.4572(5) 0.1798(3)
H10 H 0.6342 0.4392 0.1596
C22 C 0.2356(3) 0.1219(4) -0.5259(3)
C23 C 0.3254(3) 0.0410(4) -0.5257(3)
H11 H 0.3675 0.0177 -0.5052
C24 C 0.6866(3) 0.6084(4) -0.0823(3)
H12 H 0.6450 0.5854 -0.1048
C25 C -0.0268(3) 0.3524(5) -0.6166(3)
H13 H -0.0446 0.3592 -0.6565
C26 C 0.2044(4) 0.1112(4) -0.5855(3)
H14 H 0.1626 0.1344 -0.6075
C27 C 0.5016(3) 0.4254(5) -0.0934(3)
H15 H 0.5197 0.4539 -0.1146
C28 C 0.8052(4) 0.5062(6) 0.2417(3)
H16 H 0.8492 0.5238 0.2629
C29 C 0.8065(4) 0.6790(5) -0.0219(3)
H17 H 0.8481 0.7032 -0.0009
C30 C 0.7109(4) 0.4482(6) 0.2392(3)
H18 H 0.6878 0.4244 0.2583
C31 C 0.7771(4) 0.5176(5) 0.1826(3)
H19 H 0.8016 0.5411 0.1647
C32 C 0.4435(4) 0.3819(5) -0.1211(3)
H20 H 0.4240 0.3801 -0.1613
C33 C 0.2150(4) 0.2868(5) -0.3233(3)
H21 H 0.1764 0.3161 -0.3452
C34 C 0.3011(4) 0.1965(5) -0.3157(3)
H22 H 0.3229 0.1643 -0.3321
C35 C 0.3267(4) 0.2057(6) -0.2569(4)
H23 H 0.3659 0.1779 -0.2344
C36 C 0.2453(5) 0.2935(6) -0.2639(3)
H24 H 0.2271 0.3291 -0.2464
N1 N 0.2958(3) 0.0308(3) -0.5827(2)
N2 N -0.0606(3) 0.3834(4) -0.5891(3)
N3 N 0.3002(3) 0.2509(4) -0.2298(3)
N4 N 0.1480(3) 0.2110(3) -0.5283(2)
N5 N 0.1527(3) 0.2669(3) -0.4418(2)
N6 N 0.2377(3) 0.1771(3) -0.4379(2)
N7 N 0.7794(3) 0.6857(3) -0.0784(3)
N8 N 0.4134(3) 0.3420(4) -0.0932(3)
N9 N 0.7746(3) 0.4725(4) 0.2704(3)
N10 N 0.6252(3) 0.5116(3) -0.0277(2)
N11 N 0.6224(3) 0.4626(3) 0.0578(2)
N12 N 0.7104(3) 0.5492(4) 0.0637(2)
Ag1B Ag -0.15572(3) 0.45836(4) -0.63233(3)
Ag1B_2 Ag 0.84428(3) 0.45836(4) 0.36767(3)
Ag2B Ag 0.82166(3) 0.75405(5) -0.13281(3)
N2B N 0.4394(3) -0.1166(4) -0.5891(3)
N7B N 0.2794(3) 0.1857(3) -0.0784(3)
N9B N 0.2746(3) -0.0275(4) -0.7296(3)
Mo1 Mo 0.5000 -0.03266(7) -0.7500
Mo2 Mo 0.49853(3) 0.09036(4) -0.63926(2)
Mo3 Mo 0.49121(3) 0.28991(4) -0.64280(3)
Mo4 Mo 0.5000 0.40333(7) -0.7500
Mo5 Mo 0.40745(3) 0.19301(3) -0.79047(3)
O1 O 0.5634(7) -0.0939(7) -0.7072(7)
O2 O 0.4659(3) 0.0164(4) -0.7056(3)
O3 O 0.4273(3) 0.0824(5) -0.6304(3)
O4 O 0.5534(3) 0.0300(5) -0.5861(3)
O5 O 0.5330(3) 0.1903(4) -0.6066(2)
O6 O 0.4471(4) 0.1871(4) -0.7148(3)
O7 O 0.4241(3) 0.1056(4) -0.8225(3)
O8 O 0.3228(3) 0.1975(4) -0.8183(3)
O9 O 0.4219(3) 0.2876(5) -0.6291(3)
O10 O 0.5433(3) 0.3511(5) -0.5924(3)
O11 O 0.4528(3) 0.3572(4) -0.7111(3)
O12 O 0.4349(3) 0.2810(4) -0.8152(3)
O13 O 0.5587(4) 0.4632(5) -0.7013(3)
Mo2A Mo 0.50147(3) 0.09036(4) -0.86074(2)
Mo3A Mo 0.50879(3) 0.28991(4) -0.85720(3)
Mo5A Mo 0.59255(3) 0.19301(3) -0.70953(3)
O1A O 0.4366(7) -0.0939(7) -0.7928(7)
O2A O 0.5341(3) 0.0164(4) -0.7944(3)
O3A O 0.5727(3) 0.0824(5) -0.8696(3)
O4A O 0.4466(3) 0.0300(5) -0.9139(3)
O5A O 0.4670(3) 0.1903(4) -0.8934(2)
O6A O 0.5529(4) 0.1871(4) -0.7852(3)
O7A O 0.5759(3) 0.1056(4) -0.6775(3)
O8A O 0.6772(3) 0.1975(4) -0.6817(3)
O9A O 0.5781(3) 0.2876(5) -0.8709(3)
O10A O 0.4567(3) 0.3511(5) -0.9076(3)
O11A O 0.5472(3) 0.3572(4) -0.7889(3)
O12A O 0.5651(3) 0.2810(4) -0.6848(3)
O13A O 0.4413(4) 0.4632(5) -0.7987(3)
loop_
_geom_bond_atom_site_label_1
_geom_bond_atom_site_label_2
_geom_bond_site_symmetry_1
_geom_bond_site_symmetry_2
Ag1 N1 1_555 1_555
Ag2 N3 1_555 1_555
C1 C7 1_555 1_555
C2 C5 1_555 1_555
C3 H1 1_555 1_555
C4 H2 1_555 1_555
C5 C3 1_555 1_555
C6 H3 1_555 1_555
C7 C6 1_555 1_555
C8 H4 1_555 1_555
C9 C6 1_555 1_555
H5 C9 1_555 1_555
C10 C19 1_555 1_555
C11 C15 1_555 1_555
C12 H6 1_555 1_555
C13 H7 1_555 1_555
C14 C18 1_555 1_555
C15 C33 1_555 1_555
C16 C5 1_555 1_555
H8 C16 1_555 1_555
C17 C16 1_555 1_555
H9 C17 1_555 1_555
C18 N11 1_555 1_555
C19 C12 1_555 1_555
C20 C22 1_555 1_555
C21 C14 1_555 1_555
H10 C21 1_555 1_555
C22 C8 1_555 1_555
C23 C8 1_555 1_555
H11 C23 1_555 1_555
C24 C4 1_555 1_555
H12 C24 1_555 1_555
C25 C3 1_555 1_555
H13 C25 1_555 1_555
C26 C13 1_555 1_555
H14 C26 1_555 1_555
C27 C7 1_555 1_555
H15 C27 1_555 1_555
C28 H16 1_555 1_555
C29 C12 1_555 1_555
H17 C29 1_555 1_555
C30 C21 1_555 1_555
H18 C30 1_555 1_555
C31 C14 1_555 1_555
H19 C31 1_555 1_555
C32 C27 1_555 1_555
H20 C32 1_555 1_555
C33 H21 1_555 1_555
C34 C15 1_555 1_555
H22 C34 1_555 1_555
C35 C34 1_555 1_555
H23 C35 1_555 1_555
C36 C33 1_555 1_555
H24 C36 1_555 1_555
N1 C13 1_555 1_555
N2 C17 1_555 1_555
N3 C35 1_555 1_555
N4 C2 1_555 1_555
N5 C2 1_555 1_555
N6 C11 1_555 1_555
N7 C4 1_555 1_555
N8 Ag2 1_555 1_555
N9 C28 1_555 1_555
N10 C1 1_555 1_555
N11 C1 1_555 1_555
N12 C10 1_555 1_555
Mo1 O1 1_555 1_555
Mo2 O2 1_555 1_555
Mo3 O5 1_555 1_555
Mo4 O11 1_555 1_555
Mo5 O6 1_555 1_555
O2 Mo1 1_555 1_555
O3 Mo2 1_555 1_555
O4 Mo2 1_555 1_555
O5 Mo2 1_555 1_555
O6 Mo2 1_555 1_555
O7 Mo5 1_555 1_555
O8 Mo5 1_555 1_555
O9 Mo3 1_555 1_555
O10 Mo3 1_555 1_555
O11 Mo3 1_555 1_555
O12 Mo4 1_555 1_555
O13 Mo4 1_555 1_555
Ag1B N2 1_555 1_555
Ag1B_2 N9 1_555 1_555
Ag2B N7 1_555 1_555
N2B Ag1 1_555 1_555
N7B Ag2 1_555 1_555
N9B Ag1 1_555 1_555
Mo2A O7 1_555 1_555
Mo3A O12 1_555 1_555
Mo5A O6A 1_555 1_555
O1A Mo1 1_555 1_555
O2A Mo1 1_555 1_555
O3A Mo2A 1_555 1_555
O4A Mo2A 1_555 1_555
O5A Mo2A 1_555 1_555
O6A Mo2A 1_555 1_555
O7A Mo2 1_555 1_555
O8A Mo5A 1_555 1_555
O9A Mo3A 1_555 1_555
O10A Mo3A 1_555 1_555
O11A Mo4 1_555 1_555
O12A Mo3 1_555 1_555
O13A Mo4 1_555 1_555
C9 N8 1_555 1_555
C10 N10 1_555 1_555
C11 N5 1_555 1_555
C18 N12 1_555 1_555
C19 C24 1_555 1_555
C20 N4 1_555 1_555
C20 N6 1_555 1_555
C22 C26 1_555 1_555
C23 N1 1_555 1_555
C25 N2 1_555 1_555
C28 C31 1_555 1_555
C29 N7 1_555 1_555
C30 N9 1_555 1_555
C32 N8 1_555 1_555
C36 N3 1_555 1_555
Mo3 O6 1_555 1_555
Mo4 O12A 1_555 1_555
Mo5 O12 1_555 1_555
Mo2A O2A 1_555 1_555
Mo3A O5A 1_555 1_555
Mo3A O6A 1_555 1_555
Mo3A O11A 1_555 1_555
Mo5A O7A 1_555 1_555
Mo5A O12A 1_555 1_555

#END
