
#######################################################################
#
#                 Cambridge Crystallographic Data Centre
#                                CCDC 
#
#######################################################################
#
# If this CIF has been generated from an entry in the Cambridge 
# Structural Database, then it will include bibliographic, chemical, 
# crystal, experimental, refinement or atomic coordinate data resulting 
# from the CCDC's data processing and validation procedures.
#
#######################################################################

data_QOFDAS
_symmetry_cell_setting           monoclinic
_symmetry_space_group_name_H-M   'C 2/c'
_symmetry_Int_Tables_number      15
_space_group_name_Hall           '-C 2yn'
loop_
_symmetry_equiv_pos_site_id
_symmetry_equiv_pos_as_xyz
1 x,y,z
2 -x,y,1/2-z
3 1/2+x,1/2+y,z
4 1/2-x,1/2+y,1/2-z
5 -x,-y,-z
6 x,-y,1/2+z
7 1/2-x,1/2-y,-z
8 1/2+x,1/2-y,1/2+z
_cell_length_a                   21.9848(6)
_cell_length_b                   16.5617(6)
_cell_length_c                   25.6443(9)
_cell_angle_alpha                90
_cell_angle_beta                 115.366(5)
_cell_angle_gamma                90
_cell_volume                     8437.03
loop_
_atom_site_label
_atom_site_type_symbol
_atom_site_fract_x
_atom_site_fract_y
_atom_site_fract_z
Ag1 Ag 0.273896(18) 0.20897(3) -0.131754(16)
Ag2 Ag 0.794995(19) 0.50132(3) 0.367687(17)
C1 C 0.6278(2) 0.4760(3) 0.08782(19)
C2 C 0.4227(2) 0.9004(3) 0.3926(2)
H1 H 0.4029 0.9050 0.3526
C3 C 0.6538(2) 0.7197(3) 0.50129(19)
C4 C 0.6280(2) 0.5616(3) -0.0887(2)
H2 H 0.5855 0.5398 -0.1100
C5 C 0.6280(2) 0.5070(3) 0.00244(19)
C6 C 0.4821(2) 0.8872(3) 0.5094(2)
H3 H 0.5014 0.8842 0.5495
C7 C 0.4031(2) 0.3169(3) -0.1108(2)
H4 H 0.3846 0.3113 -0.1507
C8 C 0.7434(2) 0.6335(3) 0.49629(19)
H5 H 0.7639 0.6330 0.5364
C9 C 0.5753(2) 0.8007(3) 0.5072(2)
C10 C 0.6599(2) 0.5523(3) -0.02968(19)
C11 C 0.7229(2) 0.5865(3) -0.0006(2)
H6 H 0.7455 0.5821 0.0394
C12 C 0.7719(2) 0.5927(3) 0.4656(2)
H7 H 0.8122 0.5654 0.4858
C13 C 0.7517(2) 0.6266(3) -0.0308(2)
H8 H 0.7942 0.6490 -0.0104
C14 C 0.4573(2) 0.3341(3) 0.0056(2)
H9 H 0.4750 0.3380 0.0456
C15 C 0.6583(2) 0.4862(3) 0.1518(2)
C16 C 0.4609(2) 0.3610(3) -0.0844(2)
H10 H 0.4813 0.3836 -0.1061
C17 C 0.6837(2) 0.6751(3) 0.46686(18)
C18 C 0.6902(2) 0.7426(3) 0.6519(2)
C19 C 0.4823(2) 0.8576(3) 0.41865(19)
H11 H 0.5016 0.8341 0.3964
C20 C 0.5498(2) 0.4228(3) 0.00565(19)
C21 C 0.7793(3) 0.6987(3) 0.7403(2)
H12 H 0.8215 0.6750 0.7594
C22 C 0.7527(2) 0.7070(3) 0.6811(2)
H13 H 0.7767 0.6889 0.6610
C23 C 0.6610(2) 0.6042(3) -0.1156(2)
H14 H 0.6388 0.6112 -0.1554
C24 C 0.6565(3) 0.7680(3) 0.6841(2)
H15 H 0.6142 0.7918 0.6662
C25 C 0.7122(2) 0.5380(3) 0.1783(2)
H16 H 0.7284 0.5686 0.1566
C26 C 0.6869(3) 0.7573(3) 0.7429(2)
H17 H 0.6640 0.7750 0.7640
C27 C 0.3989(2) 0.2906(3) -0.0253(2)
H18 H 0.3776 0.2664 -0.0049
C28 C 0.6583(2) 0.7522(3) 0.5879(2)
C29 C 0.7414(3) 0.5434(3) 0.2377(2)
H19 H 0.7773 0.5788 0.2553
C30 C 0.5127(2) 0.8502(3) 0.47797(19)
C31 C 0.6556(2) 0.6746(3) 0.4075(2)
H20 H 0.6163 0.7033 0.3864
C32 C 0.4891(2) 0.3720(3) -0.02489(19)
C33 C 0.6335(3) 0.4450(3) 0.1853(2)
H21 H 0.5953 0.4127 0.1687
C34 C 0.4223(2) 0.9286(3) 0.4797(2)
H22 H 0.4021 0.9530 0.5010
C35 C 0.6675(3) 0.4535(4) 0.2445(2)
H23 H 0.6518 0.4243 0.2671
C36 C 0.6864(2) 0.6312(3) 0.3799(2)
H24 H 0.6660 0.6299 0.3398
N1 N 0.37154(17) 0.2813(2) -0.08233(17)
N2 N 0.72209(18) 0.6356(2) -0.08816(17)
N3 N 0.7209(2) 0.5003(3) 0.27143(18)
N4 N 0.57474(17) 0.4610(2) -0.02712(16)
N5 N 0.65628(17) 0.5182(2) 0.05968(16)
N6 N 0.57504(18) 0.4275(2) 0.06315(16)
N7 N 0.74411(18) 0.5905(2) 0.40749(17)
N8 N 0.7468(2) 0.7234(3) 0.77159(18)
N9 N 0.39200(18) 0.9355(2) 0.42218(17)
N10 N 0.59761(17) 0.7604(2) 0.47329(16)
N11 N 0.68682(18) 0.7124(2) 0.55894(16)
N12 N 0.60415(18) 0.7989(2) 0.56459(16)
Ag1B Ag 0.773896(18) 0.70897(3) -0.131754(16)
Ag1B_2 Ag 0.773896(18) 0.70897(3) 0.868246(16)
Ag2B Ag 0.294995(19) 1.00132(3) 0.367687(17)
N2B N 0.22209(18) 0.1356(2) -0.08816(17)
N8B N 0.2468(2) 0.2234(3) -0.22841(18)
N9B N 0.89200(18) 0.4355(2) 0.42218(17)
Mo1 Mo 0.0000 0.21450(4) -0.2500
Mo2 Mo 0.111959(19) 0.33930(2) -0.139579(17)
Mo3 Mo 0.116913(19) 0.54071(2) -0.143492(18)
Mo4 Mo 0.0000 0.65180(4) -0.2500
Mo5 Mo 0.050971(18) 0.44357(2) -0.291149(17)
O1 O -0.0179(3) 0.1532(4) -0.2052(3)
O2 O 0.07850(17) 0.2656(2) -0.20652(16)
O3 O 0.11010(19) 0.2772(2) -0.08750(17)
O4 O 0.19331(17) 0.3333(2) -0.13050(16)
O5 O 0.10996(16) 0.4402(2) -0.10699(15)
O6 O 0.0890(2) 0.4361(2) -0.21441(15)
O7 O 0.10981(18) 0.4495(2) -0.31721(18)
O8 O 0.00321(17) 0.3556(2) -0.32212(17)
O9 O 0.19994(18) 0.5376(2) -0.12923(18)
O10 O 0.11474(17) 0.6054(2) -0.09374(17)
O11 O 0.08746(16) 0.6076(2) -0.21197(16)
O12 O -0.00102(16) 0.5320(2) -0.31469(16)
O13 O -0.0081(2) 0.7135(3) -0.20078(19)
Mo2A Mo -0.111959(19) 0.33930(2) -0.360421(17)
Mo3A Mo -0.116913(19) 0.54071(2) -0.356508(18)
Mo5A Mo -0.050971(18) 0.44357(2) -0.208851(17)
O1A O 0.0179(3) 0.1532(4) -0.2948(3)
O2A O -0.07850(17) 0.2656(2) -0.29348(16)
O3A O -0.11010(19) 0.2772(2) -0.41250(17)
O4A O -0.19331(17) 0.3333(2) -0.36950(16)
O5A O -0.10996(16) 0.4402(2) -0.39301(15)
O6A O -0.0890(2) 0.4361(2) -0.28559(15)
O7A O -0.10981(18) 0.4495(2) -0.18279(18)
O8A O -0.00321(17) 0.3556(2) -0.17788(17)
O9A O -0.19994(18) 0.5376(2) -0.37077(18)
O10A O -0.11474(17) 0.6054(2) -0.40626(17)
O11A O -0.08746(16) 0.6076(2) -0.28803(16)
O12A O 0.00102(16) 0.5320(2) -0.18531(16)
O13A O 0.0081(2) 0.7135(3) -0.29922(19)
O14 O -0.0788(6) 0.8639(8) -0.2324(6)
H25 H -0.0572 0.8197 -0.2227
H26 H -0.0509 0.9017 -0.2283
O15 O 0.0123(16) 0.9842(18) -0.2206(11)
H27 H 0.0000 1.0314 -0.2161
H28 H -0.0187 0.9511 -0.2241
loop_
_geom_bond_atom_site_label_1
_geom_bond_atom_site_label_2
_geom_bond_site_symmetry_1
_geom_bond_site_symmetry_2
Ag1 N1 1_555 1_555
Ag2 N3 1_555 1_555
C1 C15 1_555 1_555
C2 H1 1_555 1_555
C3 C17 1_555 1_555
C4 H2 1_555 1_555
C5 C10 1_555 1_555
C6 H3 1_555 1_555
C7 H4 1_555 1_555
C8 H5 1_555 1_555
C9 C30 1_555 1_555
C10 C4 1_555 1_555
C11 C10 1_555 1_555
H6 C11 1_555 1_555
C12 C8 1_555 1_555
H7 C12 1_555 1_555
C13 C11 1_555 1_555
H8 C13 1_555 1_555
C14 H9 1_555 1_555
C15 C25 1_555 1_555
C16 C7 1_555 1_555
H10 C16 1_555 1_555
C17 C8 1_555 1_555
C18 C22 1_555 1_555
C19 C2 1_555 1_555
H11 C19 1_555 1_555
C20 C32 1_555 1_555
C21 H12 1_555 1_555
C22 C21 1_555 1_555
H13 C22 1_555 1_555
C23 C4 1_555 1_555
H14 C23 1_555 1_555
C24 C18 1_555 1_555
H15 C24 1_555 1_555
C25 H16 1_555 1_555
C26 C24 1_555 1_555
H17 C26 1_555 1_555
C27 C14 1_555 1_555
H18 C27 1_555 1_555
C28 C18 1_555 1_555
C29 C25 1_555 1_555
H19 C29 1_555 1_555
C30 C6 1_555 1_555
C31 C17 1_555 1_555
H20 C31 1_555 1_555
C32 C14 1_555 1_555
C33 C15 1_555 1_555
H21 C33 1_555 1_555
C34 C6 1_555 1_555
H22 C34 1_555 1_555
C35 C33 1_555 1_555
H23 C35 1_555 1_555
C36 C31 1_555 1_555
H24 C36 1_555 1_555
N1 C7 1_555 1_555
N2 C13 1_555 1_555
N3 C29 1_555 1_555
N4 C5 1_555 1_555
N5 C1 1_555 1_555
N6 C1 1_555 1_555
N7 Ag2 1_555 1_555
N8 C21 1_555 1_555
N9 C2 1_555 1_555
N10 C3 1_555 1_555
N11 C3 1_555 1_555
N12 C9 1_555 1_555
Mo1 O1 1_555 1_555
Mo2 O2 1_555 1_555
Mo3 O5 1_555 1_555
Mo4 O11 1_555 1_555
Mo5 O6 1_555 1_555
O2 Mo1 1_555 1_555
O3 Mo2 1_555 1_555
O4 Mo2 1_555 1_555
O5 Mo2 1_555 1_555
O6 Mo2 1_555 1_555
O7 Mo5 1_555 1_555
O8 Mo5 1_555 1_555
O9 Mo3 1_555 1_555
O10 Mo3 1_555 1_555
O11 Mo3 1_555 1_555
O12 Mo4 1_555 1_555
O13 Mo4 1_555 1_555
O14 H25 1_555 1_555
H26 O14 1_555 1_555
O15 H27 1_555 1_555
H28 O15 1_555 1_555
Ag1B N2 1_555 1_555
Ag1B_2 N8 1_555 1_555
Ag2B N9 1_555 1_555
N2B Ag1 1_555 1_555
N8B Ag1 1_555 1_555
N9B Ag2 1_555 1_555
Mo2A O8 1_555 1_555
Mo3A O12 1_555 1_555
Mo5A O6A 1_555 1_555
O1A Mo1 1_555 1_555
O2A Mo1 1_555 1_555
O3A Mo2A 1_555 1_555
O4A Mo2A 1_555 1_555
O5A Mo2A 1_555 1_555
O6A Mo2A 1_555 1_555
O7A Mo5A 1_555 1_555
O8A Mo2 1_555 1_555
O9A Mo3A 1_555 1_555
O10A Mo3A 1_555 1_555
O11A Mo4 1_555 1_555
O12A Mo3 1_555 1_555
O13A Mo4 1_555 1_555
C5 N5 1_555 1_555
C9 N10 1_555 1_555
C12 N7 1_555 1_555
C16 C32 1_555 1_555
C19 C30 1_555 1_555
C20 N4 1_555 1_555
C20 N6 1_555 1_555
C23 N2 1_555 1_555
C26 N8 1_555 1_555
C27 N1 1_555 1_555
C28 N11 1_555 1_555
C28 N12 1_555 1_555
C34 N9 1_555 1_555
C35 N3 1_555 1_555
C36 N7 1_555 1_555
Mo3 O6 1_555 1_555
Mo4 O12A 1_555 1_555
Mo5 O12 1_555 1_555
Mo2A O2A 1_555 1_555
Mo3A O5A 1_555 1_555
Mo3A O6A 1_555 1_555
Mo3A O11A 1_555 1_555
Mo5A O8A 1_555 1_555
Mo5A O12A 1_555 1_555

#END
