
#######################################################################
#
#                 Cambridge Crystallographic Data Centre
#                                CCDC 
#
#######################################################################
#
# If this CIF has been generated from an entry in the Cambridge 
# Structural Database, then it will include bibliographic, chemical, 
# crystal, experimental, refinement or atomic coordinate data resulting 
# from the CCDC's data processing and validation procedures.
#
#######################################################################

data_QOFDIA03
_symmetry_cell_setting           monoclinic
_symmetry_space_group_name_H-M   'C 2/c'
_symmetry_Int_Tables_number      15
_space_group_name_Hall           '-C 2yn'
loop_
_symmetry_equiv_pos_site_id
_symmetry_equiv_pos_as_xyz
1 x,y,z
2 -x,y,1/2-z
3 1/2+x,1/2+y,z
4 1/2-x,1/2+y,1/2-z
5 -x,-y,-z
6 x,-y,1/2+z
7 1/2-x,1/2-y,-z
8 1/2+x,1/2-y,1/2+z
_cell_length_a                   22.0466(6)
_cell_length_b                   16.4250(3)
_cell_length_c                   25.5931(7)
_cell_angle_alpha                90
_cell_angle_beta                 115.293(3)
_cell_angle_gamma                90
_cell_volume                     8379.21
loop_
_atom_site_label
_atom_site_type_symbol
_atom_site_fract_x
_atom_site_fract_y
_atom_site_fract_z
Ag1 Ag -0.15576(2) 0.45767(3) -0.632155(18)
Ag2 Ag 0.32285(2) 0.25273(3) -0.132791(18)
C1 C 0.7779(3) 0.6376(3) 0.0091(2)
H1 H 0.7988 0.6338 0.0492
C2 C 0.1237(2) 0.2569(3) -0.4979(2)
C3 C 0.5977(2) 0.4704(3) 0.0006(2)
C4 C 0.0600(2) 0.3022(3) -0.5301(2)
C5 C 0.2977(2) 0.0842(3) -0.4954(2)
H2 H 0.3200 0.0886 -0.4554
C6 C 0.2351(3) 0.0648(3) -0.6118(2)
H3 H 0.2132 0.0578 -0.6516
C7 C 0.4439(3) 0.3432(3) -0.0356(2)
H4 H 0.4241 0.3148 -0.0156
C8 C 0.0331(3) 0.3117(3) -0.5891(2)
H5 H 0.0544 0.2900 -0.6104
C9 C 0.5331(2) 0.4265(3) -0.0333(2)
C10 C 0.5035(3) 0.3840(3) -0.0040(2)
H6 H 0.5230 0.3827 0.0362
C11 C 0.6826(2) 0.5520(3) 0.0066(2)
C12 C 0.7199(2) 0.6519(3) -0.1080(2)
H7 H 0.6999 0.6560 -0.1481
C13 C 0.2100(2) 0.2269(3) -0.4122(2)
C14 C 0.6793(3) 0.4561(4) 0.1810(2)
H8 H 0.6354 0.4382 0.1609
C15 C 0.6801(2) 0.5021(3) 0.0879(2)
C16 C 0.7154(2) 0.6014(3) -0.0226(2)
C17 C 0.0260(3) 0.3356(3) -0.5004(2)
H9 H 0.0431 0.3308 -0.4604
C18 C 0.2434(2) 0.2374(3) -0.3488(2)
C19 C 0.6860(2) 0.6099(3) -0.0816(2)
H10 H 0.6439 0.5877 -0.1036
C20 C 0.2054(2) 0.1723(3) -0.4952(2)
C21 C 0.2359(2) 0.1209(3) -0.5256(2)
C22 C -0.0267(3) 0.3545(3) -0.6163(2)
H11 H -0.0439 0.3626 -0.6560
C23 C -0.0330(3) 0.3756(4) -0.5309(2)
H12 H -0.0553 0.3978 -0.5105
C24 C 0.3257(3) 0.0410(3) -0.5259(2)
H13 H 0.3679 0.0180 -0.5056
C25 C 0.8080(3) 0.6794(3) -0.0210(2)
H14 H 0.8497 0.7033 0.0001
C26 C 0.2038(3) 0.1101(3) -0.5849(2)
H15 H 0.1618 0.1330 -0.6064
C27 C 0.7123(3) 0.4924(3) 0.1517(2)
C28 C 0.8075(3) 0.5047(4) 0.2425(3)
H16 H 0.8518 0.5210 0.2634
C29 C 0.5021(3) 0.4272(3) -0.0931(2)
H17 H 0.5202 0.4565 -0.1141
C30 C 0.4439(3) 0.3834(4) -0.1205(2)
H18 H 0.4242 0.3822 -0.1607
C31 C 0.7782(3) 0.5169(3) 0.1832(2)
H19 H 0.8023 0.5409 0.1649
C32 C 0.3284(3) 0.2075(4) -0.2559(2)
H20 H 0.3679 0.1802 -0.2332
C33 C 0.2157(3) 0.2893(4) -0.3220(2)
H21 H 0.1774 0.3195 -0.3437
C34 C 0.3023(3) 0.1973(4) -0.3150(2)
H22 H 0.3237 0.1645 -0.3316
C35 C 0.2459(3) 0.2950(4) -0.2630(3)
H23 H 0.2269 0.3299 -0.2454
C36 C 0.7118(3) 0.4465(4) 0.2402(2)
H24 H 0.6888 0.4223 0.2593
N1 N -0.0606(2) 0.3848(3) -0.58801(19)
N2 N 0.2954(2) 0.0305(3) -0.58329(19)
N3 N 0.3006(2) 0.2539(3) -0.2293(2)
N4 N 0.1532(2) 0.2679(3) -0.44084(18)
N5 N 0.1479(2) 0.2103(3) -0.52785(18)
N6 N 0.2382(2) 0.1777(3) -0.43725(18)
N7 N 0.4136(2) 0.3423(3) -0.09292(19)
N8 N 0.7801(2) 0.6871(3) -0.07858(19)
N9 N 0.7759(2) 0.4711(3) 0.2715(2)
N10 N 0.6228(2) 0.4627(3) 0.05860(18)
N11 N 0.62620(19) 0.5116(3) -0.02706(18)
N12 N 0.7114(2) 0.5496(3) 0.06446(19)
Ag1_2 Ag 0.84424(2) 0.45767(3) 0.367845(18)
Ag1B Ag 0.34424(2) -0.04233(3) -0.632155(18)
Ag2B Ag 0.82285(2) 0.75273(3) -0.132791(18)
N2B N -0.2046(2) 0.5305(3) -0.58329(19)
N8B N 0.2801(2) 0.1871(3) -0.07858(19)
N9_2 N -0.2241(2) 0.4711(3) -0.7285(2)
Mo1 Mo 0.0000 0.46178(5) -0.7500
Mo2 Mo -0.00138(2) 0.58877(3) -0.639485(18)
Mo3 Mo -0.01017(2) 0.79143(3) -0.643533(19)
Mo4 Mo 0.0000 0.90576(5) -0.7500
Mo5 Mo -0.09163(2) 0.69331(3) -0.791032(19)
O1 O 0.0617(4) 0.3984(4) -0.7061(3)
O2 O -0.0346(2) 0.5138(2) -0.70659(17)
O3 O 0.0519(2) 0.5253(3) -0.58705(19)
O4 O -0.0736(2) 0.5829(3) -0.63092(18)
O5 O 0.0328(2) 0.6900(2) -0.60657(17)
O6 O -0.0513(2) 0.6855(3) -0.71409(17)
O7 O -0.0753(2) 0.6043(3) -0.82277(19)
O8 O -0.1764(2) 0.6988(3) -0.8162(2)
O9 O -0.0791(2) 0.7872(3) -0.6297(2)
O10 O 0.0410(2) 0.8560(3) -0.59333(19)
O11 O -0.0489(2) 0.8585(3) -0.71219(18)
O12 O -0.0643(2) 0.7821(2) -0.81551(18)
O13 O 0.0571(3) 0.9667(3) -0.7004(2)
Mo2A Mo 0.00138(2) 0.58877(3) -0.860515(18)
Mo3A Mo 0.01017(2) 0.79143(3) -0.856467(19)
Mo5A Mo 0.09163(2) 0.69331(3) -0.708968(19)
O1A O -0.0617(4) 0.3984(4) -0.7939(3)
O2A O 0.0346(2) 0.5138(2) -0.79341(17)
O3A O -0.0519(2) 0.5253(3) -0.91295(19)
O4A O 0.0736(2) 0.5829(3) -0.86908(18)
O5A O -0.0328(2) 0.6900(2) -0.89343(17)
O6A O 0.0513(2) 0.6855(3) -0.78591(17)
O7A O 0.0753(2) 0.6043(3) -0.67723(19)
O8A O 0.1764(2) 0.6988(3) -0.6838(2)
O9A O 0.0791(2) 0.7872(3) -0.8703(2)
O10A O -0.0410(2) 0.8560(3) -0.90667(19)
O11A O 0.0489(2) 0.8585(3) -0.78781(18)
O12A O 0.0643(2) 0.7821(2) -0.68449(18)
O13A O -0.0571(3) 0.9667(3) -0.7996(2)
loop_
_geom_bond_atom_site_label_1
_geom_bond_atom_site_label_2
_geom_bond_site_symmetry_1
_geom_bond_site_symmetry_2
Ag1 N1 1_555 1_555
Ag2 N3 1_555 1_555
C1 H1 1_555 1_555
C2 C4 1_555 1_555
C3 C9 1_555 1_555
C4 C8 1_555 1_555
C5 H2 1_555 1_555
C6 H3 1_555 1_555
C7 H4 1_555 1_555
C8 H5 1_555 1_555
C9 C10 1_555 1_555
C10 C7 1_555 1_555
H6 C10 1_555 1_555
C11 C16 1_555 1_555
C12 H7 1_555 1_555
C13 C18 1_555 1_555
C14 H8 1_555 1_555
C15 C27 1_555 1_555
C16 C1 1_555 1_555
C17 C4 1_555 1_555
H9 C17 1_555 1_555
C18 C33 1_555 1_555
C19 C12 1_555 1_555
H10 C19 1_555 1_555
C20 C21 1_555 1_555
C21 C5 1_555 1_555
C22 C8 1_555 1_555
H11 C22 1_555 1_555
C23 C17 1_555 1_555
H12 C23 1_555 1_555
C24 C5 1_555 1_555
H13 C24 1_555 1_555
C25 C1 1_555 1_555
H14 C25 1_555 1_555
C26 C6 1_555 1_555
H15 C26 1_555 1_555
C27 C14 1_555 1_555
C28 H16 1_555 1_555
C29 C9 1_555 1_555
H17 C29 1_555 1_555
C30 C29 1_555 1_555
H18 C30 1_555 1_555
C31 C27 1_555 1_555
H19 C31 1_555 1_555
C32 H20 1_555 1_555
C33 H21 1_555 1_555
C34 C18 1_555 1_555
H22 C34 1_555 1_555
C35 C33 1_555 1_555
H23 C35 1_555 1_555
C36 C14 1_555 1_555
H24 C36 1_555 1_555
N1 C22 1_555 1_555
N2 C6 1_555 1_555
N3 C32 1_555 1_555
N4 C2 1_555 1_555
N5 C2 1_555 1_555
N6 C13 1_555 1_555
N7 Ag2 1_555 1_555
N8 C12 1_555 1_555
N9 C28 1_555 1_555
N10 C3 1_555 1_555
N11 C3 1_555 1_555
N12 C11 1_555 1_555
Mo1 O1 1_555 1_555
Mo2 O2 1_555 1_555
Mo3 O5 1_555 1_555
Mo4 O11 1_555 1_555
Mo5 O6 1_555 1_555
O2 Mo1 1_555 1_555
O3 Mo2 1_555 1_555
O4 Mo2 1_555 1_555
O5 Mo2 1_555 1_555
O6 Mo2 1_555 1_555
O7 Mo5 1_555 1_555
O8 Mo5 1_555 1_555
O9 Mo3 1_555 1_555
O10 Mo3 1_555 1_555
O11 Mo3 1_555 1_555
O12 Mo4 1_555 1_555
O13 Mo4 1_555 1_555
Ag1_2 N9 1_555 1_555
Ag1B N2 1_555 1_555
Ag2B N8 1_555 1_555
N2B Ag1 1_555 1_555
N8B Ag2 1_555 1_555
N9_2 Ag1 1_555 1_555
Mo2A O7 1_555 1_555
Mo3A O12 1_555 1_555
Mo5A O6A 1_555 1_555
O1A Mo1 1_555 1_555
O2A Mo1 1_555 1_555
O3A Mo2A 1_555 1_555
O4A Mo2A 1_555 1_555
O5A Mo2A 1_555 1_555
O6A Mo2A 1_555 1_555
O7A Mo2 1_555 1_555
O8A Mo5A 1_555 1_555
O9A Mo3A 1_555 1_555
O10A Mo3A 1_555 1_555
O11A Mo4 1_555 1_555
O12A Mo3 1_555 1_555
O13A Mo4 1_555 1_555
C7 N7 1_555 1_555
C11 N11 1_555 1_555
C13 N4 1_555 1_555
C15 N10 1_555 1_555
C15 N12 1_555 1_555
C16 C19 1_555 1_555
C20 N5 1_555 1_555
C20 N6 1_555 1_555
C21 C26 1_555 1_555
C23 N1 1_555 1_555
C24 N2 1_555 1_555
C25 N8 1_555 1_555
C28 C31 1_555 1_555
C30 N7 1_555 1_555
C32 C34 1_555 1_555
C35 N3 1_555 1_555
C36 N9 1_555 1_555
Mo3 O6 1_555 1_555
Mo4 O12A 1_555 1_555
Mo5 O12 1_555 1_555
Mo2A O2A 1_555 1_555
Mo3A O5A 1_555 1_555
Mo3A O6A 1_555 1_555
Mo3A O11A 1_555 1_555
Mo5A O7A 1_555 1_555
Mo5A O12A 1_555 1_555

#END
