
#######################################################################
#
#                 Cambridge Crystallographic Data Centre
#                                CCDC 
#
#######################################################################
#
# If this CIF has been generated from an entry in the Cambridge 
# Structural Database, then it will include bibliographic, chemical, 
# crystal, experimental, refinement or atomic coordinate data resulting 
# from the CCDC's data processing and validation procedures.
#
#######################################################################

data_QOMFAA
_symmetry_cell_setting           triclinic
_symmetry_space_group_name_H-M   'P 1'
_symmetry_Int_Tables_number      1
_space_group_name_Hall           'P 1'
loop_
_symmetry_equiv_pos_site_id
_symmetry_equiv_pos_as_xyz
1 x,y,z
_cell_length_a                   8.7651(3)
_cell_length_b                   8.7941(4)
_cell_length_c                   13.6911(6)
_cell_angle_alpha                73.567(2)
_cell_angle_beta                 73.048(2)
_cell_angle_gamma                81.472(2)
_cell_volume                     965.742
loop_
_atom_site_label
_atom_site_type_symbol
_atom_site_fract_x
_atom_site_fract_y
_atom_site_fract_z
Zn1 Zn 0.49606(4) 0.84875(4) 0.85522(3)
Zn2 Zn -0.37594(4) 0.89932(4) 1.62001(3)
C1 C -0.2614(5) 0.9809(6) 1.3807(3)
C2 C -0.1518(6) 0.9838(6) 1.2818(4)
C3 C -0.0084(8) 0.8882(9) 1.2832(5)
C4 C 0.0187(7) 0.8046(8) 1.3779(4)
H1 H 0.1150 0.7394 1.3798
C5 C -0.0934(7) 0.8149(7) 1.4702(4)
H2 H -0.0723 0.7568 1.5354
C6 C 0.3508(6) 0.9635(7) 1.0480(4)
H3 H 0.4319 1.0365 1.0175
C7 C 0.2345(6) 0.9828(7) 1.1383(4)
H4 H 0.2349 1.0680 1.1681
C8 C 0.1175(8) 0.8742(9) 1.1839(5)
C9 C 0.1192(6) 0.7559(7) 1.1366(4)
H5 H 0.0382 0.6827 1.1648
C10 C 0.2391(6) 0.7442(6) 1.0480(4)
H6 H 0.2416 0.6593 1.0172
C11 C -0.1952(7) 1.0705(8) 1.1801(4)
H7 H -0.1002 1.1233 1.1279
C12 C -0.3352(8) 1.1923(9) 1.1940(4)
H8 H -0.3003 1.2830 1.2108
C13 C -0.4734(8) 1.1253(9) 1.2827(5)
H9 H -0.5046 1.0292 1.2713
H10 H -0.5665 1.2045 1.2864
C14 C -0.4209(7) 1.0820(8) 1.3875(4)
H11 H -0.4109 1.1813 1.4050
H12 H -0.5049 1.0231 1.4454
C15 C -0.1922(10) 0.9812(12) 1.0287(5)
H13 H -0.2535 1.0773 0.9996
H14 H -0.2162 0.8908 1.0084
H15 H -0.0777 0.9968 1.0009
C16 C -0.4810(13) 1.3924(13) 1.0924(7)
H16 H -0.4618 1.4534 1.1370
H17 H -0.5926 1.3651 1.1170
H18 H -0.4595 1.4565 1.0191
N1 N -0.2308(6) 0.9035(7) 1.4715(4)
N2 N 0.3544(6) 0.8490(7) 1.0025(4)
O1 O -0.2354(5) 0.9498(6) 1.1421(3)
O2 O -0.3772(7) 1.2495(7) 1.0983(3)
C17 C 0.2853(9) 0.8857(13) 0.7067(7)
C18 C 0.1155(8) 0.8819(11) 0.6987(6)
H19 H 0.0973 0.9019 0.6309
C19 C -0.0051(8) 0.8520(11) 0.7824(6)
H20 H 0.0140 0.8281 0.8502
C20 C -0.1685(8) 0.8541(10) 0.7752(6)
O3 O 0.3958(6) 0.8945(8) 0.6214(4)
O4 O 0.3039(6) 0.8863(8) 0.7928(4)
O5 O -0.1910(6) 0.8900(8) 0.6849(4)
O6 O -0.2739(6) 0.8196(7) 0.8609(4)
C21 C 0.5638(11) 0.5699(10) 0.7664(6)
C22 C 0.5506(11) 0.4048(10) 0.7753(7)
H21 H 0.5239 0.3355 0.8441
C23 C 0.5728(11) 0.3444(10) 0.6952(6)
H22 H 0.5973 0.4124 0.6259
C24 C 0.5607(10) 0.1675(9) 0.7093(6)
O7 O 0.6283(7) 0.6590(6) 0.6749(5)
O8 O 0.5063(7) 0.6190(6) 0.8492(5)
O9 O 0.5842(7) 0.1255(6) 0.6255(4)
O10 O 0.5292(7) 0.0837(6) 0.7997(4)
Zn1_2 Zn -0.50394(4) 0.84875(4) 0.85522(3)
Zn1_3 Zn 0.49606(4) -0.15125(4) 0.85522(3)
Zn2_2 Zn 0.62406(4) 0.89932(4) 0.62001(3)
Zn2_3 Zn -0.37594(4) 0.89932(4) 0.62001(3)
Zn2_4 Zn 0.62406(4) -0.10068(4) 0.62001(3)
O3_2 O -0.6042(6) 0.8945(8) 1.6214(4)
O5_2 O -0.1910(6) 0.8900(8) 1.6849(4)
O6_2 O 0.7261(6) 0.8196(7) 0.8609(4)
O7_2 O -0.3717(7) 0.6590(6) 1.6749(5)
O9_2 O -0.4158(7) 1.1255(6) 1.6255(4)
O10_2 O 0.5292(7) 1.0837(6) 0.7997(4)
loop_
_geom_bond_atom_site_label_1
_geom_bond_atom_site_label_2
_geom_bond_site_symmetry_1
_geom_bond_site_symmetry_2
Zn1 N2 1_555 1_555
Zn2 N1 1_555 1_555
C1 C2 1_555 1_555
C2 C3 1_555 1_555
C3 C4 1_555 1_555
C4 H1 1_555 1_555
C5 C4 1_555 1_555
H2 C5 1_555 1_555
C6 H3 1_555 1_555
C7 C6 1_555 1_555
H4 C7 1_555 1_555
C8 C3 1_555 1_555
C9 C8 1_555 1_555
H5 C9 1_555 1_555
C10 C9 1_555 1_555
H6 C10 1_555 1_555
C11 C2 1_555 1_555
H7 C11 1_555 1_555
C12 C11 1_555 1_555
H8 C12 1_555 1_555
C13 C12 1_555 1_555
H9 C13 1_555 1_555
H10 C13 1_555 1_555
C14 C1 1_555 1_555
H11 C14 1_555 1_555
H12 C14 1_555 1_555
C15 H13 1_555 1_555
H14 C15 1_555 1_555
H15 C15 1_555 1_555
C16 H16 1_555 1_555
H17 C16 1_555 1_555
H18 C16 1_555 1_555
N1 C1 1_555 1_555
N2 C6 1_555 1_555
O1 C11 1_555 1_555
O2 C12 1_555 1_555
C17 C18 1_555 1_555
C18 H19 1_555 1_555
C19 C18 1_555 1_555
H20 C19 1_555 1_555
C20 C19 1_555 1_555
O3 C17 1_555 1_555
O4 Zn1 1_555 1_555
O5 C20 1_555 1_555
O6 C20 1_555 1_555
C21 C22 1_555 1_555
C22 H21 1_555 1_555
C23 C22 1_555 1_555
H22 C23 1_555 1_555
C24 C23 1_555 1_555
O7 C21 1_555 1_555
O8 Zn1 1_555 1_555
O9 C24 1_555 1_555
O10 C24 1_555 1_555
Zn1_2 O6 1_555 1_555
Zn1_3 O10 1_555 1_555
Zn2_2 O3 1_555 1_555
Zn2_3 O5 1_555 1_555
Zn2_4 O9 1_555 1_555
O3_2 Zn2 1_555 1_555
O5_2 Zn2 1_555 1_555
O6_2 Zn1 1_555 1_555
O7_2 Zn2 1_555 1_555
O9_2 Zn2 1_555 1_555
O10_2 Zn1 1_555 1_555
C5 N1 1_555 1_555
C7 C8 1_555 1_555
C10 N2 1_555 1_555
C13 C14 1_555 1_555
C15 O1 1_555 1_555
C16 O2 1_555 1_555
C17 O4 1_555 1_555
C21 O8 1_555 1_555
O7 Zn2_2 1_555 1_555

#END
