
#######################################################################
#
#                 Cambridge Crystallographic Data Centre
#                                CCDC 
#
#######################################################################
#
# If this CIF has been generated from an entry in the Cambridge 
# Structural Database, then it will include bibliographic, chemical, 
# crystal, experimental, refinement or atomic coordinate data resulting 
# from the CCDC's data processing and validation procedures.
#
#######################################################################

data_QONQAM
_symmetry_cell_setting           orthorhombic
_symmetry_space_group_name_H-M   'I m m a'
_symmetry_Int_Tables_number      74
_space_group_name_Hall           '-I 2b 2'
loop_
_symmetry_equiv_pos_site_id
_symmetry_equiv_pos_as_xyz
1 x,y,z
2 x,-y,-z
3 -x,1/2+y,-z
4 -x,1/2-y,z
5 1/2+x,1/2+y,1/2+z
6 1/2+x,1/2-y,1/2-z
7 1/2-x,y,1/2-z
8 1/2-x,-y,1/2+z
9 -x,-y,-z
10 -x,y,z
11 x,1/2-y,z
12 x,1/2+y,-z
13 1/2-x,1/2-y,1/2-z
14 1/2-x,1/2+y,1/2+z
15 1/2+x,-y,1/2+z
16 1/2+x,y,1/2-z
_cell_length_a                   6.623(2)
_cell_length_b                   16.893(3)
_cell_length_c                   12.592(2)
_cell_angle_alpha                90
_cell_angle_beta                 90
_cell_angle_gamma                90
_cell_volume                     1408.82
loop_
_atom_site_label
_atom_site_type_symbol
_atom_site_fract_x
_atom_site_fract_y
_atom_site_fract_z
Fe1 Fe 0.25000 0.25000 0.25000
C4 C 0.080(10) 0.2934(13) 0.363(5)
C5 C 0.287(9) 0.3234(17) 0.365(2)
C6 C 0.425(11) 0.25000 0.370(6)
Fe1C Fe -0.25000 0.25000 0.25000
Fe1C_2 Fe 0.75000 0.25000 0.25000
Fe1_2 Fe -0.75000 0.25000 0.25000
Fe1_3 Fe 1.25000 0.25000 0.25000
Fe1C_3 Fe -1.25000 0.25000 0.25000
Fe1C_4 Fe 1.75000 0.25000 0.25000
Fe1_4 Fe -1.75000 0.25000 0.25000
Fe1_5 Fe 2.25000 0.25000 0.25000
Fe1C_5 Fe -2.25000 0.25000 0.25000
Fe1C_6 Fe 2.75000 0.25000 0.25000
Fe1_6 Fe -2.75000 0.25000 0.25000
Fe1_7 Fe 3.25000 0.25000 0.25000
Fe1C_7 Fe -3.25000 0.25000 0.25000
Fe1C_8 Fe 3.75000 0.25000 0.25000
Fe1_8 Fe -3.75000 0.25000 0.25000
Fe1_9 Fe 4.25000 0.25000 0.25000
C4F C 0.420(10) 0.2934(13) 0.137(5)
C4J C 0.080(10) 0.2066(13) 0.363(5)
C4L C 0.420(10) 0.2066(13) 0.137(5)
C4I C -0.080(10) 0.2934(13) 0.363(5)
C4O C 0.580(10) 0.2934(13) 0.137(5)
C4C C -0.080(10) 0.2066(13) 0.363(5)
C4E C 0.580(10) 0.2066(13) 0.137(5)
C4C_2 C 0.920(10) 0.2066(13) 0.363(5)
C4I_2 C 0.920(10) 0.2934(13) 0.363(5)
C4E_2 C -0.420(10) 0.2066(13) 0.137(5)
C4O_2 C -0.420(10) 0.2934(13) 0.137(5)
C4J_2 C 1.080(10) 0.2066(13) 0.363(5)
C4_2 C 1.080(10) 0.2934(13) 0.363(5)
C4L_2 C -0.580(10) 0.2066(13) 0.137(5)
C4F_2 C -0.580(10) 0.2934(13) 0.137(5)
C4J_3 C -0.920(10) 0.2066(13) 0.363(5)
C4_3 C -0.920(10) 0.2934(13) 0.363(5)
C4L_3 C 1.420(10) 0.2066(13) 0.137(5)
C4F_3 C 1.420(10) 0.2934(13) 0.137(5)
C4C_3 C -1.080(10) 0.2066(13) 0.363(5)
C4I_3 C -1.080(10) 0.2934(13) 0.363(5)
C4E_3 C 1.580(10) 0.2066(13) 0.137(5)
C4O_3 C 1.580(10) 0.2934(13) 0.137(5)
C4I_4 C 1.920(10) 0.2934(13) 0.363(5)
C4C_4 C 1.920(10) 0.2066(13) 0.363(5)
C4O_4 C -1.420(10) 0.2934(13) 0.137(5)
C4E_4 C -1.420(10) 0.2066(13) 0.137(5)
C4_4 C 2.080(10) 0.2934(13) 0.363(5)
C4J_4 C 2.080(10) 0.2066(13) 0.363(5)
C4F_4 C -1.580(10) 0.2934(13) 0.137(5)
C4L_4 C -1.580(10) 0.2066(13) 0.137(5)
C4_5 C -1.920(10) 0.2934(13) 0.363(5)
C4J_5 C -1.920(10) 0.2066(13) 0.363(5)
C4F_5 C 2.420(10) 0.2934(13) 0.137(5)
C4L_5 C 2.420(10) 0.2066(13) 0.137(5)
C4I_5 C -2.080(10) 0.2934(13) 0.363(5)
C4C_5 C -2.080(10) 0.2066(13) 0.363(5)
C4O_5 C 2.580(10) 0.2934(13) 0.137(5)
C4E_5 C 2.580(10) 0.2066(13) 0.137(5)
C4C_6 C 2.920(10) 0.2066(13) 0.363(5)
C4I_6 C 2.920(10) 0.2934(13) 0.363(5)
C4E_6 C -2.420(10) 0.2066(13) 0.137(5)
C4O_6 C -2.420(10) 0.2934(13) 0.137(5)
C4J_6 C 3.080(10) 0.2066(13) 0.363(5)
C4_6 C 3.080(10) 0.2934(13) 0.363(5)
C4L_6 C -2.580(10) 0.2066(13) 0.137(5)
C4F_6 C -2.580(10) 0.2934(13) 0.137(5)
C4J_7 C -2.920(10) 0.2066(13) 0.363(5)
C4_7 C -2.920(10) 0.2934(13) 0.363(5)
C4L_7 C 3.420(10) 0.2066(13) 0.137(5)
C4F_7 C 3.420(10) 0.2934(13) 0.137(5)
C4C_7 C -3.080(10) 0.2066(13) 0.363(5)
C4I_7 C -3.080(10) 0.2934(13) 0.363(5)
C4E_7 C 3.580(10) 0.2066(13) 0.137(5)
C4O_7 C 3.580(10) 0.2934(13) 0.137(5)
C4I_8 C 3.920(10) 0.2934(13) 0.363(5)
C4C_8 C 3.920(10) 0.2066(13) 0.363(5)
C4O_8 C -3.420(10) 0.2934(13) 0.137(5)
C4E_8 C -3.420(10) 0.2066(13) 0.137(5)
C4_8 C 4.080(10) 0.2934(13) 0.363(5)
C4J_8 C 4.080(10) 0.2066(13) 0.363(5)
C4F_8 C -3.580(10) 0.2934(13) 0.137(5)
C4L_8 C -3.580(10) 0.2066(13) 0.137(5)
C5F C 0.213(9) 0.3234(17) 0.135(2)
C5J C 0.287(9) 0.1766(17) 0.365(2)
C5L C 0.213(9) 0.1766(17) 0.135(2)
C5I C -0.287(9) 0.3234(17) 0.365(2)
C5C C 0.713(9) 0.1766(17) 0.365(2)
C5I_2 C 0.713(9) 0.3234(17) 0.365(2)
C5O C 0.787(9) 0.3234(17) 0.135(2)
C5C_2 C -0.287(9) 0.1766(17) 0.365(2)
C5E C 0.787(9) 0.1766(17) 0.135(2)
C5E_2 C -0.213(9) 0.1766(17) 0.135(2)
C5O_2 C -0.213(9) 0.3234(17) 0.135(2)
C5J_2 C -0.713(9) 0.1766(17) 0.365(2)
C5_2 C -0.713(9) 0.3234(17) 0.365(2)
C5J_3 C 1.287(9) 0.1766(17) 0.365(2)
C5_3 C 1.287(9) 0.3234(17) 0.365(2)
C5L_2 C 1.213(9) 0.1766(17) 0.135(2)
C5F_2 C 1.213(9) 0.3234(17) 0.135(2)
C5L_3 C -0.787(9) 0.1766(17) 0.135(2)
C5F_3 C -0.787(9) 0.3234(17) 0.135(2)
C5C_3 C -1.287(9) 0.1766(17) 0.365(2)
C5I_3 C -1.287(9) 0.3234(17) 0.365(2)
C5I_4 C 1.713(9) 0.3234(17) 0.365(2)
C5C_4 C 1.713(9) 0.1766(17) 0.365(2)
C5E_3 C 1.787(9) 0.1766(17) 0.135(2)
C5O_3 C 1.787(9) 0.3234(17) 0.135(2)
C5O_4 C -1.213(9) 0.3234(17) 0.135(2)
C5E_4 C -1.213(9) 0.1766(17) 0.135(2)
C5_4 C -1.713(9) 0.3234(17) 0.365(2)
C5J_4 C -1.713(9) 0.1766(17) 0.365(2)
C5_5 C 2.287(9) 0.3234(17) 0.365(2)
C5J_5 C 2.287(9) 0.1766(17) 0.365(2)
C5F_4 C 2.213(9) 0.3234(17) 0.135(2)
C5L_4 C 2.213(9) 0.1766(17) 0.135(2)
C5F_5 C -1.787(9) 0.3234(17) 0.135(2)
C5L_5 C -1.787(9) 0.1766(17) 0.135(2)
C5I_5 C -2.287(9) 0.3234(17) 0.365(2)
C5C_5 C -2.287(9) 0.1766(17) 0.365(2)
C5C_6 C 2.713(9) 0.1766(17) 0.365(2)
C5I_6 C 2.713(9) 0.3234(17) 0.365(2)
C5O_5 C 2.787(9) 0.3234(17) 0.135(2)
C5E_5 C 2.787(9) 0.1766(17) 0.135(2)
C5E_6 C -2.213(9) 0.1766(17) 0.135(2)
C5O_6 C -2.213(9) 0.3234(17) 0.135(2)
C5J_6 C -2.713(9) 0.1766(17) 0.365(2)
C5_6 C -2.713(9) 0.3234(17) 0.365(2)
C5J_7 C 3.287(9) 0.1766(17) 0.365(2)
C5_7 C 3.287(9) 0.3234(17) 0.365(2)
C5L_6 C 3.213(9) 0.1766(17) 0.135(2)
C5F_6 C 3.213(9) 0.3234(17) 0.135(2)
C5L_7 C -2.787(9) 0.1766(17) 0.135(2)
C5F_7 C -2.787(9) 0.3234(17) 0.135(2)
C5C_7 C -3.287(9) 0.1766(17) 0.365(2)
C5I_7 C -3.287(9) 0.3234(17) 0.365(2)
C5I_8 C 3.713(9) 0.3234(17) 0.365(2)
C5C_8 C 3.713(9) 0.1766(17) 0.365(2)
C5E_7 C 3.787(9) 0.1766(17) 0.135(2)
C5O_7 C 3.787(9) 0.3234(17) 0.135(2)
C5O_8 C -3.213(9) 0.3234(17) 0.135(2)
C5E_8 C -3.213(9) 0.1766(17) 0.135(2)
C5_8 C -3.713(9) 0.3234(17) 0.365(2)
C5J_8 C -3.713(9) 0.1766(17) 0.365(2)
C6F C 0.075(11) 0.25000 0.130(6)
C6C C 0.575(11) 0.25000 0.370(6)
C6E C -0.075(11) 0.25000 0.130(6)
C6C_2 C -0.425(11) 0.25000 0.370(6)
C6E_2 C 0.925(11) 0.25000 0.130(6)
C6_2 C -0.575(11) 0.25000 0.370(6)
C6F_2 C 1.075(11) 0.25000 0.130(6)
C6_3 C 1.425(11) 0.25000 0.370(6)
C6F_3 C -0.925(11) 0.25000 0.130(6)
C6C_3 C 1.575(11) 0.25000 0.370(6)
C6E_3 C -1.075(11) 0.25000 0.130(6)
C6C_4 C -1.425(11) 0.25000 0.370(6)
C6E_4 C 1.925(11) 0.25000 0.130(6)
C6_4 C -1.575(11) 0.25000 0.370(6)
C6F_4 C 2.075(11) 0.25000 0.130(6)
C6_5 C 2.425(11) 0.25000 0.370(6)
C6F_5 C -1.925(11) 0.25000 0.130(6)
C6C_5 C 2.575(11) 0.25000 0.370(6)
C6E_5 C -2.075(11) 0.25000 0.130(6)
C6C_6 C -2.425(11) 0.25000 0.370(6)
C6E_6 C 2.925(11) 0.25000 0.130(6)
C6_6 C -2.575(11) 0.25000 0.370(6)
C6F_6 C 3.075(11) 0.25000 0.130(6)
C6_7 C 3.425(11) 0.25000 0.370(6)
C6F_7 C -2.925(11) 0.25000 0.130(6)
C6C_7 C 3.575(11) 0.25000 0.370(6)
C6E_7 C -3.075(11) 0.25000 0.130(6)
C6C_8 C -3.425(11) 0.25000 0.370(6)
C6E_8 C 3.925(11) 0.25000 0.130(6)
C6_8 C -3.575(11) 0.25000 0.370(6)
C6F_8 C 4.075(11) 0.25000 0.130(6)
Al1 Al 0.25000 0.25000 0.75000
O1 O 0.00000 0.25000 0.69297(13)
O2 O 0.15590(17) 0.16690(12) 0.84182(12)
C1 C 0.00000 0.05987(19) 0.95711(15)
C2 C 0.00000 0.12911(14) 0.88311(11)
C3 C -0.1958(4) 0.0361(2) 0.97409(15)
Al1C Al -0.25000 0.25000 0.75000
Al1A Al 0.25000 -0.25000 1.25000
Al1B Al -0.25000 -0.25000 1.25000
O1E O 0.50000 0.25000 0.80703(13)
O2F O 0.34410(17) 0.16690(12) 0.65818(12)
O2J O 0.15590(17) 0.33310(12) 0.84182(12)
O2L O 0.34410(17) 0.33310(12) 0.65818(12)
O2I O -0.15590(17) 0.16690(12) 0.84182(12)
O2A O 0.15590(17) -0.16690(12) 1.15818(12)
O2H O -0.15590(17) -0.16690(12) 1.15818(12)
C1A C 0.00000 -0.05987(19) 1.04289(15)
C2A C 0.00000 -0.12911(14) 1.11689(11)
C3I C 0.1958(4) 0.0361(2) 0.97409(15)
C3A C -0.1958(4) -0.0361(2) 1.02591(15)
C3H C 0.1958(4) -0.0361(2) 1.02591(15)
loop_
_geom_bond_atom_site_label_1
_geom_bond_atom_site_label_2
_geom_bond_site_symmetry_1
_geom_bond_site_symmetry_2
Al1 O1 1_555 1_555
O1 Al1C 1_555 1_555
O2 Al1 1_555 1_555
C1 C2 1_555 1_555
C2 O2 1_555 1_555
C3 C1 1_555 1_555
Fe1 C4 1_555 1_555
C4 C5 1_555 1_555
C5 Fe1 1_555 1_555
C6 Fe1 1_555 1_555
Al1C O2I 1_555 1_555
Al1A O2A 1_555 1_555
Al1B O2H 1_555 1_555
O1E Al1 1_555 1_555
O2F Al1 1_555 1_555
O2J Al1 1_555 1_555
O2L Al1 1_555 1_555
O2I C2 1_555 1_555
O2A C2A 1_555 1_555
O2H C2A 1_555 1_555
C1A C2A 1_555 1_555
C3I C1 1_555 1_555
C3A C3 1_555 1_555
C3H C1A 1_555 1_555
Fe1C C4I 1_555 1_555
Fe1C_2 C4O 1_555 1_555
Fe1_2 C4L_2 1_555 1_555
Fe1_3 C4J_2 1_555 1_555
Fe1C_3 C4C_3 1_555 1_555
Fe1C_4 C4E_3 1_555 1_555
Fe1_4 C4F_4 1_555 1_555
Fe1_5 C4_4 1_555 1_555
Fe1C_5 C4I_5 1_555 1_555
Fe1C_6 C4O_5 1_555 1_555
Fe1_6 C4L_6 1_555 1_555
Fe1_7 C4J_6 1_555 1_555
Fe1C_7 C4C_7 1_555 1_555
Fe1C_8 C4E_7 1_555 1_555
Fe1_8 C6_8 1_555 1_555
Fe1_9 C4_8 1_555 1_555
C4F Fe1 1_555 1_555
C4J Fe1 1_555 1_555
C4L Fe1 1_555 1_555
C4I C4 1_555 1_555
C4O C4F 1_555 1_555
C4C Fe1C 1_555 1_555
C4E Fe1C_2 1_555 1_555
C4C_2 Fe1C_2 1_555 1_555
C4I_2 Fe1C_2 1_555 1_555
C4E_2 Fe1C 1_555 1_555
C4O_2 Fe1C 1_555 1_555
C4J_2 C4C_2 1_555 1_555
C4_2 Fe1_3 1_555 1_555
C4L_2 C4E_2 1_555 1_555
C4F_2 Fe1_2 1_555 1_555
C4J_3 Fe1_2 1_555 1_555
C4_3 Fe1_2 1_555 1_555
C4L_3 Fe1_3 1_555 1_555
C4F_3 Fe1_3 1_555 1_555
C4C_3 C4J_3 1_555 1_555
C4I_3 Fe1C_3 1_555 1_555
C4E_3 C4L_3 1_555 1_555
C4O_3 Fe1C_4 1_555 1_555
C4I_4 Fe1C_4 1_555 1_555
C4C_4 Fe1C_4 1_555 1_555
C4O_4 Fe1C_3 1_555 1_555
C4E_4 Fe1C_3 1_555 1_555
C4_4 C4I_4 1_555 1_555
C4J_4 Fe1_5 1_555 1_555
C4F_4 C4O_4 1_555 1_555
C4L_4 Fe1_4 1_555 1_555
C4_5 Fe1_4 1_555 1_555
C4J_5 Fe1_4 1_555 1_555
C4F_5 Fe1_5 1_555 1_555
C4L_5 Fe1_5 1_555 1_555
C4I_5 C4_5 1_555 1_555
C4C_5 Fe1C_5 1_555 1_555
C4O_5 C4F_5 1_555 1_555
C4E_5 Fe1C_6 1_555 1_555
C4C_6 Fe1C_6 1_555 1_555
C4I_6 Fe1C_6 1_555 1_555
C4E_6 Fe1C_5 1_555 1_555
C4O_6 Fe1C_5 1_555 1_555
C4J_6 C4C_6 1_555 1_555
C4_6 Fe1_7 1_555 1_555
C4L_6 C4E_6 1_555 1_555
C4F_6 Fe1_6 1_555 1_555
C4J_7 Fe1_6 1_555 1_555
C4_7 Fe1_6 1_555 1_555
C4L_7 Fe1_7 1_555 1_555
C4F_7 Fe1_7 1_555 1_555
C4C_7 C4J_7 1_555 1_555
C4I_7 Fe1C_7 1_555 1_555
C4E_7 C4L_7 1_555 1_555
C4O_7 Fe1C_8 1_555 1_555
C4I_8 Fe1C_8 1_555 1_555
C4C_8 Fe1C_8 1_555 1_555
C4O_8 Fe1C_7 1_555 1_555
C4E_8 Fe1C_7 1_555 1_555
C4_8 C4I_8 1_555 1_555
C4J_8 C4C_8 1_555 1_555
C4F_8 C4O_8 1_555 1_555
C4L_8 C4E_8 1_555 1_555
C5F Fe1 1_555 1_555
C5J Fe1 1_555 1_555
C5L Fe1 1_555 1_555
C5I Fe1C 1_555 1_555
C5C Fe1C_2 1_555 1_555
C5I_2 Fe1C_2 1_555 1_555
C5O Fe1C_2 1_555 1_555
C5C_2 Fe1C 1_555 1_555
C5E Fe1C_2 1_555 1_555
C5E_2 Fe1C 1_555 1_555
C5O_2 Fe1C 1_555 1_555
C5J_2 Fe1_2 1_555 1_555
C5_2 Fe1_2 1_555 1_555
C5J_3 Fe1_3 1_555 1_555
C5_3 Fe1_3 1_555 1_555
C5L_2 Fe1_3 1_555 1_555
C5F_2 Fe1_3 1_555 1_555
C5L_3 Fe1_2 1_555 1_555
C5F_3 Fe1_2 1_555 1_555
C5C_3 Fe1C_3 1_555 1_555
C5I_3 Fe1C_3 1_555 1_555
C5I_4 Fe1C_4 1_555 1_555
C5C_4 Fe1C_4 1_555 1_555
C5E_3 Fe1C_4 1_555 1_555
C5O_3 Fe1C_4 1_555 1_555
C5O_4 Fe1C_3 1_555 1_555
C5E_4 Fe1C_3 1_555 1_555
C5_4 Fe1_4 1_555 1_555
C5J_4 Fe1_4 1_555 1_555
C5_5 Fe1_5 1_555 1_555
C5J_5 Fe1_5 1_555 1_555
C5F_4 Fe1_5 1_555 1_555
C5L_4 Fe1_5 1_555 1_555
C5F_5 Fe1_4 1_555 1_555
C5L_5 Fe1_4 1_555 1_555
C5I_5 Fe1C_5 1_555 1_555
C5C_5 Fe1C_5 1_555 1_555
C5C_6 Fe1C_6 1_555 1_555
C5I_6 Fe1C_6 1_555 1_555
C5O_5 Fe1C_6 1_555 1_555
C5E_5 Fe1C_6 1_555 1_555
C5E_6 Fe1C_5 1_555 1_555
C5O_6 Fe1C_5 1_555 1_555
C5J_6 Fe1_6 1_555 1_555
C5_6 Fe1_6 1_555 1_555
C5J_7 Fe1_7 1_555 1_555
C5_7 Fe1_7 1_555 1_555
C5L_6 Fe1_7 1_555 1_555
C5F_6 Fe1_7 1_555 1_555
C5L_7 Fe1_6 1_555 1_555
C5F_7 Fe1_6 1_555 1_555
C5C_7 Fe1C_7 1_555 1_555
C5I_7 Fe1C_7 1_555 1_555
C5I_8 Fe1C_8 1_555 1_555
C5C_8 Fe1C_8 1_555 1_555
C5E_7 Fe1C_8 1_555 1_555
C5O_7 Fe1C_8 1_555 1_555
C5O_8 Fe1C_7 1_555 1_555
C5E_8 Fe1C_7 1_555 1_555
C5_8 C6_8 1_555 1_555
C5J_8 C6_8 1_555 1_555
C6F Fe1 1_555 1_555
C6C C6 1_555 1_555
C6E Fe1C 1_555 1_555
C6C_2 Fe1C 1_555 1_555
C6E_2 Fe1C_2 1_555 1_555
C6_2 Fe1_2 1_555 1_555
C6F_2 Fe1_3 1_555 1_555
C6_3 Fe1_3 1_555 1_555
C6F_3 Fe1_2 1_555 1_555
C6C_3 Fe1C_4 1_555 1_555
C6E_3 Fe1C_3 1_555 1_555
C6C_4 Fe1C_3 1_555 1_555
C6E_4 Fe1C_4 1_555 1_555
C6_4 Fe1_4 1_555 1_555
C6F_4 Fe1_5 1_555 1_555
C6_5 Fe1_5 1_555 1_555
C6F_5 Fe1_4 1_555 1_555
C6C_5 Fe1C_6 1_555 1_555
C6E_5 Fe1C_5 1_555 1_555
C6C_6 Fe1C_5 1_555 1_555
C6E_6 Fe1C_6 1_555 1_555
C6_6 Fe1_6 1_555 1_555
C6F_6 Fe1_7 1_555 1_555
C6_7 Fe1_7 1_555 1_555
C6F_7 Fe1_6 1_555 1_555
C6C_7 Fe1C_8 1_555 1_555
C6E_7 Fe1C_7 1_555 1_555
C6C_8 Fe1C_7 1_555 1_555
C6E_8 Fe1C_8 1_555 1_555
C6_8 C6C_8 1_555 1_555
C6F_8 C6E_8 1_555 1_555
C4 C4J 1_555 1_555
C5 C6 1_555 1_555
C6 C5J 1_555 1_555
C1A C3A 1_555 1_555
C3I C3H 1_555 1_555
Fe1C_2 C6C 1_555 1_555
C4F C4L 1_555 1_555
C4F C5F 1_555 1_555
C4J C4C 1_555 1_555
C4J C5J 1_555 1_555
C4L C4E 1_555 1_555
C4L C5L 1_555 1_555
C4I C4C 1_555 1_555
C4I C5I 1_555 1_555
C4O C4E 1_555 1_555
C4O C5O 1_555 1_555
C4C C5C_2 1_555 1_555
C4E C5E 1_555 1_555
C4C_2 C4I_2 1_555 1_555
C4C_2 C5C 1_555 1_555
C4I_2 C4_2 1_555 1_555
C4I_2 C5I_2 1_555 1_555
C4E_2 C4O_2 1_555 1_555
C4E_2 C5E_2 1_555 1_555
C4O_2 C4F_2 1_555 1_555
C4O_2 C5O_2 1_555 1_555
C4J_2 C4_2 1_555 1_555
C4J_2 C5J_3 1_555 1_555
C4_2 C5_3 1_555 1_555
C4L_2 C4F_2 1_555 1_555
C4L_2 C5L_3 1_555 1_555
C4F_2 C5F_3 1_555 1_555
C4J_3 C4_3 1_555 1_555
C4J_3 C5J_2 1_555 1_555
C4_3 C4I_3 1_555 1_555
C4_3 C5_2 1_555 1_555
C4L_3 C4F_3 1_555 1_555
C4L_3 C5L_2 1_555 1_555
C4F_3 C4O_3 1_555 1_555
C4F_3 C5F_2 1_555 1_555
C4C_3 C4I_3 1_555 1_555
C4C_3 C5C_3 1_555 1_555
C4I_3 C5I_3 1_555 1_555
C4E_3 C4O_3 1_555 1_555
C4E_3 C5E_3 1_555 1_555
C4O_3 C5O_3 1_555 1_555
C4I_4 C4C_4 1_555 1_555
C4I_4 C5I_4 1_555 1_555
C4C_4 C4J_4 1_555 1_555
C4C_4 C5C_4 1_555 1_555
C4O_4 C4E_4 1_555 1_555
C4O_4 C5O_4 1_555 1_555
C4E_4 C4L_4 1_555 1_555
C4E_4 C5E_4 1_555 1_555
C4_4 C4J_4 1_555 1_555
C4_4 C5_5 1_555 1_555
C4J_4 C5J_5 1_555 1_555
C4F_4 C4L_4 1_555 1_555
C4F_4 C5F_5 1_555 1_555
C4L_4 C5L_5 1_555 1_555
C4_5 C4J_5 1_555 1_555
C4_5 C5_4 1_555 1_555
C4J_5 C4C_5 1_555 1_555
C4J_5 C5J_4 1_555 1_555
C4F_5 C4L_5 1_555 1_555
C4F_5 C5F_4 1_555 1_555
C4L_5 C4E_5 1_555 1_555
C4L_5 C5L_4 1_555 1_555
C4I_5 C4C_5 1_555 1_555
C4I_5 C5I_5 1_555 1_555
C4C_5 C5C_5 1_555 1_555
C4O_5 C4E_5 1_555 1_555
C4O_5 C5O_5 1_555 1_555
C4E_5 C5E_5 1_555 1_555
C4C_6 C4I_6 1_555 1_555
C4C_6 C5C_6 1_555 1_555
C4I_6 C4_6 1_555 1_555
C4I_6 C5I_6 1_555 1_555
C4E_6 C4O_6 1_555 1_555
C4E_6 C5E_6 1_555 1_555
C4O_6 C4F_6 1_555 1_555
C4O_6 C5O_6 1_555 1_555
C4J_6 C4_6 1_555 1_555
C4J_6 C5J_7 1_555 1_555
C4_6 C5_7 1_555 1_555
C4L_6 C4F_6 1_555 1_555
C4L_6 C5L_7 1_555 1_555
C4F_6 C5F_7 1_555 1_555
C4J_7 C4_7 1_555 1_555
C4J_7 C5J_6 1_555 1_555
C4_7 C4I_7 1_555 1_555
C4_7 C5_6 1_555 1_555
C4L_7 C4F_7 1_555 1_555
C4L_7 C5L_6 1_555 1_555
C4F_7 C4O_7 1_555 1_555
C4F_7 C5F_6 1_555 1_555
C4C_7 C4I_7 1_555 1_555
C4C_7 C5C_7 1_555 1_555
C4I_7 C5I_7 1_555 1_555
C4E_7 C4O_7 1_555 1_555
C4E_7 C5E_7 1_555 1_555
C4O_7 C5O_7 1_555 1_555
C4I_8 C4C_8 1_555 1_555
C4I_8 C5I_8 1_555 1_555
C4C_8 C5C_8 1_555 1_555
C4O_8 C4E_8 1_555 1_555
C4O_8 C5O_8 1_555 1_555
C4E_8 C5E_8 1_555 1_555
C5F C6F 1_555 1_555
C5L C6F 1_555 1_555
C5I C6C_2 1_555 1_555
C5C C6C 1_555 1_555
C5I_2 C6C 1_555 1_555
C5O C6E_2 1_555 1_555
C5C_2 C6C_2 1_555 1_555
C5E C6E_2 1_555 1_555
C5E_2 C6E 1_555 1_555
C5O_2 C6E 1_555 1_555
C5J_2 C6_2 1_555 1_555
C5_2 C6_2 1_555 1_555
C5J_3 C6_3 1_555 1_555
C5_3 C6_3 1_555 1_555
C5L_2 C6F_2 1_555 1_555
C5F_2 C6F_2 1_555 1_555
C5L_3 C6F_3 1_555 1_555
C5F_3 C6F_3 1_555 1_555
C5C_3 C6C_4 1_555 1_555
C5I_3 C6C_4 1_555 1_555
C5I_4 C6C_3 1_555 1_555
C5C_4 C6C_3 1_555 1_555
C5E_3 C6E_4 1_555 1_555
C5O_3 C6E_4 1_555 1_555
C5O_4 C6E_3 1_555 1_555
C5E_4 C6E_3 1_555 1_555
C5_4 C6_4 1_555 1_555
C5J_4 C6_4 1_555 1_555
C5_5 C6_5 1_555 1_555
C5J_5 C6_5 1_555 1_555
C5F_4 C6F_4 1_555 1_555
C5L_4 C6F_4 1_555 1_555
C5F_5 C6F_5 1_555 1_555
C5L_5 C6F_5 1_555 1_555
C5I_5 C6C_6 1_555 1_555
C5C_5 C6C_6 1_555 1_555
C5C_6 C6C_5 1_555 1_555
C5I_6 C6C_5 1_555 1_555
C5O_5 C6E_6 1_555 1_555
C5E_5 C6E_6 1_555 1_555
C5E_6 C6E_5 1_555 1_555
C5O_6 C6E_5 1_555 1_555
C5J_6 C6_6 1_555 1_555
C5_6 C6_6 1_555 1_555
C5J_7 C6_7 1_555 1_555
C5_7 C6_7 1_555 1_555
C5L_6 C6F_6 1_555 1_555
C5F_6 C6F_6 1_555 1_555
C5L_7 C6F_7 1_555 1_555
C5F_7 C6F_7 1_555 1_555
C5C_7 C6C_8 1_555 1_555
C5I_7 C6C_8 1_555 1_555
C5I_8 C6C_7 1_555 1_555
C5C_8 C6C_7 1_555 1_555
C5E_7 C6E_8 1_555 1_555
C5O_7 C6E_8 1_555 1_555
C5O_8 C6E_7 1_555 1_555
C5E_8 C6E_7 1_555 1_555
C6F C6E 1_555 1_555
C6C_2 C6_2 1_555 1_555
C6E_2 C6F_2 1_555 1_555
C6_3 C6C_3 1_555 1_555
C6F_3 C6E_3 1_555 1_555
C6C_4 C6_4 1_555 1_555
C6E_4 C6F_4 1_555 1_555
C6_5 C6C_5 1_555 1_555
C6F_5 C6E_5 1_555 1_555
C6C_6 C6_6 1_555 1_555
C6E_6 C6F_6 1_555 1_555
C6_7 C6C_7 1_555 1_555
C6F_7 C6E_7 1_555 1_555

#END
