
#######################################################################
#
#                 Cambridge Crystallographic Data Centre
#                                CCDC 
#
#######################################################################
#
# If this CIF has been generated from an entry in the Cambridge 
# Structural Database, then it will include bibliographic, chemical, 
# crystal, experimental, refinement or atomic coordinate data resulting 
# from the CCDC's data processing and validation procedures.
#
#######################################################################

data_QOPHEI
_symmetry_cell_setting           monoclinic
_symmetry_space_group_name_H-M   'C 2/m'
_symmetry_Int_Tables_number      12
_space_group_name_Hall           '-C 2y'
loop_
_symmetry_equiv_pos_site_id
_symmetry_equiv_pos_as_xyz
1 x,y,z
2 1/2+x,1/2+y,z
3 -x,y,-z
4 1/2-x,1/2+y,-z
5 -x,-y,-z
6 1/2-x,1/2-y,-z
7 x,-y,z
8 1/2+x,1/2-y,z
_cell_length_a                   17.167(3)
_cell_length_b                   10.022(2)
_cell_length_c                   6.4680(13)
_cell_angle_alpha                90
_cell_angle_beta                 107.88(3)
_cell_angle_gamma                90
_cell_volume                     1059.06
loop_
_atom_site_label
_atom_site_type_symbol
_atom_site_fract_x
_atom_site_fract_y
_atom_site_fract_z
Co1 Co 0.0000 0.0000 0.5000
Co2 Co 0.0000 -0.15226(4) 1.0000
O1 O -0.12133(11) -0.1683(2) 0.7745(3)
O2 O -0.08945(11) -0.15171(19) 0.4671(3)
C1 C -0.13799(14) -0.1801(3) 0.5720(4)
C2 C -0.22076(17) -0.2338(4) 0.4390(4)
O3 O 0.03458(14) 0.0000 0.8317(4)
O4 O -0.04091(12) -0.3012(2) 1.1785(3)
H1 H -0.2423 -0.1799 0.3118
H2 H -0.2141 -0.3302 0.3845
H3 H 0.0821 0.0000 0.8427
H4 H -0.0592 -0.2639 1.2775
H5 H -0.0649 -0.2616 1.0584
C2E C -0.27924(17) -0.2662(4) 0.5610(4)
C1E C -0.36201(14) -0.3199(3) 0.4280(4)
O1E O -0.37867(11) -0.3317(2) 0.2255(3)
O2E O -0.41055(11) -0.34829(19) 0.5329(3)
H1E H -0.2577 -0.3201 0.6882
H2E H -0.2859 -0.1698 0.6155
O1F O -0.12133(11) 0.1683(2) 0.7745(3)
O2F O -0.08945(11) 0.15171(19) 0.4671(3)
C1F C -0.13799(14) 0.1801(3) 0.5720(4)
C2F C -0.22076(17) 0.2338(4) 0.4390(4)
H1F H -0.2423 0.1799 0.3118
H2F H -0.2141 0.3302 0.3845
C2C C -0.27924(17) 0.2662(4) 0.5610(4)
C1C C -0.36201(14) 0.3199(3) 0.4280(4)
O1C O -0.37867(11) 0.3317(2) 0.2255(3)
O2C O -0.41055(11) 0.34829(19) 0.5329(3)
H1C H -0.2577 0.3201 0.6882
H2C H -0.2859 0.1698 0.6155
O3D O -0.03458(14) 0.0000 0.1683(4)
H3D H -0.0821 0.0000 0.1573
Co2G Co -0.5000 -0.34774(4) 0.0000
O4B O 0.04091(12) -0.3012(2) 0.8215(3)
H4B H 0.0592 -0.2639 0.7225
H5B H 0.0649 -0.2616 0.9416
O2D O 0.08945(11) 0.15171(19) 0.5329(3)
O2B O 0.08945(11) -0.15171(19) 0.5329(3)
O1B O 0.12133(11) -0.1683(2) 1.2255(3)
O3D_2 O -0.03458(14) 0.0000 1.1683(4)
Co2F Co 0.0000 0.15226(4) 1.0000
Co1A Co -0.5000 -0.5000 0.5000
Co2A Co -0.5000 0.34774(4) 0.0000
Co1A_2 Co -0.5000 0.5000 0.5000
Co2_2 Co 0.0000 -0.15226(4) 0.0000
Co2F_2 Co 0.0000 0.15226(4) 0.0000
O1G O -0.62133(11) -0.3317(2) -0.2255(3)
O3A O -0.46542(14) -0.5000 -0.1683(4)
O3E O -0.53458(14) -0.5000 0.1683(4)
O4G O -0.54091(12) -0.1988(2) 0.1785(3)
O4E O -0.45909(12) -0.1988(2) -0.1785(3)
H3D_2 H -0.0821 0.0000 1.1573
H3A H -0.4179 -0.5000 -0.1573
H3E H -0.5821 -0.5000 0.1573
H4G H -0.5592 -0.2361 0.2775
H5G H -0.5649 -0.2384 0.0584
H4E H -0.4408 -0.2361 -0.2775
H5E H -0.4351 -0.2384 -0.0584
O5 O 0.2112(2) 0.0000 1.0431(6)
H6 H 0.1924 0.0658 1.1168
H6F H 0.1924 -0.0658 1.1168
O6 O -0.1446(2) -0.5000 -0.0453(5)
H7 H -0.1280 -0.4317 0.0405
H7F H -0.1280 -0.5683 0.0405
O7 O -0.0734(3) -0.5000 -0.3784(7)
H8 H -0.0384 -0.4380 -0.3597
H8F H -0.0384 -0.5620 -0.3597
loop_
_geom_bond_atom_site_label_1
_geom_bond_atom_site_label_2
_geom_bond_site_symmetry_1
_geom_bond_site_symmetry_2
Co1 O2 1_555 1_555
Co2 O1 1_555 1_555
O1 C1 1_555 1_555
O2 C1 1_555 1_555
C1 C2 1_555 1_555
C2 H1 1_555 1_555
O3 Co1 1_555 1_555
O4 Co2 1_555 1_555
H2 C2 1_555 1_555
H3 O3 1_555 1_555
H4 O4 1_555 1_555
H5 O4 1_555 1_555
O5 H6 1_555 1_555
O6 H7 1_555 1_555
O7 H8 1_555 1_555
C2E C2 1_555 1_555
C1E C2E 1_555 1_555
O1E C1E 1_555 1_555
O2E C1E 1_555 1_555
H1E C2E 1_555 1_555
H2E C2E 1_555 1_555
O1F C1F 1_555 1_555
O2F Co1 1_555 1_555
C1F O2F 1_555 1_555
C2F C1F 1_555 1_555
H1F C2F 1_555 1_555
H2F C2F 1_555 1_555
C2C C2F 1_555 1_555
C1C C2C 1_555 1_555
O1C C1C 1_555 1_555
O2C C1C 1_555 1_555
H1C C2C 1_555 1_555
H2C C2C 1_555 1_555
O3D Co1 1_555 1_555
H3D O3D 1_555 1_555
Co2G O1E 1_555 1_555
O4B Co2 1_555 1_555
H4B O4B 1_555 1_555
H5B O4B 1_555 1_555
O2D Co1 1_555 1_555
O2B Co1 1_555 1_555
O1B Co2 1_555 1_555
O3D_2 Co2 1_555 1_555
Co2F O3 1_555 1_555
Co1A O2E 1_555 1_555
Co2A O1C 1_555 1_555
Co1A_2 O2C 1_555 1_555
Co2_2 O3D 1_555 1_555
Co2F_2 O3D 1_555 1_555
O1G Co2G 1_555 1_555
O3A Co2G 1_555 1_555
O3E Co2G 1_555 1_555
O4G Co2G 1_555 1_555
O4E Co2G 1_555 1_555
H3D_2 O3D_2 1_555 1_555
H3A O3A 1_555 1_555
H3E O3E 1_555 1_555
H4G O4G 1_555 1_555
H5G O4G 1_555 1_555
H4E O4E 1_555 1_555
H5E O4E 1_555 1_555
H6F O5 1_555 1_555
H7F O6 1_555 1_555
H8F O7 1_555 1_555
Co2 O3 1_555 1_555
O1F Co2F 1_555 1_555
O3D_2 Co2F 1_555 1_555
Co1A O3E 1_555 1_555

#END
