
#######################################################################
#
#                 Cambridge Crystallographic Data Centre
#                                CCDC 
#
#######################################################################
#
# If this CIF has been generated from an entry in the Cambridge 
# Structural Database, then it will include bibliographic, chemical, 
# crystal, experimental, refinement or atomic coordinate data resulting 
# from the CCDC's data processing and validation procedures.
#
#######################################################################

data_QOPPOC
_symmetry_cell_setting           tetragonal
_symmetry_space_group_name_H-M   'I -4 2 d'
_symmetry_Int_Tables_number      122
_space_group_name_Hall           'I -4 2bw'
loop_
_symmetry_equiv_pos_site_id
_symmetry_equiv_pos_as_xyz
1 x,y,z
2 y,-x,-z
3 -x,-y,z
4 -y,x,-z
5 x,1/2-y,1/4-z
6 -x,1/2+y,1/4-z
7 -y,1/2-x,1/4+z
8 y,1/2+x,1/4+z
9 1/2+x,1/2+y,1/2+z
10 1/2+y,1/2-x,1/2-z
11 1/2-x,1/2-y,1/2+z
12 1/2-y,1/2+x,1/2-z
13 1/2+x,-y,3/4-z
14 1/2-x,y,3/4-z
15 1/2-y,-x,3/4+z
16 1/2+y,x,3/4+z
_cell_length_a                   11.1607(4)
_cell_length_b                   11.1607(4)
_cell_length_c                   21.978(2)
_cell_angle_alpha                90
_cell_angle_beta                 90
_cell_angle_gamma                90
_cell_volume                     2737.61
loop_
_atom_site_label
_atom_site_type_symbol
_atom_site_fract_x
_atom_site_fract_y
_atom_site_fract_z
Cu1 Cu 0.5000 0.5000 0.38882(2)
O1 O 0.5929(3) 0.1454(3) 0.26015(18)
N1 N 0.7421(4) 0.1255(4) 0.1907(2)
H1 H 0.7179 0.0532 0.1806
H2 H 0.8051 0.1571 0.1726
C1 C 0.7235(4) 0.3048(4) 0.2490(2)
Cu2 Cu 0.5000 0.0000 0.2500
O2 O 0.5000 0.0000 0.1399(3)
N2 N 0.8879(3) 0.4073(3) 0.18797(17)
C2 C 0.8153(4) 0.3623(4) 0.21696(19)
N3 N 0.6106(4) 0.4149(4) 0.3330(2)
C3 C 0.6628(4) 0.3671(4) 0.2949(2)
C4 C 0.6837(4) 0.1872(4) 0.2331(2)
C5 C 0.452(2) 0.066(2) 0.0933(11)
H3 H 0.4988 0.0528 0.0561
H4 H 0.4542 0.1513 0.1040
H5 H 0.3689 0.0414 0.0864
C5B C 0.548(2) -0.066(2) 0.0933(11)
H3B H 0.5012 -0.0528 0.0561
H4B H 0.5458 -0.1513 0.1040
H5B H 0.6311 -0.0414 0.0864
O1B O 0.4071(3) -0.1454(3) 0.26015(18)
N1B N 0.2579(4) -0.1255(4) 0.1907(2)
H1B H 0.2821 -0.0532 0.1806
H2B H 0.1949 -0.1571 0.1726
C1B C 0.2765(4) -0.3048(4) 0.2490(2)
N2B N 0.1121(3) -0.4073(3) 0.18797(17)
C2B C 0.1847(4) -0.3623(4) 0.21696(19)
N3B N 0.3894(4) -0.4149(4) 0.3330(2)
C3B C 0.3372(4) -0.3671(4) 0.2949(2)
C4B C 0.3163(4) -0.1872(4) 0.2331(2)
Cu1I Cu 1.0000 0.0000 0.11118(2)
O1I O 0.6454(3) -0.0929(3) 0.23985(18)
N1I N 0.6255(4) -0.2421(4) 0.3093(2)
H1I H 0.5532 -0.2179 0.3194
H2I H 0.6571 -0.3051 0.3274
C1I C 0.8048(4) -0.2235(4) 0.2510(2)
O2I O 0.5000 0.0000 0.3601(3)
N2I N 0.9073(3) -0.3879(3) 0.31203(17)
C2I C 0.8623(4) -0.3153(4) 0.28304(19)
N3I N 0.9149(4) -0.1106(4) 0.1670(2)
C3I C 0.8671(4) -0.1628(4) 0.2051(2)
C4I C 0.6872(4) -0.1837(4) 0.2669(2)
C5I C 0.566(2) 0.048(2) 0.4067(11)
H3I H 0.5528 0.0012 0.4439
H4I H 0.6513 0.0458 0.3960
H5I H 0.5414 0.1311 0.4136
C5K C 0.434(2) -0.048(2) 0.4067(11)
H3K H 0.4472 -0.0012 0.4439
H4K H 0.3487 -0.0458 0.3960
H5K H 0.4586 -0.1311 0.4136
O1K O 0.3546(3) 0.0929(3) 0.23985(18)
N1K N 0.3745(4) 0.2421(4) 0.3093(2)
H1K H 0.4468 0.2179 0.3194
H2K H 0.3429 0.3051 0.3274
C1K C 0.1952(4) 0.2235(4) 0.2510(2)
N2K N 0.0927(3) 0.3879(3) 0.31203(17)
C2K C 0.1377(4) 0.3153(4) 0.28304(19)
N3K N 0.0851(4) 0.1106(4) 0.1670(2)
C3K C 0.1329(4) 0.1628(4) 0.2051(2)
C4K C 0.3128(4) 0.1837(4) 0.2669(2)
Cu1_2 Cu 0.5000 -0.5000 0.38882(2)
Cu1I_2 Cu 0.0000 0.0000 0.11118(2)
Cu1L Cu 0.0000 0.5000 0.36118(2)
Cu1L_2 Cu 1.0000 -0.5000 0.36118(2)
Cu1N Cu 0.0000 -0.5000 0.13882(2)
Cu1N_2 Cu 1.0000 0.5000 0.13882(2)
N2D N 0.8879(3) 0.0927(3) 0.06203(17)
N2E N 1.1121(3) -0.0927(3) 0.06203(17)
N2F N 0.5927(3) 0.6121(3) 0.43797(17)
N2G N 0.4073(3) 0.3879(3) 0.43797(17)
N3B_2 N 0.3894(4) 0.5851(4) 0.3330(2)
N3K_2 N 1.0851(4) 0.1106(4) 0.1670(2)
loop_
_geom_bond_atom_site_label_1
_geom_bond_atom_site_label_2
_geom_bond_site_symmetry_1
_geom_bond_site_symmetry_2
Cu1 N3 1_555 1_555
O1 Cu2 1_555 1_555
N1 H1 1_555 1_555
H2 N1 1_555 1_555
C1 C2 1_555 1_555
Cu2 O2 1_555 1_555
O2 C5 1_555 1_555
N2 C2 1_555 1_555
N3 C3 1_555 1_555
C3 C1 1_555 1_555
C4 O1 1_555 1_555
C5 H3 1_555 1_555
H4 C5 1_555 1_555
H5 C5 1_555 1_555
C5B O2 1_555 1_555
H3B C5B 1_555 1_555
H4B C5B 1_555 1_555
H5B C5B 1_555 1_555
O1B Cu2 1_555 1_555
N1B H1B 1_555 1_555
H2B N1B 1_555 1_555
C1B C2B 1_555 1_555
N2B C2B 1_555 1_555
N3B C3B 1_555 1_555
C3B C1B 1_555 1_555
C4B O1B 1_555 1_555
Cu1I N3I 1_555 1_555
O1I Cu2 1_555 1_555
N1I H1I 1_555 1_555
H2I N1I 1_555 1_555
C1I C2I 1_555 1_555
O2I Cu2 1_555 1_555
N2I C2I 1_555 1_555
N3I C3I 1_555 1_555
C3I C1I 1_555 1_555
C4I O1I 1_555 1_555
C5I O2I 1_555 1_555
H3I C5I 1_555 1_555
H4I C5I 1_555 1_555
H5I C5I 1_555 1_555
C5K O2I 1_555 1_555
H3K C5K 1_555 1_555
H4K C5K 1_555 1_555
H5K C5K 1_555 1_555
O1K Cu2 1_555 1_555
N1K H1K 1_555 1_555
H2K N1K 1_555 1_555
C1K C2K 1_555 1_555
N2K C2K 1_555 1_555
N3K C3K 1_555 1_555
C3K C1K 1_555 1_555
C4K O1K 1_555 1_555
Cu1_2 N3B 1_555 1_555
Cu1I_2 N3K 1_555 1_555
Cu1L N2K 1_555 1_555
Cu1L_2 N2I 1_555 1_555
Cu1N N2B 1_555 1_555
Cu1N_2 N2 1_555 1_555
N2D Cu1I 1_555 1_555
N2E Cu1I 1_555 1_555
N2F Cu1 1_555 1_555
N2G Cu1 1_555 1_555
N3B_2 Cu1 1_555 1_555
N3K_2 Cu1I 1_555 1_555
N1 C4 1_555 1_555
C1 C4 1_555 1_555
N1B C4B 1_555 1_555
C1B C4B 1_555 1_555
N1I C4I 1_555 1_555
C1I C4I 1_555 1_555
N1K C4K 1_555 1_555
C1K C4K 1_555 1_555

#END
