
#######################################################################
#
#                 Cambridge Crystallographic Data Centre
#                                CCDC 
#
#######################################################################
#
# If this CIF has been generated from an entry in the Cambridge 
# Structural Database, then it will include bibliographic, chemical, 
# crystal, experimental, refinement or atomic coordinate data resulting 
# from the CCDC's data processing and validation procedures.
#
#######################################################################

data_QOQWOK01
_symmetry_cell_setting           monoclinic
_symmetry_space_group_name_H-M   'P 21/c'
_symmetry_Int_Tables_number      14
_space_group_name_Hall           '-P 2ybc'
loop_
_symmetry_equiv_pos_site_id
_symmetry_equiv_pos_as_xyz
1 x,y,z
2 -x,1/2+y,1/2-z
3 -x,-y,-z
4 x,1/2-y,1/2+z
_cell_length_a                   9.8457(5)
_cell_length_b                   19.4937(10)
_cell_length_c                   16.7455(9)
_cell_angle_alpha                90
_cell_angle_beta                 94.348(4)
_cell_angle_gamma                90
_cell_volume                     3204.7
loop_
_atom_site_label
_atom_site_type_symbol
_atom_site_fract_x
_atom_site_fract_y
_atom_site_fract_z
Mn1 Mn 0.5000 0.0000 0.5000
Mn2 Mn 1.0000 0.5000 1.0000
N1 N 0.4450(4) 0.08905(18) 0.4142(2)
N2 N 0.9454(4) 0.41340(19) 0.9122(2)
O1 O 0.1441(3) 0.42745(16) 0.0582(2)
O2 O 0.3523(3) 0.47094(16) 0.08453(19)
O3 O 0.6354(3) 0.07037(16) 0.56497(19)
O4 O 0.8498(3) 0.03341(16) 0.58026(19)
C1 C 0.2621(5) 0.4267(2) 0.0913(2)
C2 C 0.2968(4) 0.3667(2) 0.1462(3)
C3 C 0.2556(5) 0.3010(2) 0.1264(3)
H1 H 0.2056 0.2932 0.0779
C4 C 0.2869(5) 0.2464(2) 0.1770(3)
H2 H 0.2609 0.2023 0.1611
C5 C 0.3563(5) 0.2562(2) 0.2511(3)
C6 C 0.3966(6) 0.3231(3) 0.2716(3)
H3 H 0.4419 0.3315 0.3214
C7 C 0.3702(6) 0.3766(2) 0.2193(3)
H4 H 0.4022 0.4203 0.2331
C8 C 0.4267(6) 0.0794(2) 0.3354(3)
H5 H 0.4333 0.0349 0.3159
C9 C 0.3984(6) 0.1316(2) 0.2813(3)
H6 H 0.3874 0.1219 0.2269
C10 C 0.3862(5) 0.1984(2) 0.3076(3)
C11 C 0.4038(5) 0.2084(2) 0.3898(3)
H7 H 0.3954 0.2521 0.4111
C12 C 0.4338(5) 0.1532(2) 0.4398(3)
H8 H 0.4470 0.1614 0.4945
C13 C 0.7562(5) 0.0746(2) 0.5921(2)
C14 C 0.7910(5) 0.1356(2) 0.6459(3)
C15 C 0.6923(5) 0.1817(3) 0.6637(4)
H9 H 0.6035 0.1758 0.6417
C16 C 0.7232(6) 0.2367(3) 0.7142(4)
H10 H 0.6549 0.2675 0.7253
C17 C 0.8535(5) 0.2466(3) 0.7483(3)
C18 C 0.9529(5) 0.2017(3) 0.7276(4)
H11 H 1.0422 0.2085 0.7482
C19 C 0.9231(5) 0.1466(3) 0.6767(4)
H12 H 0.9922 0.1172 0.6634
C20 C 0.8187(5) 0.3922(3) 0.8945(3)
H13 H 0.7485 0.4145 0.9181
C21 C 0.7861(5) 0.3388(3) 0.8429(3)
H14 H 0.6957 0.3253 0.8337
C22 C 0.8859(5) 0.3049(3) 0.8046(3)
C23 C 1.0174(6) 0.3274(3) 0.8236(4)
H15 H 1.0894 0.3065 0.8002
C24 C 1.0428(6) 0.3806(3) 0.8771(4)
H16 H 1.1327 0.3940 0.8891
N1B N 0.5550(4) -0.08905(18) 0.5858(2)
N2B N 0.0546(4) -0.41340(19) 0.0878(2)
O1B O 0.8559(3) -0.42745(16) 0.9418(2)
O2B O 0.6477(3) -0.47094(16) 0.91547(19)
O3B O 0.3646(3) -0.07037(16) 0.43503(19)
O4B O 0.1502(3) -0.03341(16) 0.41974(19)
C1B C 0.7379(5) -0.4267(2) 0.9087(2)
C2B C 0.7032(4) -0.3667(2) 0.8538(3)
C3B C 0.7444(5) -0.3010(2) 0.8736(3)
H1B H 0.7944 -0.2932 0.9221
C4B C 0.7131(5) -0.2464(2) 0.8230(3)
H2B H 0.7391 -0.2023 0.8389
C5B C 0.6437(5) -0.2562(2) 0.7489(3)
C6B C 0.6034(6) -0.3231(3) 0.7284(3)
H3B H 0.5581 -0.3315 0.6786
C7B C 0.6298(6) -0.3766(2) 0.7807(3)
H4B H 0.5978 -0.4203 0.7669
C8B C 0.5733(6) -0.0794(2) 0.6646(3)
H5B H 0.5667 -0.0349 0.6841
C9B C 0.6016(6) -0.1316(2) 0.7187(3)
H6B H 0.6126 -0.1219 0.7731
C10B C 0.6138(5) -0.1984(2) 0.6924(3)
C11B C 0.5962(5) -0.2084(2) 0.6102(3)
H7B H 0.6046 -0.2521 0.5889
C12B C 0.5662(5) -0.1532(2) 0.5602(3)
H8B H 0.5530 -0.1614 0.5055
C13B C 0.2438(5) -0.0746(2) 0.4079(2)
C14B C 0.2090(5) -0.1356(2) 0.3541(3)
C15B C 0.3077(5) -0.1817(3) 0.3363(4)
H9B H 0.3965 -0.1758 0.3583
C16B C 0.2768(6) -0.2367(3) 0.2858(4)
H10B H 0.3451 -0.2675 0.2747
C17B C 0.1465(5) -0.2466(3) 0.2517(3)
C18B C 0.0471(5) -0.2017(3) 0.2724(4)
H11B H -0.0422 -0.2085 0.2518
C19B C 0.0769(5) -0.1466(3) 0.3233(4)
H12B H 0.0078 -0.1172 0.3366
C20B C 0.1813(5) -0.3922(3) 0.1055(3)
H13B H 0.2515 -0.4145 0.0819
C21B C 0.2139(5) -0.3388(3) 0.1571(3)
H14B H 0.3043 -0.3253 0.1663
C22B C 0.1141(5) -0.3049(3) 0.1954(3)
C23B C -0.0174(6) -0.3274(3) 0.1764(4)
H15B H -0.0894 -0.3065 0.1998
C24B C -0.0428(6) -0.3806(3) 0.1229(4)
H16B H -0.1327 -0.3940 0.1109
Mn1A Mn 0.5000 -0.5000 1.0000
Mn1A_2 Mn 0.5000 0.5000 0.0000
Mn2_2 Mn 0.0000 -0.5000 0.0000
Mn2_3 Mn 0.0000 0.5000 0.0000
Mn2_4 Mn 1.0000 -0.5000 1.0000
Mn2A Mn 0.0000 0.0000 0.5000
Mn2A_2 Mn 1.0000 0.0000 0.5000
N2B_2 N 1.0546(4) 0.58660(19) 1.0878(2)
O1_2 O 1.1441(3) 0.42745(16) 1.0582(2)
O1B_2 O 0.8559(3) 0.57255(16) 0.9418(2)
O2A O 0.6477(3) -0.02906(16) 0.41547(19)
O2C O 0.3523(3) 0.02906(16) 0.58453(19)
O4A O 1.1502(3) 0.53341(16) 0.91974(19)
O4C O 0.8498(3) 0.46659(16) 1.08026(19)
N3 N 0.898(2) 0.3351(13) 0.4485(14)
O5 O 0.674(2) 0.3207(16) 0.4792(19)
C25 C 0.760(3) 0.3472(13) 0.4414(15)
H17 H 0.7290 0.3793 0.4032
C26 C 0.936(2) 0.2845(13) 0.5092(16)
H18 H 0.8554 0.2688 0.5328
H19 H 0.9971 0.3047 0.5499
H20 H 0.9793 0.2465 0.4854
C27 C 1.008(4) 0.3763(16) 0.415(2)
H21 H 0.9685 0.4059 0.3736
H22 H 1.0723 0.3461 0.3930
H23 H 1.0529 0.4035 0.4567
N4 N 0.437(4) 0.429(2) 0.556(2)
O6 O 0.286(4) 0.358(2) 0.483(2)
C28 C 0.315(4) 0.412(2) 0.516(3)
H24 H 0.2465 0.4450 0.5148
C29 C 0.542(4) 0.378(3) 0.560(4)
H25 H 0.5134 0.3396 0.5260
H26 H 0.5592 0.3621 0.6138
H27 H 0.6241 0.3968 0.5413
C30 C 0.467(6) 0.494(3) 0.596(4)
H28 H 0.3874 0.5220 0.5928
H29 H 0.5393 0.5164 0.5713
H30 H 0.4951 0.4849 0.6515
N5 N 0.961(2) 0.4751(11) 0.6698(13)
O7 O 1.168(2) 0.4406(15) 0.6317(18)
C31 C 1.100(3) 0.4692(12) 0.6808(14)
H31 H 1.1450 0.4875 0.7269
C32 C 0.894(3) 0.4637(14) 0.5910(16)
H32 H 0.9570 0.4426 0.5574
H33 H 0.8642 0.5068 0.5682
H34 H 0.8171 0.4341 0.5952
C33 C 0.888(3) 0.5205(12) 0.7165(13)
H35 H 0.9481 0.5398 0.7582
H36 H 0.8162 0.4958 0.7399
H37 H 0.8488 0.5565 0.6831
N6? N 0.574(5) 0.503(3) 0.619(4)
O8? O 0.788(6) 0.459(3) 0.658(4)
C34? C 0.428(6) 0.509(5) 0.625(6)
H38? H 0.3889 0.4647 0.6295
H39? H 0.3883 0.5318 0.5778
H40? H 0.4116 0.5362 0.6713
C35? C 0.666(7) 0.460(3) 0.661(3)
H41? H 0.6295 0.4284 0.6954
C36? C 0.629(7) 0.552(4) 0.565(5)
H42? H 0.7255 0.5458 0.5644
H43? H 0.6115 0.5981 0.5836
H44? H 0.5863 0.5463 0.5123
loop_
_geom_bond_atom_site_label_1
_geom_bond_atom_site_label_2
_geom_bond_site_symmetry_1
_geom_bond_site_symmetry_2
Mn1 N1 1_555 1_555
Mn2 N2 1_555 1_555
N1 C8 1_555 1_555
N2 C20 1_555 1_555
O1 C1 1_555 1_555
O2 C1 1_555 1_555
O3 Mn1 1_555 1_555
O4 C13 1_555 1_555
C1 C2 1_555 1_555
C2 C3 1_555 1_555
C3 H1 1_555 1_555
C4 C3 1_555 1_555
H2 C4 1_555 1_555
C5 C4 1_555 1_555
C6 C5 1_555 1_555
H3 C6 1_555 1_555
C7 C2 1_555 1_555
H4 C7 1_555 1_555
C8 H5 1_555 1_555
C9 C8 1_555 1_555
H6 C9 1_555 1_555
C10 C5 1_555 1_555
C11 C10 1_555 1_555
H7 C11 1_555 1_555
C12 N1 1_555 1_555
H8 C12 1_555 1_555
C13 O3 1_555 1_555
C14 C13 1_555 1_555
C15 C14 1_555 1_555
H9 C15 1_555 1_555
C16 C15 1_555 1_555
H10 C16 1_555 1_555
C17 C16 1_555 1_555
C18 C17 1_555 1_555
H11 C18 1_555 1_555
C19 C14 1_555 1_555
H12 C19 1_555 1_555
C20 H13 1_555 1_555
C21 C20 1_555 1_555
H14 C21 1_555 1_555
C22 C17 1_555 1_555
C23 C22 1_555 1_555
H15 C23 1_555 1_555
C24 N2 1_555 1_555
H16 C24 1_555 1_555
N3 C25 1_555 1_555
O5 C25 1_555 1_555
C25 H17 1_555 1_555
C26 N3 1_555 1_555
H18 C26 1_555 1_555
H19 C26 1_555 1_555
H20 C26 1_555 1_555
C27 N3 1_555 1_555
H21 C27 1_555 1_555
H22 C27 1_555 1_555
H23 C27 1_555 1_555
N4 C28 1_555 1_555
O6 C28 1_555 1_555
C28 H24 1_555 1_555
C29 N4 1_555 1_555
H25 C29 1_555 1_555
H26 C29 1_555 1_555
H27 C29 1_555 1_555
C30 N4 1_555 1_555
H28 C30 1_555 1_555
H29 C30 1_555 1_555
H30 C30 1_555 1_555
N5 C31 1_555 1_555
O7 C31 1_555 1_555
C31 H31 1_555 1_555
C32 N5 1_555 1_555
H32 C32 1_555 1_555
H33 C32 1_555 1_555
H34 C32 1_555 1_555
C33 N5 1_555 1_555
H35 C33 1_555 1_555
H36 C33 1_555 1_555
H37 C33 1_555 1_555
N1B Mn1 1_555 1_555
N2B C20B 1_555 1_555
O1B C1B 1_555 1_555
O2B C1B 1_555 1_555
O3B Mn1 1_555 1_555
O4B C13B 1_555 1_555
C1B C2B 1_555 1_555
C2B C3B 1_555 1_555
C3B H1B 1_555 1_555
C4B C3B 1_555 1_555
H2B C4B 1_555 1_555
C5B C4B 1_555 1_555
C6B C5B 1_555 1_555
H3B C6B 1_555 1_555
C7B C2B 1_555 1_555
H4B C7B 1_555 1_555
C8B N1B 1_555 1_555
H5B C8B 1_555 1_555
C9B C8B 1_555 1_555
H6B C9B 1_555 1_555
C10B C5B 1_555 1_555
C11B C10B 1_555 1_555
H7B C11B 1_555 1_555
C12B N1B 1_555 1_555
H8B C12B 1_555 1_555
C13B O3B 1_555 1_555
C14B C13B 1_555 1_555
C15B C14B 1_555 1_555
H9B C15B 1_555 1_555
C16B C15B 1_555 1_555
H10B C16B 1_555 1_555
C17B C16B 1_555 1_555
C18B C17B 1_555 1_555
H11B C18B 1_555 1_555
C19B C14B 1_555 1_555
H12B C19B 1_555 1_555
C20B H13B 1_555 1_555
C21B C20B 1_555 1_555
H14B C21B 1_555 1_555
C22B C17B 1_555 1_555
C23B C22B 1_555 1_555
H15B C23B 1_555 1_555
C24B N2B 1_555 1_555
H16B C24B 1_555 1_555
Mn1A O2B 1_555 1_555
Mn1A_2 O2 1_555 1_555
Mn2_2 N2B 1_555 1_555
Mn2_3 O1 1_555 1_555
Mn2_4 O1B 1_555 1_555
Mn2A O4B 1_555 1_555
Mn2A_2 O4 1_555 1_555
N2B_2 Mn2 1_555 1_555
O1_2 Mn2 1_555 1_555
O1B_2 Mn2 1_555 1_555
O2A Mn1 1_555 1_555
O2C Mn1 1_555 1_555
O4A Mn2 1_555 1_555
O4C Mn2 1_555 1_555
C6 C7 1_555 1_555
C9 C10 1_555 1_555
C11 C12 1_555 1_555
C18 C19 1_555 1_555
C21 C22 1_555 1_555
C23 C24 1_555 1_555
C6B C7B 1_555 1_555
C9B C10B 1_555 1_555
C11B C12B 1_555 1_555
C18B C19B 1_555 1_555
C21B C22B 1_555 1_555
C23B C24B 1_555 1_555

#END
