
#######################################################################
#
#                 Cambridge Crystallographic Data Centre
#                                CCDC 
#
#######################################################################
#
# If this CIF has been generated from an entry in the Cambridge 
# Structural Database, then it will include bibliographic, chemical, 
# crystal, experimental, refinement or atomic coordinate data resulting 
# from the CCDC's data processing and validation procedures.
#
#######################################################################

data_QOSXAY
_symmetry_cell_setting           triclinic
_symmetry_space_group_name_H-M   'P -1'
_symmetry_Int_Tables_number      2
_space_group_name_Hall           '-P 1'
loop_
_symmetry_equiv_pos_site_id
_symmetry_equiv_pos_as_xyz
1 x,y,z
2 -x,-y,-z
_cell_length_a                   6.03475(5)
_cell_length_b                   14.91565(22)
_cell_length_c                   16.15721(21)
_cell_angle_alpha                112.5721(7)
_cell_angle_beta                 95.7025(11)
_cell_angle_gamma                96.4950(11)
_cell_volume                     1318.06
loop_
_atom_site_label
_atom_site_type_symbol
_atom_site_fract_x
_atom_site_fract_y
_atom_site_fract_z
Ni1 Ni 0.8182(7) -0.6730(4) -0.22118(32)
Ni2 Ni 0.0450(7) -0.75109(33) -0.39003(31)
Ni3 Ni 0.4713(7) -0.5537(4) -0.30748(33)
P1 P 0.3439(16) -0.6482(7) -0.1803(7)
P2 P 0.9585(17) -0.5441(8) -0.3450(7)
P3 P 0.5076(17) -0.7994(7) -0.4228(7)
O1 O 0.3841(27) -0.7089(9) -0.3981(12)
O2 O 0.5629(26) -0.8296(12) -0.5194(8)
O3 O 1.1991(21) -0.4861(12) -0.2998(11)
O4 O 0.9675(26) -0.6362(11) -0.4316(9)
O5 O 0.5279(24) -0.7115(11) -0.1819(13)
O6 O 0.4453(26) -0.5446(9) -0.1732(12)
O7 O 0.1379(22) -0.7065(12) -0.2523(10)
O8 O 0.7293(21) -0.7819(14) -0.3597(11)
O9 O 0.8173(27) -0.5576(14) -0.2758(11)
N1 N 0.568(4) -0.5098(23) -0.4254(19)
N2 N 0.073(4) -0.9162(19) -0.4461(19)
N3 N -0.003(4) -0.5746(18) -0.0692(16)
C1 C 0.020(5) -0.4739(27) -0.0801(21)
C2 C 0.425(4) -0.4284(25) -0.4093(23)
C3 C -0.102(5) -0.9621(29) -0.4113(21)
C4 C 0.049(5) -0.9330(26) -0.5477(25)
C5 C 0.313(4) -0.8976(14) -0.4087(18)
C6 C 0.204(4) -0.6307(20) -0.0781(12)
C7 C -0.167(4) -0.5949(23) -0.0071(24)
C8 C 0.534(5) -0.5888(23) -0.5071(28)
C9 C 0.819(4) -0.4585(17) -0.3841(18)
Ni1A Ni -0.8182(7) -0.3270(4) 0.22118(32)
Ni1_2 Ni -0.1818(7) -0.6730(4) -0.22118(32)
Ni1A_2 Ni 0.1818(7) -0.3270(4) 0.22118(32)
Ni1A_3 Ni 0.1818(7) -0.3270(4) -0.77882(32)
Ni1A_4 Ni -0.8182(7) -1.3270(4) -0.77882(32)
Ni2A Ni -0.0450(7) -1.24891(33) -0.60997(31)
Ni2_2 Ni 1.0450(7) -0.75109(33) -0.39003(31)
Ni2A_2 Ni -0.0450(7) -0.24891(33) 0.39003(31)
Ni2A_3 Ni -0.0450(7) -0.24891(33) -0.60997(31)
Ni2A_4 Ni -1.0450(7) -1.24891(33) -0.60997(31)
Ni3A Ni -0.4713(7) -1.4463(4) -0.69252(33)
Ni3_2 Ni 1.4713(7) -0.5537(4) -0.30748(33)
Ni3A_2 Ni -0.4713(7) -0.4463(4) 0.30748(33)
Ni3A_3 Ni -0.4713(7) -0.4463(4) -0.69252(33)
Ni3A_4 Ni 0.5287(7) -0.4463(4) -0.69252(33)
P1A P -0.3439(16) -0.3518(7) 0.1803(7)
P2A P 0.0415(17) -0.4559(8) -0.6550(7)
P3A P -0.5076(17) -1.2006(7) -0.5772(7)
O1A O -0.3841(27) -1.2911(9) -0.6019(12)
O2A O -0.5629(26) -1.1704(12) -0.4806(8)
O3A O -0.1991(21) -0.5139(12) -0.7002(11)
O3_2 O 0.1991(21) -0.4861(12) -0.2998(11)
O3A_2 O -0.1991(21) -1.5139(12) -0.7002(11)
O4A O 0.0325(26) -0.3638(11) -0.5684(9)
O4_2 O -0.0325(26) -0.6362(11) -0.4316(9)
O4A_2 O 0.0325(26) -1.3638(11) -0.5684(9)
O5A O -0.5279(24) -0.2885(11) 0.1819(13)
O6A O -0.4453(26) -0.4554(9) 0.1732(12)
O6A_2 O -0.4453(26) -1.4554(9) -0.8268(12)
O7A O -0.1379(22) -0.2935(12) 0.2523(10)
O7_2 O 1.1379(22) -0.7065(12) -0.2523(10)
O7A_2 O -1.1379(22) -0.2935(12) 0.2523(10)
O7A_3 O -0.1379(22) -1.2935(12) -0.7477(10)
O8A O -0.7293(21) -1.2181(14) -0.6403(11)
O8_2 O -0.2707(21) -0.7819(14) -0.3597(11)
O8A_2 O -0.7293(21) -0.2181(14) 0.3597(11)
O8A_3 O 0.2707(21) -1.2181(14) -0.6403(11)
O9A O 0.1827(27) -0.4424(14) -0.7242(11)
O9A_2 O -0.8173(27) -0.4424(14) 0.2758(11)
O9A_3 O -0.8173(27) -1.4424(14) -0.7242(11)
N1A N 0.432(4) -0.4902(23) -0.5746(19)
N2A N -0.073(4) -1.0838(19) -0.5539(19)
N3A N 0.003(4) -0.4254(18) 0.0692(16)
C1A C -0.020(5) -0.5261(27) 0.0801(21)
C2A C 0.575(4) -0.5716(25) -0.5907(23)
C3A C 0.102(5) -1.0379(29) -0.5887(21)
C4A C -0.049(5) -1.0670(26) -0.4523(25)
C5A C -0.313(4) -1.1024(14) -0.5913(18)
C6A C -0.204(4) -0.3693(20) 0.0781(12)
C7A C 0.167(4) -0.4051(23) 0.0071(24)
C8A C 0.466(5) -0.4112(23) -0.4929(28)
C9A C 0.181(4) -0.5415(17) -0.6159(18)
loop_
_geom_bond_atom_site_label_1
_geom_bond_atom_site_label_2
_geom_bond_site_symmetry_1
_geom_bond_site_symmetry_2
Ni1 O5 1_555 1_555
Ni2 O1 1_555 1_555
Ni3 O1 1_555 1_555
P1 O5 1_555 1_555
P2 O3 1_555 1_555
P3 O1 1_555 1_555
O2 P3 1_555 1_555
O3 Ni3_2 1_555 1_555
O4 P2 1_555 1_555
O6 Ni3 1_555 1_555
O7 Ni2 1_555 1_555
O8 Ni1 1_555 1_555
O9 Ni1 1_555 1_555
N1 C2 1_555 1_555
N2 Ni2 1_555 1_555
N3 C1 1_555 1_555
C1 C7A 1_555 1_555
C2 C8A 1_555 1_555
C3 N2 1_555 1_555
C4 N2 1_555 1_555
C5 P3 1_555 1_555
C6 P1 1_555 1_555
C7 N3 1_555 1_555
C8 N1 1_555 1_555
C9 P2 1_555 1_555
Ni1A O5A 1_555 1_555
Ni1_2 O7 1_555 1_555
Ni1A_2 O7A 1_555 1_555
Ni1A_3 O9A 1_555 1_555
Ni1A_4 O8A 1_555 1_555
Ni2A O1A 1_555 1_555
Ni2_2 O4 1_555 1_555
Ni2A_2 O7A 1_555 1_555
Ni2A_3 O4A 1_555 1_555
Ni2A_4 O8A 1_555 1_555
Ni3A O1A 1_555 1_555
Ni3A_2 O6A 1_555 1_555
Ni3A_3 O3A 1_555 1_555
Ni3A_4 O9A 1_555 1_555
P1A O5A 1_555 1_555
P2A O3A 1_555 1_555
P3A O1A 1_555 1_555
O2A P3A 1_555 1_555
O3_2 Ni3 1_555 1_555
O3A_2 Ni3A 1_555 1_555
O4A P2A 1_555 1_555
O4_2 Ni2 1_555 1_555
O4A_2 Ni2A 1_555 1_555
O6A P1A 1_555 1_555
O6A_2 Ni3A 1_555 1_555
O7A P1A 1_555 1_555
O7_2 Ni1 1_555 1_555
O7A_2 Ni1A 1_555 1_555
O7A_3 Ni2A 1_555 1_555
O8A P3A 1_555 1_555
O8_2 Ni2 1_555 1_555
O8A_2 Ni1A 1_555 1_555
O8A_3 Ni2A 1_555 1_555
O9A P2A 1_555 1_555
O9A_2 Ni1A 1_555 1_555
O9A_3 Ni1A_4 1_555 1_555
N1A C2A 1_555 1_555
N2A Ni2A 1_555 1_555
N3A C1A 1_555 1_555
C1A C7 1_555 1_555
C2A C8 1_555 1_555
C3A C4 1_555 1_555
C4A C3 1_555 1_555
C5A P3A 1_555 1_555
C6A P1A 1_555 1_555
C7A N3A 1_555 1_555
C8A N1A 1_555 1_555
C9A P2A 1_555 1_555
Ni3 O9 1_555 1_555
P1 O6 1_555 1_555
P1 O7 1_555 1_555
P2 O9 1_555 1_555
P3 O8 1_555 1_555
O8 Ni2_2 1_555 1_555
N1 C9 1_555 1_555
N2 C5 1_555 1_555
N3 C6 1_555 1_555
Ni1_2 O8_2 1_555 1_555
Ni2_2 O7_2 1_555 1_555
Ni3A O9A_3 1_555 1_555
Ni3A_2 O9A_2 1_555 1_555
N1A C9A 1_555 1_555
N2A C3A 1_555 1_555
N2A C4A 1_555 1_555
N2A C5A 1_555 1_555
N3A C6A 1_555 1_555

#END
