
#######################################################################
#
#                 Cambridge Crystallographic Data Centre
#                                CCDC 
#
#######################################################################
#
# If this CIF has been generated from an entry in the Cambridge 
# Structural Database, then it will include bibliographic, chemical, 
# crystal, experimental, refinement or atomic coordinate data resulting 
# from the CCDC's data processing and validation procedures.
#
#######################################################################

data_QOVSOL
_symmetry_cell_setting           monoclinic
_symmetry_space_group_name_H-M   'P 21/n'
_symmetry_Int_Tables_number      14
_space_group_name_Hall           '-P 2yn'
loop_
_symmetry_equiv_pos_site_id
_symmetry_equiv_pos_as_xyz
1 x,y,z
2 1/2-x,1/2+y,1/2-z
3 -x,-y,-z
4 1/2+x,1/2-y,1/2+z
_cell_length_a                   11.328(4)
_cell_length_b                   24.951(7)
_cell_length_c                   13.624(5)
_cell_angle_alpha                90
_cell_angle_beta                 114.073(4)
_cell_angle_gamma                90
_cell_volume                     3515.84
loop_
_atom_site_label
_atom_site_type_symbol
_atom_site_fract_x
_atom_site_fract_y
_atom_site_fract_z
Cd1 Cd 0.64754(3) 0.159773(12) 0.82527(2)
C1 C 0.2751(4) 0.05539(17) 0.2747(4)
C2 C 0.1681(5) 0.07762(18) 0.1935(4)
H1 H 0.1345 0.0630 0.1247
C3 C 0.1119(4) 0.12253(18) 0.2177(4)
C4 C 0.1618(4) 0.14499(19) 0.3187(4)
H2 H 0.1248 0.1757 0.3330
C5 C 0.2684(4) 0.12108(17) 0.3992(3)
C6 C 0.3254(4) 0.07613(18) 0.3783(4)
H3 H 0.3960 0.0601 0.4325
C7 C 0.4683(5) 0.0064(2) 0.2763(5)
H4 H 0.5325 0.0313 0.3129
C8 C 0.4838(5) -0.0414(2) 0.2383(5)
H5 H 0.5625 -0.0552 0.2436
C9 C 0.2823(5) -0.03404(18) 0.1990(4)
H6 H 0.1940 -0.0409 0.1728
C10 C -0.0050(6) 0.2028(2) 0.1154(5)
H7 H 0.0482 0.2296 0.1584
C11 C -0.1111(5) 0.2092(2) 0.0227(5)
H8 H -0.1429 0.2421 -0.0094
C12 C -0.0914(4) 0.12489(19) 0.0500(4)
H9 H -0.1051 0.0881 0.0421
C13 C 0.2497(5) 0.1683(2) 0.5549(4)
H10 H 0.1617 0.1760 0.5253
C14 C 0.3367(5) 0.1802(2) 0.6561(4)
H11 H 0.3175 0.1973 0.7085
C15 C 0.4425(4) 0.1408(2) 0.5776(4)
H12 H 0.5092 0.1256 0.5640
C16 C 0.4796(4) 0.23585(18) 1.0179(4)
C17 C 0.4040(5) 0.2811(2) 0.9853(4)
H13 H 0.3900 0.2967 0.9194
C18 C 0.3480(5) 0.3040(2) 1.0502(4)
H14 H 0.2999 0.3353 1.0276
C19 C 0.3627(5) 0.2813(2) 1.1463(4)
C20 C 0.4656(5) 0.2099(2) 1.2836(4)
H15 H 0.4234 0.2225 1.3250
C21 C 0.5479(6) 0.1676(2) 1.3198(5)
H16 H 0.5613 0.1518 1.3853
C22 C 0.6116(6) 0.1480(3) 1.2604(5)
H17 H 0.6697 0.1198 1.2875
C23 C 0.5909(5) 0.1691(2) 1.1628(5)
H18 H 0.6337 0.1548 1.1233
C24 C 0.5040(4) 0.21305(18) 1.1202(4)
C25 C 0.4428(4) 0.2348(2) 1.1847(4)
C26 C 0.5298(4) 0.21116(19) 0.9406(4)
C27 C 0.2912(5) 0.3072(2) 1.2069(4)
N1 N 0.3673(4) -0.06724(15) 0.1905(3)
N2 N 0.3391(4) 0.01123(14) 0.2504(3)
N3 N -0.1649(4) 0.16080(15) -0.0172(3)
N4 N 0.0078(4) 0.14856(15) 0.1329(3)
N5 N 0.4576(4) 0.16298(15) 0.6689(3)
N6 N 0.3177(4) 0.14270(15) 0.5053(3)
O1 O 0.5249(4) 0.16096(14) 0.9302(3)
O2 O 0.5725(3) 0.24045(13) 0.8898(3)
O3 O 0.2794(5) 0.35687(18) 1.2035(4)
O4 O 0.2459(4) 0.27759(16) 1.2577(3)
Cd1_2 Cd -0.35246(3) 0.159773(12) -0.17473(2)
Cd1B Cd 0.35246(3) -0.159773(12) 0.17473(2)
Cd1C Cd 0.14754(3) 0.340227(12) 1.32527(2)
N1B N 0.6327(4) 0.06724(15) 0.8095(3)
N3_2 N 0.8351(4) 0.16080(15) 0.9828(3)
O3C O 0.7794(5) 0.14313(18) 0.7035(4)
O4C O 0.7459(4) 0.22241(16) 0.7577(3)
C28 C 0.9427(15) -0.0727(5) 0.3509(15)
H19 H 1.0311 -0.0727 0.3593
H20 H 0.8891 -0.0883 0.2829
H21 H 0.9354 -0.0932 0.4078
C29 C 0.937(2) 0.0263(6) 0.3015(16)
H22 H 0.8610 0.0396 0.2433
H23 H 0.9972 0.0134 0.2739
H24 H 0.9760 0.0546 0.3521
C30 C 0.8321(12) -0.0095(6) 0.4162(13)
H25 H 0.8159 -0.0374 0.4541
N7 N 0.9009(8) -0.0176(4) 0.3552(7)
O5 O 0.7929(9) 0.0355(5) 0.4191(8)
C31 C -0.2962(10) -0.0840(6) 0.0090(11)
H26 H -0.2810 -0.0463 0.0067
H27 H -0.3493 -0.0901 0.0477
H28 H -0.3394 -0.0975 -0.0629
C32 C -0.1651(14) -0.1707(5) 0.0866(15)
H29 H -0.0825 -0.1842 0.0943
H30 H -0.2323 -0.1888 0.0283
H31 H -0.1762 -0.1767 0.1519
C33 C -0.0626(9) -0.0843(6) 0.0968(8)
H32 H 0.0136 -0.1027 0.1358
N8 N -0.1720(8) -0.1119(4) 0.0635(8)
O6 O -0.0535(7) -0.0347(4) 0.0799(7)
O7 O 0.1630(4) 0.4343(2) 1.0417(4)
loop_
_geom_bond_atom_site_label_1
_geom_bond_atom_site_label_2
_geom_bond_site_symmetry_1
_geom_bond_site_symmetry_2
Cd1 N5 1_555 1_555
C1 C2 1_555 1_555
C2 H1 1_555 1_555
C3 C2 1_555 1_555
C4 C3 1_555 1_555
H2 C4 1_555 1_555
C5 C4 1_555 1_555
C6 C1 1_555 1_555
H3 C6 1_555 1_555
C7 H4 1_555 1_555
C8 C7 1_555 1_555
H5 C8 1_555 1_555
C9 H6 1_555 1_555
C10 H7 1_555 1_555
C11 C10 1_555 1_555
H8 C11 1_555 1_555
C12 H9 1_555 1_555
C13 H10 1_555 1_555
C14 C13 1_555 1_555
H11 C14 1_555 1_555
C15 H12 1_555 1_555
C16 C17 1_555 1_555
C17 H13 1_555 1_555
C18 C17 1_555 1_555
H14 C18 1_555 1_555
C19 C18 1_555 1_555
C20 H15 1_555 1_555
C21 C20 1_555 1_555
H16 C21 1_555 1_555
C22 C21 1_555 1_555
H17 C22 1_555 1_555
C23 C22 1_555 1_555
H18 C23 1_555 1_555
C24 C16 1_555 1_555
C25 C19 1_555 1_555
C26 C16 1_555 1_555
C27 C19 1_555 1_555
N1 C8 1_555 1_555
N2 C1 1_555 1_555
N3 C11 1_555 1_555
N4 C3 1_555 1_555
N5 C14 1_555 1_555
N6 C5 1_555 1_555
O1 Cd1 1_555 1_555
O2 Cd1 1_555 1_555
O3 C27 1_555 1_555
O4 C27 1_555 1_555
C28 H19 1_555 1_555
H20 C28 1_555 1_555
H21 C28 1_555 1_555
C29 H22 1_555 1_555
H23 C29 1_555 1_555
H24 C29 1_555 1_555
C30 H25 1_555 1_555
N7 C28 1_555 1_555
O5 C30 1_555 1_555
C31 H26 1_555 1_555
H27 C31 1_555 1_555
H28 C31 1_555 1_555
C32 H29 1_555 1_555
H30 C32 1_555 1_555
H31 C32 1_555 1_555
C33 H32 1_555 1_555
N8 C31 1_555 1_555
O6 C33 1_555 1_555
Cd1_2 N3 1_555 1_555
Cd1B N1 1_555 1_555
Cd1C O3 1_555 1_555
N1B Cd1 1_555 1_555
N3_2 Cd1 1_555 1_555
O3C Cd1 1_555 1_555
O4C Cd1 1_555 1_555
C5 C6 1_555 1_555
C7 N2 1_555 1_555
C9 N1 1_555 1_555
C9 N2 1_555 1_555
C10 N4 1_555 1_555
C12 N3 1_555 1_555
C12 N4 1_555 1_555
C13 N6 1_555 1_555
C15 N5 1_555 1_555
C15 N6 1_555 1_555
C20 C25 1_555 1_555
C23 C24 1_555 1_555
C24 C25 1_555 1_555
C26 O1 1_555 1_555
C26 O2 1_555 1_555
O4 Cd1C 1_555 1_555
C29 N7 1_555 1_555
C30 N7 1_555 1_555
C32 N8 1_555 1_555
C33 N8 1_555 1_555

#END
