
#######################################################################
#
#                 Cambridge Crystallographic Data Centre
#                                CCDC 
#
#######################################################################
#
# If this CIF has been generated from an entry in the Cambridge 
# Structural Database, then it will include bibliographic, chemical, 
# crystal, experimental, refinement or atomic coordinate data resulting 
# from the CCDC's data processing and validation procedures.
#
#######################################################################

data_QOZDOY
_symmetry_cell_setting           orthorhombic
_symmetry_space_group_name_H-M   'P n n a'
_symmetry_Int_Tables_number      52
_space_group_name_Hall           '-P 2a 2bc'
loop_
_symmetry_equiv_pos_site_id
_symmetry_equiv_pos_as_xyz
1 x,y,z
2 1/2-x,-y,z
3 1/2-x,1/2+y,1/2-z
4 x,1/2-y,1/2-z
5 -x,-y,-z
6 1/2+x,y,-z
7 1/2+x,1/2-y,1/2+z
8 -x,1/2+y,1/2+z
_cell_length_a                   12.471(1)
_cell_length_b                   13.804(1)
_cell_length_c                   12.005(1)
_cell_angle_alpha                90
_cell_angle_beta                 90
_cell_angle_gamma                90
_cell_volume                     2066.66
loop_
_atom_site_label
_atom_site_type_symbol
_atom_site_fract_x
_atom_site_fract_y
_atom_site_fract_z
Zn1 Zn 0.7500 0.0000 0.19654(5)
O1 O 0.6015(4) 0.0305(3) 0.3492(4)
O2 O 0.6557(2) -0.0987(2) 0.2628(3)
N1 N 0.3251(3) -0.4068(2) 0.5868(3)
C1 C 0.3871(4) -0.2466(3) 0.5511(4)
H1 H 0.3862 -0.1815 0.5710
C2 C 0.3264(4) -0.3119(3) 0.6095(4)
H2 H 0.2841 -0.2892 0.6677
C3 C 0.3803(4) -0.4358(3) 0.4988(4)
H3 H 0.3770 -0.5007 0.4784
C4 C 0.4426(4) -0.3738(3) 0.4357(4)
H4 H 0.4801 -0.3976 0.3746
C5 C 0.4494(4) -0.2770(3) 0.4629(4)
C6 C 0.5206(4) -0.2127(3) 0.3979(3)
H5 H 0.5663 -0.2422 0.3470
C7 C 0.5255(4) -0.1175(3) 0.4054(4)
H6 H 0.4806 -0.0863 0.4559
C8 C 0.5998(4) -0.0574(3) 0.3366(4)
O1A O 0.8985(4) -0.0305(3) 0.3492(4)
O2A O 0.8443(2) 0.0987(2) 0.2628(3)
N1A N 1.1749(3) 0.4068(2) 0.5868(3)
C1A C 1.1129(4) 0.2466(3) 0.5511(4)
H1A H 1.1138 0.1815 0.5710
C2A C 1.1736(4) 0.3119(3) 0.6095(4)
H2A H 1.2159 0.2892 0.6677
C3A C 1.1197(4) 0.4358(3) 0.4988(4)
H3A H 1.1230 0.5007 0.4784
C4A C 1.0574(4) 0.3738(3) 0.4357(4)
H4A H 1.0199 0.3976 0.3746
C5A C 1.0506(4) 0.2770(3) 0.4629(4)
C6A C 0.9794(4) 0.2127(3) 0.3979(3)
H5A H 0.9337 0.2422 0.3470
C7A C 0.9745(4) 0.1175(3) 0.4054(4)
H6A H 1.0194 0.0863 0.4559
C8A C 0.9002(4) 0.0574(3) 0.3366(4)
N1F N 0.8251(3) -0.0932(2) 0.0868(3)
N1G N 0.6749(3) 0.0932(2) 0.0868(3)
Zn1F Zn 0.2500 -0.5000 0.69654(5)
Zn1F_2 Zn 1.2500 0.5000 0.69654(5)
C9 C 0.336(2) 0.2091(19) 0.258(7)
H7 H 0.2617 0.2046 0.2633
C10 C 0.3473(18) 0.1097(12) 0.263(2)
H8 H 0.3331 0.0887 0.3382
H9 H 0.4202 0.0947 0.2443
H10 H 0.2997 0.0770 0.2131
C9C C 0.336(2) 0.2909(19) 0.242(7)
H7C H 0.2617 0.2954 0.2367
C10C C 0.3473(18) 0.3903(12) 0.237(2)
H8C H 0.3331 0.4113 0.1618
H9C H 0.4202 0.4053 0.2557
H10C H 0.2997 0.4230 0.2869
loop_
_geom_bond_atom_site_label_1
_geom_bond_atom_site_label_2
_geom_bond_site_symmetry_1
_geom_bond_site_symmetry_2
Zn1 O2 1_555 1_555
O1 C8 1_555 1_555
O2 C8 1_555 1_555
N1 C2 1_555 1_555
C1 H1 1_555 1_555
C2 C1 1_555 1_555
H2 C2 1_555 1_555
C3 N1 1_555 1_555
H3 C3 1_555 1_555
C4 C3 1_555 1_555
H4 C4 1_555 1_555
C5 C1 1_555 1_555
C6 C5 1_555 1_555
H5 C6 1_555 1_555
C7 C6 1_555 1_555
H6 C7 1_555 1_555
C8 C7 1_555 1_555
C9 H7 1_555 1_555
C10 C9 1_555 1_555
H8 C10 1_555 1_555
H9 C10 1_555 1_555
H10 C10 1_555 1_555
O1A C8A 1_555 1_555
O2A Zn1 1_555 1_555
N1A C2A 1_555 1_555
C1A H1A 1_555 1_555
C2A C1A 1_555 1_555
H2A C2A 1_555 1_555
C3A N1A 1_555 1_555
H3A C3A 1_555 1_555
C4A C3A 1_555 1_555
H4A C4A 1_555 1_555
C5A C1A 1_555 1_555
C6A C5A 1_555 1_555
H5A C6A 1_555 1_555
C7A C6A 1_555 1_555
H6A C7A 1_555 1_555
C8A O2A 1_555 1_555
N1F Zn1 1_555 1_555
N1G Zn1 1_555 1_555
Zn1F N1 1_555 1_555
Zn1F_2 N1A 1_555 1_555
C9C C9 1_555 1_555
H7C C9C 1_555 1_555
C10C C9C 1_555 1_555
H8C C10C 1_555 1_555
H9C C10C 1_555 1_555
H10C C10C 1_555 1_555
C4 C5 1_555 1_555
C4A C5A 1_555 1_555
C7A C8A 1_555 1_555

#END
