
#######################################################################
#
#                 Cambridge Crystallographic Data Centre
#                                CCDC 
#
#######################################################################
#
# If this CIF has been generated from an entry in the Cambridge 
# Structural Database, then it will include bibliographic, chemical, 
# crystal, experimental, refinement or atomic coordinate data resulting 
# from the CCDC's data processing and validation procedures.
#
#######################################################################

data_QUFKIN
_symmetry_cell_setting           monoclinic
_symmetry_space_group_name_H-M   'P 21/n'
_symmetry_Int_Tables_number      14
_space_group_name_Hall           '-P 2yn'
loop_
_symmetry_equiv_pos_site_id
_symmetry_equiv_pos_as_xyz
1 x,y,z
2 1/2-x,1/2+y,1/2-z
3 -x,-y,-z
4 1/2+x,1/2-y,1/2+z
_cell_length_a                   9.465(7)
_cell_length_b                   12.581(9)
_cell_length_c                   18.980(14)
_cell_angle_alpha                90
_cell_angle_beta                 93.548(13)
_cell_angle_gamma                90
_cell_volume                     2255.79
loop_
_atom_site_label
_atom_site_type_symbol
_atom_site_fract_x
_atom_site_fract_y
_atom_site_fract_z
Co1 Co 0.24936(6) 0.85299(5) 0.24112(3)
Co2 Co 0.06249(6) 0.82072(5) 0.06914(3)
N1 N 0.2514(4) 0.8738(3) 0.35159(18)
N2 N 0.2771(4) 0.6875(3) 0.3894(2)
N3 N 0.3668(4) 0.7122(3) 0.5017(2)
N4 N 0.3708(5) 0.9430(3) 0.5622(2)
N5 N 0.3018(4) 0.9955(3) 0.4473(2)
O1 O 0.0931(3) 0.9701(3) 0.22607(16)
O2 O -0.0178(3) 0.9553(3) 0.11787(15)
O3 O -0.5962(3) 0.9726(3) 0.24161(17)
O4 O -0.5661(3) 0.9983(3) 0.12696(17)
O5 O 0.0857(3) 1.2387(3) 0.23875(16)
O6 O 0.0625(3) 1.1747(3) 0.34746(16)
O7 O -0.5969(3) 1.2319(3) 0.24545(15)
O8 O -0.4900(3) 1.2213(3) 0.35355(16)
C1 C 0.2832(5) 0.7966(4) 0.3995(2)
C2 C 0.3268(5) 0.6425(4) 0.4510(3)
H1 H 0.3326 0.5693 0.4575
C3 C 0.3337(5) 0.8114(4) 0.4686(2)
C4 C 0.3377(5) 0.9172(4) 0.4948(2)
C5 C 0.2652(5) 0.9706(4) 0.3802(2)
H2 H 0.2470 1.0275 0.3497
C6 C -0.0069(4) 0.9885(3) 0.1818(2)
C7 C -0.1313(4) 1.0507(3) 0.2071(2)
C8 C -0.2665(4) 1.0163(3) 0.1848(2)
H3 H -0.2764 0.9628 0.1511
C9 C -0.3887(4) 1.0603(3) 0.2118(2)
C10 C -0.5284(4) 1.0080(3) 0.1912(2)
C11 C -0.2381(4) 1.1779(3) 0.2832(2)
H4 H -0.2285 1.2322 0.3164
C12 C -0.1160(4) 1.1330(3) 0.2570(2)
C13 C 0.0240(4) 1.1838(3) 0.2836(2)
C14 C -0.3730(4) 1.1433(3) 0.2607(2)
C15 C -0.4988(4) 1.2017(3) 0.2887(2)
O9 O 0.1573(4) 0.6994(3) 0.01652(16)
O10 O 0.1467(3) 0.9155(3) -0.01135(16)
O11 O 0.2616(3) 0.8354(2) 0.12923(15)
H5 H 0.2545 0.6562 0.3502
H6 H 0.3961 1.0143 0.5744
H7 H 0.4054 0.8723 0.5960
H8 H 0.1771 0.6410 0.0341
H9 H 0.1431 0.6994 -0.0251
H10 H 0.2281 0.9016 -0.0202
H11 H 0.1006 0.9481 -0.0423
H12 H 0.3073 0.7803 0.1291
H13 H 0.3143 0.8870 0.1244
Co1_2 Co -0.75064(6) 0.85299(5) 0.24112(3)
Co1A Co -0.74936(6) 1.35299(5) 0.25888(3)
Co1A_2 Co 0.25064(6) 1.35299(5) 0.25888(3)
Co2A Co -0.56249(6) 1.32072(5) 0.43086(3)
Co2C Co 0.56249(6) 0.67928(5) 0.56914(3)
N3C N -0.1332(4) 0.7878(3) 0.0017(2)
O3_2 O 0.4038(3) 0.9726(3) 0.24161(17)
O5A O 0.4143(3) 0.7387(3) 0.26125(16)
O7A O 0.0969(3) 0.7319(3) 0.25455(15)
O8A O -0.0100(3) 0.7213(3) 0.14645(16)
O12 O 0.1235(4) 0.6647(3) -0.1280(2)
H14 H 0.0775 0.6935 -0.1607
H15 H 0.2047 0.6773 -0.1363
O13 O 0.5543(6) 0.5124(5) 0.0720(3)
H16 H 0.4721 0.4935 0.0845
H17 H 0.5320 0.5563 0.0349
O14 O 0.4176(5) 0.6857(4) 0.8723(3)
H18 H 0.4783 0.6968 0.8429
H19 H 0.4150 0.6171 0.8680
O15 O 0.4172(4) 0.8703(4) 0.9663(2)
H20 H 0.4880 0.8817 0.9980
H21 H 0.4040 0.9546 0.9752
loop_
_geom_bond_atom_site_label_1
_geom_bond_atom_site_label_2
_geom_bond_site_symmetry_1
_geom_bond_site_symmetry_2
Co1 N1 1_555 1_555
Co2 O2 1_555 1_555
N1 C1 1_555 1_555
N2 C1 1_555 1_555
N3 C2 1_555 1_555
N4 C4 1_555 1_555
N5 C4 1_555 1_555
O1 Co1 1_555 1_555
O2 C6 1_555 1_555
O3 C10 1_555 1_555
O4 C10 1_555 1_555
O5 C13 1_555 1_555
O6 C13 1_555 1_555
O7 C15 1_555 1_555
O8 C15 1_555 1_555
C1 C3 1_555 1_555
C2 N2 1_555 1_555
H1 C2 1_555 1_555
C3 N3 1_555 1_555
C4 C3 1_555 1_555
C5 N1 1_555 1_555
H2 C5 1_555 1_555
C6 O1 1_555 1_555
C7 C6 1_555 1_555
C8 C7 1_555 1_555
H3 C8 1_555 1_555
C9 C8 1_555 1_555
C10 C9 1_555 1_555
C11 H4 1_555 1_555
C12 C7 1_555 1_555
C13 C12 1_555 1_555
C14 C9 1_555 1_555
C15 C14 1_555 1_555
O9 Co2 1_555 1_555
O10 Co2 1_555 1_555
O11 Co1 1_555 1_555
H5 N2 1_555 1_555
H6 N4 1_555 1_555
H7 N4 1_555 1_555
H8 O9 1_555 1_555
H9 O9 1_555 1_555
H10 O10 1_555 1_555
H11 O10 1_555 1_555
H12 O11 1_555 1_555
H13 O11 1_555 1_555
O12 H14 1_555 1_555
H15 O12 1_555 1_555
O13 H16 1_555 1_555
H17 O13 1_555 1_555
O14 H18 1_555 1_555
H19 O14 1_555 1_555
O15 H20 1_555 1_555
H21 O15 1_555 1_555
Co1_2 O3 1_555 1_555
Co1A O7 1_555 1_555
Co1A_2 O5 1_555 1_555
Co2A O8 1_555 1_555
Co2C N3 1_555 1_555
N3C Co2 1_555 1_555
O3_2 Co1 1_555 1_555
O5A Co1 1_555 1_555
O7A Co1 1_555 1_555
O8A Co2 1_555 1_555
Co2 O11 1_555 1_555
N5 C5 1_555 1_555
C11 C12 1_555 1_555
C11 C14 1_555 1_555

#END
