
#######################################################################
#
#                 Cambridge Crystallographic Data Centre
#                                CCDC 
#
#######################################################################
#
# If this CIF has been generated from an entry in the Cambridge 
# Structural Database, then it will include bibliographic, chemical, 
# crystal, experimental, refinement or atomic coordinate data resulting 
# from the CCDC's data processing and validation procedures.
#
#######################################################################

data_QUNWAZ
_symmetry_cell_setting           triclinic
_symmetry_space_group_name_H-M   'P -1'
_symmetry_Int_Tables_number      2
_space_group_name_Hall           '-P 1'
loop_
_symmetry_equiv_pos_site_id
_symmetry_equiv_pos_as_xyz
1 x,y,z
2 -x,-y,-z
_cell_length_a                   17.2471(19)
_cell_length_b                   18.932(3)
_cell_length_c                   21.340(2)
_cell_angle_alpha                88.588(10)
_cell_angle_beta                 73.431(7)
_cell_angle_gamma                66.759(8)
_cell_volume                     6106.07
loop_
_atom_site_label
_atom_site_type_symbol
_atom_site_fract_x
_atom_site_fract_y
_atom_site_fract_z
Zn1 Zn 1.5000 0.0000 0.5000
O1 O 1.4515(6) -0.0857(6) 0.5224(5)
O2 O 1.5099(7) -0.0129(6) 0.4028(4)
O3 O 1.3721(6) 0.0797(6) 0.5262(5)
C1 C 1.4015(9) -0.1127(8) 0.5078(7)
Zn2 Zn 1.41288(13) -0.03597(14) 0.39277(10)
N1 N 1.5445(9) 0.0177(9) 0.3526(5)
C2 C 1.3712(9) -0.1651(7) 0.5538(6)
O4 O 1.3797(7) -0.1015(7) 0.4541(5)
O5 O 1.5094(8) -0.1381(8) 0.3236(6)
N2 N 1.3392(8) -0.0232(5) 0.3327(6)
O6 O 1.3115(7) 0.0599(7) 0.4496(6)
O7 O 1.5127(10) 0.0317(9) 0.3033(5)
O8 O 1.5949(10) 0.0516(10) 0.3584(7)
C3 C 1.3186(9) -0.1976(8) 0.5377(7)
C4 C 1.3997(10) -0.1839(8) 0.6088(6)
C5 C 1.5137(12) -0.2026(9) 0.3338(8)
C6 C 1.2994(9) -0.2508(8) 0.5784(6)
H1 H 1.2979 -0.1835 0.5012
C7 C 1.3728(9) -0.2339(8) 0.6497(7)
H2 H 1.4355 -0.1620 0.6179
N3 N 1.5386(9) -0.2594(8) 0.2868(6)
H3 H 1.4974 -0.2131 0.3773
C8 C 1.3206(10) -0.2687(9) 0.6363(6)
H4 H 1.2697 -0.2767 0.5660
H5 H 1.3918 -0.2458 0.6869
C9 C 1.5667(13) -0.2446(11) 0.2179(6)
C10 C 1.5369(16) -0.3353(9) 0.3002(11)
C11 C 1.2991(10) -0.3259(9) 0.6706(8)
H6 H 1.5850 -0.2905 0.1903
H7 H 1.6142 -0.2287 0.2099
H8 H 1.5177 -0.2050 0.2087
H9 H 1.5586 -0.3681 0.2606
H10 H 1.5748 -0.3566 0.3267
H11 H 1.4789 -0.3307 0.3232
C12 C 1.2843(10) -0.3800(9) 0.6984(8)
C13 C 1.2682(11) -0.4408(8) 0.7251(6)
C14 C 1.2697(11) -0.4599(9) 0.7884(6)
C15 C 1.2432(9) -0.4841(7) 0.6882(6)
C16 C 1.2862(11) -0.4173(9) 0.8379(8)
C17 C 1.2429(11) -0.5174(8) 0.8151(6)
C18 C 1.2443(10) -0.4763(9) 0.6159(7)
C19 C 1.2195(10) -0.5433(7) 0.7141(5)
C20 C 1.3593(9) -0.4789(8) 0.8578(8)
C21 C 1.2045(10) -0.3897(7) 0.8963(8)
H12 H 1.3018 -0.3749 0.8192
C22 C 1.2440(11) -0.5261(9) 0.8882(7)
C23 C 1.2184(8) -0.5612(8) 0.7781(5)
C24 C 1.3078(8) -0.5576(8) 0.5813(6)
C25 C 1.1559(10) -0.4689(8) 0.6125(8)
H13 H 1.2606 -0.4339 0.5982
C26 C 1.1997(10) -0.5875(9) 0.6658(7)
C27 C 1.3395(10) -0.5406(7) 0.8845(7)
C28 C 1.4433(9) -0.4805(10) 0.8512(10)
C29 C 1.1843(9) -0.4504(8) 0.9241(7)
C30 C 1.1552(10) -0.3146(9) 0.9264(8)
H14 H 1.2290 -0.5689 0.9068
C31 C 1.2009(9) -0.6244(9) 0.8034(6)
C32 C 1.2837(9) -0.6166(7) 0.6077(7)
C33 C 1.3835(8) -0.5759(8) 0.5270(6)
C34 C 1.1332(10) -0.5279(9) 0.6407(9)
C35 C 1.1003(9) -0.4074(10) 0.5869(9)
H15 H 1.1822 -0.6287 0.6847
C36 C 1.3958(9) -0.6019(8) 0.9092(8)
C37 C 1.4980(12) -0.5412(9) 0.8775(9)
H16 H 1.4596 -0.4416 0.8322
C38 C 1.1093(9) -0.4349(9) 0.9784(7)
C39 C 1.0766(12) -0.2949(11) 0.9778(9)
H17 H 1.1714 -0.2752 0.9085
C40 C 1.1845(9) -0.6786(9) 0.8258(8)
C41 C 1.3376(9) -0.6930(8) 0.5827(6)
C42 C 1.4351(11) -0.6530(7) 0.5025(7)
H18 H 1.4016 -0.5374 0.5094
C43 C 1.0522(9) -0.5291(10) 0.6414(9)
C44 C 1.0205(11) -0.4080(11) 0.5845(10)
H19 H 1.1174 -0.3685 0.5685
C45 C 1.4768(10) -0.6002(9) 0.9084(9)
H20 H 1.3819 -0.6434 0.9239
H21 H 1.5540 -0.5430 0.8736
C46 C 1.0573(13) -0.3572(9) 1.0022(9)
H22 H 1.0958 -0.4749 0.9974
H23 H 1.0408 -0.2442 0.9959
C47 C 1.1572(9) -0.7353(8) 0.8532(7)
C48 C 1.4100(9) -0.7118(9) 0.5272(7)
H24 H 1.3230 -0.7326 0.6026
H25 H 1.4865 -0.6661 0.4671
C49 C 1.0008(11) -0.4682(10) 0.6134(9)
H26 H 1.0346 -0.5676 0.6603
H27 H 0.9821 -0.3694 0.5666
H28 H 1.5138 -0.6372 0.9283
H29 H 1.0073 -0.3464 1.0381
C50 C 1.1143(11) -0.7662(9) 0.8216(8)
C51 C 1.1773(10) -0.7667(9) 0.9093(7)
H30 H 1.4439 -0.7629 0.5085
H31 H 0.9480 -0.4692 0.6116
C52 C 1.0897(10) -0.8244(9) 0.8508(7)
H32 H 1.1029 -0.7483 0.7828
C53 C 1.1453(10) -0.8201(9) 0.9393(8)
H33 H 1.2117 -0.7519 0.9279
C54 C 1.0991(10) -0.8494(9) 0.9107(7)
H34 H 1.0641 -0.8464 0.8284
H35 H 1.1553 -0.8375 0.9788
C55 C 1.0608(10) -0.9049(8) 0.9437(9)
O9 O 1.0349(7) -0.9355(7) 0.9088(5)
O10 O 1.0559(9) -0.9089(7) 1.0006(6)
Zn3 Zn 0.98277(12) -1.01527(13) 0.94109(10)
N4 N 0.9278(7) -1.0232(6) 0.8715(5)
O11 O 1.1090(7) -1.0956(7) 0.9117(5)
O12 O 0.8650(6) -0.9267(7) 0.9995(5)
C56 C 0.9290(8) -0.9766(7) 0.8204(5)
C57 C 0.8771(7) -1.0662(7) 0.8808(7)
C58 C 1.1562(8) -1.1075(9) 0.9482(9)
C59 C 0.8806(7) -0.9682(7) 0.7764(7)
H36 H 0.9643 -0.9489 0.8157
C60 C 0.8258(8) -1.0563(7) 0.8375(6)
H37 H 0.8766 -1.1001 0.9134
C61 C 1.2528(8) -1.1609(9) 0.9210(7)
C62 C 0.8284(8) -1.0106(4) 0.7854(7)
H38 H 0.8836 -0.9355 0.7430
H39 H 0.7880 -1.0819 0.8440
C63 C 1.3073(8) -1.1734(9) 0.9613(7)
C64 C 1.2836(9) -1.2005(9) 0.8581(7)
C65 C 0.7740(8) -1.0006(5) 0.7436(6)
C66 C 1.3963(8) -1.2267(9) 0.9383(7)
H40 H 1.2860 -1.1428 1.0016
C67 C 1.3720(8) -1.2532(9) 0.8362(8)
H41 H 1.2472 -1.1900 0.8308
C68 C 0.8033(11) -0.9946(5) 0.6770(6)
C69 C 0.6860(8) -0.9928(5) 0.7704(8)
C70 C 1.4278(10) -1.2651(9) 0.8752(7)
H42 H 1.4336 -1.2376 0.9651
H43 H 1.3933 -1.2819 0.7955
C71 C 0.7470(8) -0.9832(5) 0.6383(8)
H44 H 0.8605 -0.9969 0.6584
C72 C 0.6275(11) -0.9826(5) 0.7340(6)
H45 H 0.6656 -0.9953 0.8156
C73 C 1.5146(10) -1.3225(9) 0.8507(8)
H46 H 0.7671 -0.9799 0.5929
H47 H 0.5706 -0.9813 0.7517
C74 C 1.5869(11) -1.3774(9) 0.8221(8)
C75 C 1.6653(8) -1.4403(8) 0.7885(5)
C76 C 1.6833(8) -1.4539(7) 0.7206(5)
C77 C 1.7316(8) -1.4840(8) 0.8160(6)
C78 C 1.6200(11) -1.4118(9) 0.6794(8)
C79 C 1.7599(8) -1.5144(8) 0.6826(6)
C80 C 1.7265(11) -1.4740(11) 0.8871(7)
C81 C 1.8100(8) -1.5430(9) 0.7773(6)
C82 C 1.6070(8) -1.4684(8) 0.6450(7)
C83 C 1.6747(9) -1.3792(7) 0.6269(7)
H48 H 1.5642 -1.3706 0.7058
C84 C 1.7647(10) -1.5171(10) 0.6112(7)
C85 C 1.8253(8) -1.5595(9) 0.7106(6)
C86 C 1.7420(9) -1.5600(9) 0.9079(7)
C87 C 1.8075(10) -1.4636(8) 0.8884(8)
H49 H 1.6718 -1.4337 0.9144
C88 C 1.8721(10) -1.5876(11) 0.8162(8)
C89 C 1.6833(9) -1.5305(8) 0.6084(7)
C90 C 1.5251(10) -1.4689(10) 0.6472(8)
C91 C 1.7526(8) -1.4396(8) 0.5912(6)
C92 C 1.6520(11) -1.3004(8) 0.6206(7)
H50 H 1.8203 -1.5583 0.5845
C93 C 1.9053(10) -1.6210(9) 0.6711(8)
C94 C 1.8196(9) -1.6183(8) 0.8686(7)
C95 C 1.6839(10) -1.5772(10) 0.9603(7)
C96 C 1.8853(8) -1.5243(9) 0.8514(7)
C97 C 1.8125(10) -1.4013(10) 0.9184(9)
H51 H 1.9281 -1.6283 0.7893
C98 C 1.6806(10) -1.5896(10) 0.5723(8)
C99 C 1.5232(10) -1.5291(9) 0.6122(8)
H52 H 1.4726 -1.4292 0.6719
C100 C 1.8058(10) -1.4142(8) 0.5422(6)
C101 C 1.7116(10) -1.2797(10) 0.5724(7)
H53 H 1.5987 -1.2632 0.6463
C102 C 1.9693(11) -1.6736(9) 0.6416(8)
C103 C 1.8405(12) -1.6955(9) 0.8794(7)
C104 C 1.7061(12) -1.6541(9) 0.9729(8)
H54 H 1.6336 -1.5386 0.9872
C105 C 1.9672(9) -1.5225(10) 0.8466(7)
C106 C 1.8942(9) -1.4000(11) 0.9148(10)
H55 H 1.7600 -1.3624 0.9444
C107 C 1.5989(9) -1.5901(10) 0.5739(9)
H56 H 1.7329 -1.6283 0.5461
H57 H 1.4685 -1.5281 0.6130
C108 C 1.7890(11) -1.3367(7) 0.5315(7)
H58 H 1.8586 -1.4522 0.5161
H59 H 1.6994 -1.2280 0.5671
C109 C 2.0504(8) -1.7324(9) 0.6065(6)
C110 C 1.7825(11) -1.7119(11) 0.9326(7)
H60 H 1.8920 -1.7344 0.8529
H61 H 1.6687 -1.6661 1.0080
C111 C 1.9715(11) -1.4623(10) 0.8800(10)
H62 H 2.0186 -1.5613 0.8211
H63 H 1.8958 -1.3585 0.9362
H64 H 1.5958 -1.6300 0.5514
H65 H 1.8263 -1.3229 0.4980
C112 C 2.1205(8) -1.7570(9) 0.6331(7)
C113 C 2.0660(8) -1.7685(8) 0.5454(7)
H66 H 1.7935 -1.7630 0.9407
H67 H 2.0259 -1.4619 0.8783
C114 C 2.2044(9) -1.8125(8) 0.5986(7)
H68 H 2.1112 -1.7356 0.6749
C115 C 2.1480(7) -1.8262(8) 0.5121(7)
H69 H 2.0205 -1.7520 0.5262
C116 C 2.2191(7) -1.8491(7) 0.5380(6)
H70 H 2.2519 -1.8249 0.6157
H71 H 2.1558 -1.8516 0.4723
C117 C 2.3104(7) -1.9056(8) 0.4989(8)
O3A O 1.6279(6) -0.0797(6) 0.4738(5)
O1A O 1.5485(6) 0.0857(6) 0.4776(5)
O2A O 1.4901(7) 0.0129(6) 0.5972(4)
Zn3A Zn 1.01723(12) -0.98473(13) 1.05891(10)
O10A O 0.9441(9) -1.0911(7) 0.9994(6)
O12A O 1.1350(6) -1.0733(7) 1.0005(5)
N4A N 1.0722(7) -0.9768(6) 1.1285(5)
O9A O 0.9651(7) -1.0645(7) 1.0912(5)
O11A O 0.8910(7) -0.9044(7) 1.0883(5)
C58A C 0.8438(8) -0.8925(9) 1.0518(9)
C55A C 0.9392(10) -1.0951(8) 1.0563(9)
C56A C 1.0710(8) -1.0234(7) 1.1796(5)
C57A C 1.1229(7) -0.9338(7) 1.1192(7)
C61A C 0.7472(8) -0.8391(9) 1.0790(7)
C54A C 0.9009(10) -1.1506(9) 1.0893(7)
C59A C 1.1194(7) -1.0318(7) 1.2236(7)
H36A H 1.0357 -1.0511 1.1843
C60A C 1.1742(8) -0.9437(7) 1.1625(6)
H37A H 1.1234 -0.8999 1.0866
C63A C 0.6927(8) -0.8266(9) 1.0387(7)
C64A C 0.7164(9) -0.7995(9) 1.1419(7)
C52A C 0.9103(10) -1.1756(9) 1.1492(7)
C53A C 0.8547(10) -1.1799(9) 1.0607(8)
C62A C 1.1716(8) -0.9894(4) 1.2146(7)
H38A H 1.1164 -1.0645 1.2570
H39A H 1.2120 -0.9181 1.1560
C66A C 0.6037(8) -0.7733(9) 1.0617(7)
H40A H 0.7140 -0.8572 0.9984
C67A C 0.6280(8) -0.7468(9) 1.1638(8)
H41A H 0.7528 -0.8100 1.1692
C50A C 0.8857(11) -1.2338(9) 1.1784(8)
H34A H 0.9359 -1.1536 1.1716
C51A C 0.8227(10) -1.2333(9) 1.0907(7)
H35A H 0.8447 -1.1625 1.0212
C65A C 1.2260(8) -0.9994(5) 1.2564(6)
C70A C 0.5722(10) -0.7349(9) 1.1248(7)
H42A H 0.5664 -0.7624 1.0349
H43A H 0.6067 -0.7181 1.2045
C47A C 0.8428(9) -1.2647(8) 1.1468(7)
H32A H 0.8971 -1.2517 1.2172
H33A H 0.7883 -1.2481 1.0721
C68A C 1.1967(11) -1.0054(5) 1.3230(6)
C69A C 1.3140(8) -1.0072(5) 1.2296(8)
C73A C 0.4854(10) -0.6775(9) 1.1493(8)
C40A C 0.8155(9) -1.3214(9) 1.1742(8)
C71A C 1.2530(8) -1.0168(5) 1.3617(8)
H44A H 1.1395 -1.0031 1.3416
C72A C 1.3725(11) -1.0174(5) 1.2660(6)
H45A H 1.3344 -1.0047 1.1844
N2A N 0.6608(8) -0.9768(5) 0.6673(6)
C74A C 0.4131(11) -0.6226(9) 1.1779(8)
C31A C 0.7991(9) -1.3756(9) 1.1966(6)
N2_2 N 1.3392(8) -1.0232(5) 1.3327(6)
H46A H 1.2329 -1.0201 1.4071
H47A H 1.4294 -1.0187 1.2483
Zn2A Zn 0.58712(13) -0.96403(14) 0.60723(10)
C75A C 0.3347(8) -0.5597(8) 1.2115(5)
C23A C 0.7816(8) -1.4388(8) 1.2219(5)
Zn2_2 Zn 1.41288(13) -1.03597(14) 1.39277(10)
C76A C 0.3167(8) -0.5461(7) 1.2794(5)
C77A C 0.2684(8) -0.5160(8) 1.1840(6)
C19A C 0.7805(10) -1.4567(7) 1.2859(5)
C17A C 0.7571(11) -1.4826(8) 1.1849(6)
C78A C 0.3800(11) -0.5882(9) 1.3206(8)
C79A C 0.2401(8) -0.4856(8) 1.3174(6)
C80A C 0.2735(11) -0.5260(11) 1.1129(7)
C81A C 0.1900(8) -0.4570(9) 1.2227(6)
C15A C 0.7568(9) -1.5159(7) 1.3118(6)
C26A C 0.8003(10) -1.4125(9) 1.3342(7)
C22A C 0.7560(11) -1.4739(9) 1.1118(7)
C14A C 0.7303(11) -1.5401(9) 1.2116(6)
C82A C 0.3930(8) -0.5316(8) 1.3550(7)
C83A C 0.3253(9) -0.6208(7) 1.3731(7)
H48A H 0.4358 -0.6294 1.2942
C84A C 0.2353(10) -0.4829(10) 1.3888(7)
C85A C 0.1747(8) -0.4405(9) 1.2894(6)
C86A C 0.2580(9) -0.4400(9) 1.0921(7)
C87A C 0.1925(10) -0.5364(8) 1.1116(8)
H49A H 0.3282 -0.5663 1.0856
C88A C 0.1279(10) -0.4124(11) 1.1838(8)
C13A C 0.7318(11) -1.5592(8) 1.2749(6)
C18A C 0.7557(10) -1.5237(9) 1.3841(7)
C32A C 0.7163(9) -1.3834(7) 1.3923(7)
C34A C 0.8668(10) -1.4721(9) 1.3593(9)
H15A H 0.8178 -1.3713 1.3153
C27A C 0.6605(10) -1.4594(7) 1.1155(7)
C29A C 0.8157(9) -1.5496(8) 1.0759(7)
H14A H 0.7710 -1.4311 1.0932
C16A C 0.7138(11) -1.5827(9) 1.1621(8)
C89A C 0.3167(9) -0.4695(8) 1.3916(7)
C90A C 0.4749(10) -0.5311(10) 1.3528(8)
C91A C 0.2474(8) -0.5604(8) 1.4088(6)
C92A C 0.3480(11) -0.6996(8) 1.3794(7)
H50A H 0.1797 -0.4417 1.4155
C93A C 0.0947(10) -0.3790(9) 1.3289(8)
C94A C 0.1804(9) -0.3817(8) 1.1314(7)
C95A C 0.3161(10) -0.4228(10) 1.0397(7)
C96A C 0.1147(8) -0.4757(9) 1.1486(7)
C97A C 0.1875(10) -0.5987(10) 1.0816(9)
H51A H 0.0719 -0.3717 1.2107
C12A C 0.7157(10) -1.6200(9) 1.3016(8)
C24A C 0.6922(8) -1.4424(8) 1.4187(6)
C25A C 0.8441(10) -1.5311(8) 1.3875(8)
H13A H 0.7394 -1.5661 1.4018
C41A C 0.6624(9) -1.3070(8) 1.4173(6)
C43A C 0.9478(9) -1.4709(10) 1.3586(9)
C20A C 0.6407(9) -1.5211(8) 1.1422(8)
C36A C 0.6042(9) -1.3981(8) 1.0908(8)
C21A C 0.7955(10) -1.6103(7) 1.1037(8)
C38A C 0.8907(9) -1.5651(9) 1.0216(7)
H12A H 0.6982 -1.6251 1.1808
C98A C 0.3194(10) -0.4104(10) 1.4277(8)
C99A C 0.4768(10) -0.4709(9) 1.3878(8)
H52A H 0.5274 -0.5708 1.3281
C100A C 0.1942(10) -0.5858(8) 1.4578(6)
C101A C 0.2884(10) -0.7203(10) 1.4276(7)
H53A H 0.4013 -0.7368 1.3537
C102A C 0.0307(11) -0.3264(9) 1.3584(8)
C103A C 0.1595(12) -0.3045(9) 1.1206(7)
C104A C 0.2939(12) -0.3459(9) 1.0271(8)
H54A H 0.3664 -0.4614 1.0128
C105A C 0.0328(9) -0.4775(10) 1.1534(7)
C106A C 0.1058(9) -0.6000(11) 1.0852(10)
H55A H 0.2400 -0.6376 1.0556
C11A C 0.7009(10) -1.6741(9) 1.3294(8)
C33A C 0.6165(8) -1.4241(8) 1.4730(6)
C35A C 0.8997(9) -1.5926(10) 1.4131(9)
C48A C 0.5900(9) -1.2882(9) 1.4728(7)
H24A H 0.6770 -1.2674 1.3974
C49A C 0.9992(11) -1.5318(10) 1.3866(9)
H26A H 0.9654 -1.4324 1.3397
C28A C 0.5567(9) -1.5195(10) 1.1488(10)
C45A C 0.5232(10) -1.3998(9) 1.0916(9)
H20A H 0.6181 -1.3566 1.0761
C30A C 0.8448(10) -1.6854(9) 1.0736(8)
C46A C 0.9427(13) -1.6428(9) 0.9978(9)
H22A H 0.9042 -1.5251 1.0026
C107A C 0.4011(9) -0.4099(10) 1.4261(9)
H56A H 0.2671 -0.3717 1.4539
H57A H 0.5315 -0.4719 1.3870
C108A C 0.2110(11) -0.6633(7) 1.4685(7)
H58A H 0.1414 -0.5478 1.4839
H59A H 0.3006 -0.7720 1.4329
C109A C -0.0504(8) -0.2676(9) 1.3935(6)
C110A C 0.2175(11) -0.2881(11) 1.0674(7)
H60A H 0.1080 -0.2656 1.1471
H61A H 0.3313 -0.3339 0.9920
C111A C 0.0285(11) -0.5377(10) 1.1200(10)
H62A H -0.0186 -0.4387 1.1789
H63A H 0.1042 -0.6415 1.0638
C8A C 0.6794(10) -1.7313(9) 1.3637(6)
C42A C 0.5649(11) -1.3470(7) 1.4975(7)
H18A H 0.5984 -1.4626 1.4906
C44A C 0.9795(11) -1.5920(11) 1.4155(10)
H19A H 0.8826 -1.6315 1.4315
H30A H 0.5561 -1.2371 1.4915
H31A H 1.0520 -1.5308 1.3884
C37A C 0.5020(12) -1.4588(9) 1.1225(9)
H16A H 0.5404 -1.5584 1.1678
H28A H 0.4862 -1.3628 1.0717
C39A C 0.9234(12) -1.7051(11) 1.0222(9)
H17A H 0.8286 -1.7248 1.0915
H29A H 0.9927 -1.6536 0.9619
H64A H 0.4042 -0.3700 1.4486
H65A H 0.1737 -0.6771 1.5020
C112A C -0.1205(8) -0.2430(9) 1.3669(7)
C113A C -0.0660(8) -0.2315(8) 1.4546(7)
H66A H 0.2065 -0.2370 1.0593
H67A H -0.0259 -0.5381 1.1217
C6A C 0.7006(9) -1.7492(8) 1.4216(6)
C7A C 0.6272(9) -1.7661(8) 1.3503(7)
H25A H 0.5135 -1.3339 1.5329
H27A H 1.0179 -1.6306 1.4334
H21A H 0.4460 -1.4570 1.1264
H23A H 0.9592 -1.7558 1.0041
C114A C -0.2044(9) -0.1875(8) 1.4014(7)
H68A H -0.1112 -0.2644 1.3251
C115A C -0.1480(7) -0.1738(8) 1.4879(7)
H69A H -0.0205 -0.2480 1.4738
C3A C 0.6814(9) -1.8024(8) 1.4623(7)
H4A H 0.7303 -1.7233 1.4340
C4A C 0.6003(10) -1.8161(8) 1.3912(6)
H5A H 0.6082 -1.7542 1.3131
C116A C -0.2191(7) -0.1509(7) 1.4620(6)
H70A H -0.2519 -0.1751 1.3843
H71A H -0.1558 -0.1484 1.5277
C2A C 0.6288(9) -1.8349(7) 1.4462(6)
H1A H 0.7021 -1.8165 1.4988
H2A H 0.5645 -1.8380 1.3821
C117A C -0.3104(7) -0.0944(8) 1.5011(8)
C1A C 0.5985(9) -1.8873(8) 1.4922(7)
O3_2 O 2.3721(6) -1.9203(6) 0.5262(5)
O6_2 O 2.3115(7) -1.9401(7) 0.4496(6)
O3A_2 O -0.3721(6) -0.0797(6) 1.4738(5)
O6A O -0.3115(7) -0.0599(7) 1.5504(6)
O4A O 0.6203(7) -1.8985(7) 1.5459(5)
O1A_2 O 0.5485(6) -1.9143(6) 1.4776(5)
Zn1_2 Zn 2.5000 -2.0000 0.5000
Zn2_3 Zn 2.41288(13) -2.03597(14) 0.39277(10)
Zn1_3 Zn -0.5000 0.0000 1.5000
Zn2A_2 Zn -0.41288(13) 0.03597(14) 1.60723(10)
Zn2A_3 Zn 0.58712(13) -1.96403(14) 1.60723(10)
Zn1_4 Zn 0.5000 -2.0000 1.5000
O5A O 0.4906(8) -1.8619(8) 1.6764(6)
O2A_2 O 0.4901(7) -1.9871(6) 1.5972(4)
N2A_2 N 0.6608(8) -1.9768(5) 1.6673(6)
O6A_2 O 0.6885(7) -2.0599(7) 1.5504(6)
C5A C 0.4863(12) -1.7974(9) 1.6662(8)
N1A N 0.4555(9) -2.0177(9) 1.6474(5)
N3A N 0.4614(9) -1.7406(8) 1.7132(6)
H3A H 0.5026 -1.7869 1.6227
O7A O 0.4873(10) -2.0317(9) 1.6967(5)
O8A O 0.4051(10) -2.0516(10) 1.6416(7)
C9A C 0.4333(13) -1.7554(11) 1.7821(6)
C10A C 0.4631(16) -1.6647(9) 1.6998(11)
H6A H 0.4150 -1.7095 1.8097
H7A H 0.3858 -1.7713 1.7901
H8A H 0.4823 -1.7950 1.7913
H9A H 0.4414 -1.6319 1.7394
H10A H 0.4252 -1.6434 1.6733
H11A H 0.5211 -1.6693 1.6768
loop_
_geom_bond_atom_site_label_1
_geom_bond_atom_site_label_2
_geom_bond_site_symmetry_1
_geom_bond_site_symmetry_2
Zn1 O1 1_555 1_555
O1 C1 1_555 1_555
O2 Zn1 1_555 1_555
O3 Zn1 1_555 1_555
C1 C2 1_555 1_555
Zn2 O2 1_555 1_555
N1 O2 1_555 1_555
C2 C3 1_555 1_555
O4 C1 1_555 1_555
O5 Zn2 1_555 1_555
N2 Zn2 1_555 1_555
O6 Zn2 1_555 1_555
O7 N1 1_555 1_555
O8 N1 1_555 1_555
C3 C6 1_555 1_555
C4 C2 1_555 1_555
C5 O5 1_555 1_555
C6 C8 1_555 1_555
H1 C3 1_555 1_555
C7 C4 1_555 1_555
H2 C4 1_555 1_555
N3 C5 1_555 1_555
H3 C5 1_555 1_555
C8 C7 1_555 1_555
H4 C6 1_555 1_555
H5 C7 1_555 1_555
C9 N3 1_555 1_555
C10 N3 1_555 1_555
C11 C8 1_555 1_555
H6 C9 1_555 1_555
H7 C9 1_555 1_555
H8 C9 1_555 1_555
H9 C10 1_555 1_555
H10 C10 1_555 1_555
H11 C10 1_555 1_555
C12 C11 1_555 1_555
C13 C12 1_555 1_555
C14 C13 1_555 1_555
C15 C13 1_555 1_555
C16 C14 1_555 1_555
C17 C14 1_555 1_555
C18 C15 1_555 1_555
C19 C15 1_555 1_555
C20 C16 1_555 1_555
C21 C16 1_555 1_555
H12 C16 1_555 1_555
C22 C17 1_555 1_555
C23 C17 1_555 1_555
C24 C18 1_555 1_555
C25 C18 1_555 1_555
H13 C18 1_555 1_555
C26 C19 1_555 1_555
C27 C20 1_555 1_555
C28 C20 1_555 1_555
C29 C21 1_555 1_555
C30 C21 1_555 1_555
H14 C22 1_555 1_555
C31 C23 1_555 1_555
C32 C24 1_555 1_555
C33 C24 1_555 1_555
C34 C25 1_555 1_555
C35 C25 1_555 1_555
H15 C26 1_555 1_555
C36 C27 1_555 1_555
C37 C28 1_555 1_555
H16 C28 1_555 1_555
C38 C29 1_555 1_555
C39 C30 1_555 1_555
H17 C30 1_555 1_555
C40 C31 1_555 1_555
C41 C32 1_555 1_555
C42 C33 1_555 1_555
H18 C33 1_555 1_555
C43 C34 1_555 1_555
C44 C35 1_555 1_555
H19 C35 1_555 1_555
C45 C36 1_555 1_555
H20 C36 1_555 1_555
H21 C37 1_555 1_555
C46 C38 1_555 1_555
H22 C38 1_555 1_555
H23 C39 1_555 1_555
C47 C40 1_555 1_555
C48 C41 1_555 1_555
H24 C41 1_555 1_555
H25 C42 1_555 1_555
C49 C43 1_555 1_555
H26 C43 1_555 1_555
H27 C44 1_555 1_555
H28 C45 1_555 1_555
H29 C46 1_555 1_555
C50 C47 1_555 1_555
C51 C47 1_555 1_555
H30 C48 1_555 1_555
H31 C49 1_555 1_555
C52 C50 1_555 1_555
H32 C50 1_555 1_555
C53 C51 1_555 1_555
H33 C51 1_555 1_555
C54 C52 1_555 1_555
H34 C52 1_555 1_555
H35 C53 1_555 1_555
C55 C54 1_555 1_555
O9 C55 1_555 1_555
O10 C55 1_555 1_555
Zn3 O9 1_555 1_555
N4 Zn3 1_555 1_555
O11 Zn3 1_555 1_555
O12 Zn3 1_555 1_555
C56 N4 1_555 1_555
C57 N4 1_555 1_555
C58 O11 1_555 1_555
C59 C56 1_555 1_555
H36 C56 1_555 1_555
C60 C57 1_555 1_555
H37 C57 1_555 1_555
C61 C58 1_555 1_555
C62 C59 1_555 1_555
H38 C59 1_555 1_555
H39 C60 1_555 1_555
C63 C61 1_555 1_555
C64 C61 1_555 1_555
C65 C62 1_555 1_555
C66 C63 1_555 1_555
H40 C63 1_555 1_555
C67 C64 1_555 1_555
H41 C64 1_555 1_555
C68 C65 1_555 1_555
C69 C65 1_555 1_555
C70 C66 1_555 1_555
H42 C66 1_555 1_555
H43 C67 1_555 1_555
C71 C68 1_555 1_555
H44 C68 1_555 1_555
C72 C69 1_555 1_555
H45 C69 1_555 1_555
C73 C70 1_555 1_555
H46 C71 1_555 1_555
H47 C72 1_555 1_555
C74 C73 1_555 1_555
C75 C74 1_555 1_555
C76 C75 1_555 1_555
C77 C75 1_555 1_555
C78 C76 1_555 1_555
C79 C76 1_555 1_555
C80 C77 1_555 1_555
C81 C77 1_555 1_555
C82 C78 1_555 1_555
C83 C78 1_555 1_555
H48 C78 1_555 1_555
C84 C79 1_555 1_555
C85 C79 1_555 1_555
C86 C80 1_555 1_555
C87 C80 1_555 1_555
H49 C80 1_555 1_555
C88 C81 1_555 1_555
C89 C82 1_555 1_555
C90 C82 1_555 1_555
C91 C83 1_555 1_555
C92 C83 1_555 1_555
H50 C84 1_555 1_555
C93 C85 1_555 1_555
C94 C86 1_555 1_555
C95 C86 1_555 1_555
C96 C87 1_555 1_555
C97 C87 1_555 1_555
H51 C88 1_555 1_555
C98 C89 1_555 1_555
C99 C90 1_555 1_555
H52 C90 1_555 1_555
C100 C91 1_555 1_555
C101 C92 1_555 1_555
H53 C92 1_555 1_555
C102 C93 1_555 1_555
C103 C94 1_555 1_555
C104 C95 1_555 1_555
H54 C95 1_555 1_555
C105 C96 1_555 1_555
C106 C97 1_555 1_555
H55 C97 1_555 1_555
C107 C98 1_555 1_555
H56 C98 1_555 1_555
H57 C99 1_555 1_555
C108 C100 1_555 1_555
H58 C100 1_555 1_555
H59 C101 1_555 1_555
C109 C102 1_555 1_555
C110 C103 1_555 1_555
H60 C103 1_555 1_555
H61 C104 1_555 1_555
C111 C105 1_555 1_555
H62 C105 1_555 1_555
H63 C106 1_555 1_555
H64 C107 1_555 1_555
H65 C108 1_555 1_555
C112 C109 1_555 1_555
C113 C109 1_555 1_555
H66 C110 1_555 1_555
H67 C111 1_555 1_555
C114 C112 1_555 1_555
H68 C112 1_555 1_555
C115 C113 1_555 1_555
H69 C113 1_555 1_555
C116 C114 1_555 1_555
H70 C114 1_555 1_555
H71 C115 1_555 1_555
C117 C116 1_555 1_555
O3A Zn1 1_555 1_555
O1A Zn1 1_555 1_555
O2A Zn1 1_555 1_555
Zn3A O10 1_555 1_555
O10A Zn3 1_555 1_555
O12A C58 1_555 1_555
N4A Zn3A 1_555 1_555
O9A Zn3A 1_555 1_555
O11A Zn3A 1_555 1_555
C58A O12 1_555 1_555
C55A O10A 1_555 1_555
C56A N4A 1_555 1_555
C57A N4A 1_555 1_555
C61A C58A 1_555 1_555
C54A C55A 1_555 1_555
C59A C56A 1_555 1_555
H36A C56A 1_555 1_555
C60A C57A 1_555 1_555
H37A C57A 1_555 1_555
C63A C61A 1_555 1_555
C64A C61A 1_555 1_555
C52A C54A 1_555 1_555
C53A C54A 1_555 1_555
C62A C59A 1_555 1_555
H38A C59A 1_555 1_555
H39A C60A 1_555 1_555
C66A C63A 1_555 1_555
H40A C63A 1_555 1_555
C67A C64A 1_555 1_555
H41A C64A 1_555 1_555
C50A C52A 1_555 1_555
H34A C52A 1_555 1_555
C51A C53A 1_555 1_555
H35A C53A 1_555 1_555
C65A C62A 1_555 1_555
C70A C66A 1_555 1_555
H42A C66A 1_555 1_555
H43A C67A 1_555 1_555
C47A C50A 1_555 1_555
H32A C50A 1_555 1_555
H33A C51A 1_555 1_555
C68A C65A 1_555 1_555
C69A C65A 1_555 1_555
C73A C70A 1_555 1_555
C40A C47A 1_555 1_555
C71A C68A 1_555 1_555
H44A C68A 1_555 1_555
C72A C69A 1_555 1_555
H45A C69A 1_555 1_555
N2A C71 1_555 1_555
C74A C73A 1_555 1_555
C31A C40A 1_555 1_555
N2_2 C71A 1_555 1_555
H46A C71A 1_555 1_555
H47A C72A 1_555 1_555
Zn2A N2A 1_555 1_555
C75A C74A 1_555 1_555
C23A C31A 1_555 1_555
Zn2_2 N2_2 1_555 1_555
C76A C75A 1_555 1_555
C77A C75A 1_555 1_555
C19A C23A 1_555 1_555
C17A C23A 1_555 1_555
C78A C76A 1_555 1_555
C79A C76A 1_555 1_555
C80A C77A 1_555 1_555
C81A C77A 1_555 1_555
C15A C19A 1_555 1_555
C26A C19A 1_555 1_555
C22A C17A 1_555 1_555
C14A C17A 1_555 1_555
C82A C78A 1_555 1_555
C83A C78A 1_555 1_555
H48A C78A 1_555 1_555
C84A C79A 1_555 1_555
C85A C79A 1_555 1_555
C86A C80A 1_555 1_555
C87A C80A 1_555 1_555
H49A C80A 1_555 1_555
C88A C81A 1_555 1_555
C13A C15A 1_555 1_555
C18A C15A 1_555 1_555
C32A C26A 1_555 1_555
C34A C26A 1_555 1_555
H15A C26A 1_555 1_555
C27A C22A 1_555 1_555
C29A C22A 1_555 1_555
H14A C22A 1_555 1_555
C16A C14A 1_555 1_555
C89A C82A 1_555 1_555
C90A C82A 1_555 1_555
C91A C83A 1_555 1_555
C92A C83A 1_555 1_555
H50A C84A 1_555 1_555
C93A C85A 1_555 1_555
C94A C86A 1_555 1_555
C95A C86A 1_555 1_555
C96A C87A 1_555 1_555
C97A C87A 1_555 1_555
H51A C88A 1_555 1_555
C12A C13A 1_555 1_555
C24A C18A 1_555 1_555
C25A C18A 1_555 1_555
H13A C18A 1_555 1_555
C41A C32A 1_555 1_555
C43A C34A 1_555 1_555
C20A C27A 1_555 1_555
C36A C27A 1_555 1_555
C21A C29A 1_555 1_555
C38A C29A 1_555 1_555
H12A C16A 1_555 1_555
C98A C89A 1_555 1_555
C99A C90A 1_555 1_555
H52A C90A 1_555 1_555
C100A C91A 1_555 1_555
C101A C92A 1_555 1_555
H53A C92A 1_555 1_555
C102A C93A 1_555 1_555
C103A C94A 1_555 1_555
C104A C95A 1_555 1_555
H54A C95A 1_555 1_555
C105A C96A 1_555 1_555
C106A C97A 1_555 1_555
H55A C97A 1_555 1_555
C11A C12A 1_555 1_555
C33A C24A 1_555 1_555
C35A C25A 1_555 1_555
C48A C41A 1_555 1_555
H24A C41A 1_555 1_555
C49A C43A 1_555 1_555
H26A C43A 1_555 1_555
C28A C20A 1_555 1_555
C45A C36A 1_555 1_555
H20A C36A 1_555 1_555
C30A C21A 1_555 1_555
C46A C38A 1_555 1_555
H22A C38A 1_555 1_555
C107A C98A 1_555 1_555
H56A C98A 1_555 1_555
H57A C99A 1_555 1_555
C108A C100A 1_555 1_555
H58A C100A 1_555 1_555
H59A C101A 1_555 1_555
C109A C102A 1_555 1_555
C110A C103A 1_555 1_555
H60A C103A 1_555 1_555
H61A C104A 1_555 1_555
C111A C105A 1_555 1_555
H62A C105A 1_555 1_555
H63A C106A 1_555 1_555
C8A C11A 1_555 1_555
C42A C33A 1_555 1_555
H18A C33A 1_555 1_555
C44A C35A 1_555 1_555
H19A C35A 1_555 1_555
H30A C48A 1_555 1_555
H31A C49A 1_555 1_555
C37A C28A 1_555 1_555
H16A C28A 1_555 1_555
H28A C45A 1_555 1_555
C39A C30A 1_555 1_555
H17A C30A 1_555 1_555
H29A C46A 1_555 1_555
H64A C107A 1_555 1_555
H65A C108A 1_555 1_555
C112A C109A 1_555 1_555
C113A C109A 1_555 1_555
H66A C110A 1_555 1_555
H67A C111A 1_555 1_555
C6A C8A 1_555 1_555
C7A C8A 1_555 1_555
H25A C42A 1_555 1_555
H27A C44A 1_555 1_555
H21A C37A 1_555 1_555
H23A C39A 1_555 1_555
C114A C112A 1_555 1_555
H68A C112A 1_555 1_555
C115A C113A 1_555 1_555
H69A C113A 1_555 1_555
C3A C6A 1_555 1_555
H4A C6A 1_555 1_555
C4A C7A 1_555 1_555
H5A C7A 1_555 1_555
C116A C114A 1_555 1_555
H70A C114A 1_555 1_555
H71A C115A 1_555 1_555
C2A C3A 1_555 1_555
H1A C3A 1_555 1_555
H2A C4A 1_555 1_555
C117A C116A 1_555 1_555
C1A C2A 1_555 1_555
O3_2 C117 1_555 1_555
O6_2 C117 1_555 1_555
O3A_2 C117A 1_555 1_555
O6A C117A 1_555 1_555
O4A C1A 1_555 1_555
O1A_2 C1A 1_555 1_555
Zn1_2 O3_2 1_555 1_555
Zn2_3 O6_2 1_555 1_555
Zn1_3 O3A_2 1_555 1_555
Zn2A_2 O6A 1_555 1_555
Zn2A_3 O4A 1_555 1_555
Zn1_4 O1A_2 1_555 1_555
O5A Zn2A_3 1_555 1_555
O2A_2 Zn2A_3 1_555 1_555
N2A_2 Zn2A_3 1_555 1_555
O6A_2 Zn2A_3 1_555 1_555
C5A O5A 1_555 1_555
N1A O2A_2 1_555 1_555
N3A C5A 1_555 1_555
H3A C5A 1_555 1_555
O7A N1A 1_555 1_555
O8A N1A 1_555 1_555
C9A N3A 1_555 1_555
C10A N3A 1_555 1_555
H6A C9A 1_555 1_555
H7A C9A 1_555 1_555
H8A C9A 1_555 1_555
H9A C10A 1_555 1_555
H10A C10A 1_555 1_555
H11A C10A 1_555 1_555
Zn2 O4 1_555 1_555
C19 C23 1_555 1_555
C22 C27 1_555 1_555
C22 C29 1_555 1_555
C26 C32 1_555 1_555
C26 C34 1_555 1_555
C37 C45 1_555 1_555
C39 C46 1_555 1_555
C42 C48 1_555 1_555
C44 C49 1_555 1_555
C53 C54 1_555 1_555
C60 C62 1_555 1_555
C67 C70 1_555 1_555
C72 N2A 1_555 1_555
C81 C85 1_555 1_555
C84 C89 1_555 1_555
C84 C91 1_555 1_555
C88 C94 1_555 1_555
C88 C96 1_555 1_555
C99 C107 1_555 1_555
C101 C108 1_555 1_555
C104 C110 1_555 1_555
C106 C111 1_555 1_555
C115 C116 1_555 1_555
Zn3A O12A 1_555 1_555
O9A C55A 1_555 1_555
O11A C58A 1_555 1_555
C60A C62A 1_555 1_555
C67A C70A 1_555 1_555
C51A C47A 1_555 1_555
C72A N2_2 1_555 1_555
C81A C85A 1_555 1_555
C14A C13A 1_555 1_555
C84A C89A 1_555 1_555
C84A C91A 1_555 1_555
C88A C94A 1_555 1_555
C88A C96A 1_555 1_555
C32A C24A 1_555 1_555
C34A C25A 1_555 1_555
C16A C20A 1_555 1_555
C16A C21A 1_555 1_555
C99A C107A 1_555 1_555
C101A C108A 1_555 1_555
C104A C110A 1_555 1_555
C106A C111A 1_555 1_555
C48A C42A 1_555 1_555
C49A C44A 1_555 1_555
C45A C37A 1_555 1_555
C46A C39A 1_555 1_555
C115A C116A 1_555 1_555
C4A C2A 1_555 1_555
Zn1_4 O2A_2 1_555 1_555

#END
