
#######################################################################
#
#                 Cambridge Crystallographic Data Centre
#                                CCDC 
#
#######################################################################
#
# If this CIF has been generated from an entry in the Cambridge 
# Structural Database, then it will include bibliographic, chemical, 
# crystal, experimental, refinement or atomic coordinate data resulting 
# from the CCDC's data processing and validation procedures.
#
#######################################################################

data_QUSCEN
_symmetry_cell_setting           tetragonal
_symmetry_space_group_name_H-M   'I -4 2 d'
_symmetry_Int_Tables_number      122
_space_group_name_Hall           'I -4 2bw'
loop_
_symmetry_equiv_pos_site_id
_symmetry_equiv_pos_as_xyz
1 x,y,z
2 -x,-y,z
3 y,-x,-z
4 -y,x,-z
5 1/2-x,y,3/4-z
6 1/2+x,-y,3/4-z
7 1/2-y,-x,3/4+z
8 1/2+y,x,3/4+z
9 1/2+x,1/2+y,1/2+z
10 1/2-x,1/2-y,1/2+z
11 1/2+y,1/2-x,1/2-z
12 1/2-y,1/2+x,1/2-z
13 -x,1/2+y,1/4-z
14 x,1/2-y,1/4-z
15 -y,1/2-x,1/4+z
16 y,1/2+x,1/4+z
_cell_length_a                   23.3033(8)
_cell_length_b                   23.3033(8)
_cell_length_c                   6.5788(4)
_cell_angle_alpha                90
_cell_angle_beta                 90
_cell_angle_gamma                90
_cell_volume                     3572.58
loop_
_atom_site_label
_atom_site_type_symbol
_atom_site_fract_x
_atom_site_fract_y
_atom_site_fract_z
Cd1 Cd 0.0000 -0.5000 0.7500
O1 O -0.03725(14) -0.45566(13) 0.4545(8)
O2 O -0.07442(16) -0.42430(15) 0.7323(17)
O3 O -0.19148(18) -0.2500 0.1250
C1 C -0.07083(17) -0.42190(17) 0.5472(8)
C2 C -0.10212(17) -0.37746(15) 0.4276(6)
C3 C -0.1457(2) -0.3468(2) 0.5236(9)
H1 H -0.1554 -0.3553 0.6573
C4 C -0.1745(2) -0.3038(2) 0.4223(10)
H2 H -0.2034 -0.2834 0.4878
C5 C -0.16070(15) -0.29133(17) 0.2275(8)
C6 C -0.1191(2) -0.3244(2) 0.1259(7)
H3 H -0.1113 -0.3177 -0.0108
C7 C -0.09011(18) -0.36611(18) 0.2281(6)
H4 H -0.0619 -0.3871 0.1616
Li1 Li 0.0000 -0.5000 0.2500
Cd1F Cd 0.0000 0.0000 -0.5000
Cd1F_2 Cd 0.0000 -1.0000 -0.5000
O1M O -0.03725(14) -0.04434(13) -0.2045(8)
O1A O 0.03725(14) -0.54434(13) 0.4545(8)
O1L O 0.03725(14) -0.95566(13) -0.2045(8)
O1J O 0.04434(13) -0.46275(14) 1.0455(8)
O1K O -0.04434(13) -0.53725(14) 1.0455(8)
O1K_2 O -0.04434(13) -0.53725(14) 0.0455(8)
O1J_2 O 0.04434(13) -0.46275(14) 0.0455(8)
O2M O -0.07442(16) -0.07570(15) -0.4823(17)
O2A O 0.07442(16) -0.57570(15) 0.7323(17)
O2L O 0.07442(16) -0.92430(15) -0.4823(17)
O2J O 0.07570(15) -0.42558(16) 0.7677(17)
O2K O -0.07570(15) -0.57442(16) 0.7677(17)
O3A O 0.19148(18) -0.7500 0.1250
C1M C -0.07083(17) -0.07810(17) -0.2972(8)
C1A C 0.07083(17) -0.57810(17) 0.5472(8)
C1L C 0.07083(17) -0.92190(17) -0.2972(8)
C2M C -0.10212(17) -0.12254(15) -0.1776(6)
C2A C 0.10212(17) -0.62254(15) 0.4276(6)
C2L C 0.10212(17) -0.87746(15) -0.1776(6)
C3M C -0.1457(2) -0.1532(2) -0.2736(9)
C3A C 0.1457(2) -0.6532(2) 0.5236(9)
C3L C 0.1457(2) -0.8468(2) -0.2736(9)
H1M H -0.1554 -0.1447 -0.4073
H1A H 0.1554 -0.6447 0.6573
H1L H 0.1554 -0.8553 -0.4073
C4M C -0.1745(2) -0.1962(2) -0.1723(10)
C4A C 0.1745(2) -0.6962(2) 0.4223(10)
C4L C 0.1745(2) -0.8038(2) -0.1723(10)
H2M H -0.2034 -0.2166 -0.2378
H2A H 0.2034 -0.7166 0.4878
H2L H 0.2034 -0.7834 -0.2378
C5M C -0.16070(15) -0.20867(17) 0.0225(8)
C5A C 0.16070(15) -0.70867(17) 0.2275(8)
C5L C 0.16070(15) -0.79133(17) 0.0225(8)
C6M C -0.1191(2) -0.1756(2) 0.1241(7)
C6A C 0.1191(2) -0.6756(2) 0.1259(7)
C6L C 0.1191(2) -0.8244(2) 0.1241(7)
H3M H -0.1113 -0.1823 0.2608
H3A H 0.1113 -0.6823 -0.0108
H3L H 0.1113 -0.8177 0.2608
C7M C -0.09011(18) -0.13389(18) 0.0219(6)
C7A C 0.09011(18) -0.63389(18) 0.2281(6)
C7L C 0.09011(18) -0.86611(18) 0.0219(6)
H4M H -0.0619 -0.1129 0.0884
H4A H 0.0619 -0.6129 0.1616
H4L H 0.0619 -0.8871 0.0884
Li1F Li 0.0000 0.0000 0.0000
Li1F_2 Li 0.0000 -1.0000 0.0000
N1 N -0.0292(4) 0.2500 0.6250
C8 C -0.0055(17) 0.2933(14) 0.785(12)
H5 H 0.0193 0.3204 0.7192
H6 H 0.0156 0.2728 0.8872
H7 H -0.0370 0.3133 0.8475
C8M C -0.0055(17) 0.2067(14) 0.465(12)
H5M H 0.0193 0.1796 0.5308
H6M H 0.0156 0.2272 0.3628
H7M H -0.0370 0.1867 0.4025
C9? C -0.071(3) 0.2068(19) 0.723(11)
H8? H -0.0838 0.1797 0.6218
H9? H -0.1041 0.2270 0.7749
H10? H -0.0526 0.1868 0.8313
loop_
_geom_bond_atom_site_label_1
_geom_bond_atom_site_label_2
_geom_bond_site_symmetry_1
_geom_bond_site_symmetry_2
Cd1 O1 1_555 1_555
O1 C1 1_555 1_555
O2 Cd1 1_555 1_555
O3 C5 1_555 1_555
N1 C8 1_555 1_555
C1 O2 1_555 1_555
C2 C1 1_555 1_555
C3 C2 1_555 1_555
H1 C3 1_555 1_555
C4 C3 1_555 1_555
H2 C4 1_555 1_555
C5 C4 1_555 1_555
C6 C5 1_555 1_555
H3 C6 1_555 1_555
C7 C2 1_555 1_555
H4 C7 1_555 1_555
C8 H5 1_555 1_555
H6 C8 1_555 1_555
H7 C8 1_555 1_555
Li1 O1 1_555 1_555
Cd1F O1M 1_555 1_555
Cd1F_2 O1L 1_555 1_555
O1M C1M 1_555 1_555
O1A Cd1 1_555 1_555
O1L C1L 1_555 1_555
O1J Cd1 1_555 1_555
O1K Cd1 1_555 1_555
O1K_2 Li1 1_555 1_555
O1J_2 Li1 1_555 1_555
O2M Cd1F 1_555 1_555
O2A Cd1 1_555 1_555
O2L Cd1F_2 1_555 1_555
O2J Cd1 1_555 1_555
O2K Cd1 1_555 1_555
O3A C5A 1_555 1_555
C1M O2M 1_555 1_555
C1A O1A 1_555 1_555
C1L O2L 1_555 1_555
C2M C1M 1_555 1_555
C2A C1A 1_555 1_555
C2L C1L 1_555 1_555
C3M C2M 1_555 1_555
C3A C2A 1_555 1_555
C3L C2L 1_555 1_555
H1M C3M 1_555 1_555
H1A C3A 1_555 1_555
H1L C3L 1_555 1_555
C4M C3M 1_555 1_555
C4A C3A 1_555 1_555
C4L C3L 1_555 1_555
H2M C4M 1_555 1_555
H2A C4A 1_555 1_555
H2L C4L 1_555 1_555
C5M O3 1_555 1_555
C5A C4A 1_555 1_555
C5L O3A 1_555 1_555
C6M C5M 1_555 1_555
C6A C5A 1_555 1_555
C6L C5L 1_555 1_555
H3M C6M 1_555 1_555
H3A C6A 1_555 1_555
H3L C6L 1_555 1_555
C7M C2M 1_555 1_555
C7A C2A 1_555 1_555
C7L C2L 1_555 1_555
H4M C7M 1_555 1_555
H4A C7A 1_555 1_555
H4L C7L 1_555 1_555
C8M N1 1_555 1_555
H5M C8M 1_555 1_555
H6M C8M 1_555 1_555
H7M C8M 1_555 1_555
Li1F O1M 1_555 1_555
Li1F_2 O1L 1_555 1_555
C6 C7 1_555 1_555
Li1 O1A 1_555 1_555
O2A C1A 1_555 1_555
C4M C5M 1_555 1_555
C4L C5L 1_555 1_555
C6M C7M 1_555 1_555
C6A C7A 1_555 1_555
C6L C7L 1_555 1_555

#END
