
#######################################################################
#
#                 Cambridge Crystallographic Data Centre
#                                CCDC 
#
#######################################################################
#
# If this CIF has been generated from an entry in the Cambridge 
# Structural Database, then it will include bibliographic, chemical, 
# crystal, experimental, refinement or atomic coordinate data resulting 
# from the CCDC's data processing and validation procedures.
#
#######################################################################

data_QUTTII
_symmetry_cell_setting           monoclinic
_symmetry_space_group_name_H-M   'P 21/n'
_symmetry_Int_Tables_number      14
_space_group_name_Hall           '-P 2yn'
loop_
_symmetry_equiv_pos_site_id
_symmetry_equiv_pos_as_xyz
1 x,y,z
2 1/2-x,1/2+y,1/2-z
3 -x,-y,-z
4 1/2+x,1/2-y,1/2+z
_cell_length_a                   7.452(4)
_cell_length_b                   16.472(6)
_cell_length_c                   14.586(5)
_cell_angle_alpha                90
_cell_angle_beta                 95.46(4)
_cell_angle_gamma                90
_cell_volume                     1782.3
loop_
_atom_site_label
_atom_site_type_symbol
_atom_site_fract_x
_atom_site_fract_y
_atom_site_fract_z
Co1 Co 0.5000 0.5000 0.5000
Co2 Co -0.2090(2) 0.51353(7) 0.32389(10)
Co3 Co -0.18871(14) 0.62784(7) 0.52749(9)
O1 O 0.0378(8) 0.6565(4) 0.4606(5)
O2 O -0.0142(8) 0.6033(3) 0.3202(5)
O3 O 0.6263(8) 0.6824(4) 0.4380(5)
O4 O 0.3971(7) 0.5944(3) 0.4179(5)
O5 O 0.4797(7) 0.9173(3) 0.1368(5)
O6 O 0.5671(8) 0.9531(3) 0.2768(5)
O7 O -0.0939(8) 0.9242(4) 0.2115(5)
O8 O 0.1003(7) 0.9157(3) 0.1036(4)
O9 O 0.2420(7) 0.4828(3) 0.5407(4)
H1 H 0.1630(7) 0.5241(3) 0.5098(4)
O10 O -0.1560(10) 0.7534(4) 0.5782(6)
H2 H -0.0881(10) 0.8025(4) 0.5569(6)
H3 H -0.2442(10) 0.7682(4) 0.6043(6)
O11 O -0.3703(8) 0.5883(4) 0.2381(5)
H4 H -0.4861(8) 0.5666(4) 0.2194(5)
H5 H -0.4668(8) 0.6098(4) 0.2687(5)
C1 C 0.1673(11) 0.7195(5) 0.3368(7)
C2 C 0.3533(11) 0.7244(5) 0.3542(7)
C3 C 0.4439(11) 0.7899(5) 0.3167(7)
H6 H 0.5679(11) 0.7949(5) 0.3304(7)
C4 C 0.3526(10) 0.8473(5) 0.2598(6)
C5 C 0.1645(11) 0.8413(5) 0.2440(7)
C6 C 0.0745(11) 0.7779(5) 0.2837(7)
H7 H -0.0505(11) 0.7750(5) 0.2741(7)
C7 C 0.0563(11) 0.6534(5) 0.3742(7)
C8 C 0.4679(11) 0.6628(6) 0.4084(7)
C9 C 0.4695(11) 0.9113(5) 0.2215(7)
C10 C 0.0486(11) 0.8981(5) 0.1832(7)
O1B O 0.9622(8) 0.3435(4) 0.5394(5)
O2B O 1.0142(8) 0.3967(3) 0.6798(5)
O3B O 0.3737(8) 0.3176(4) 0.5620(5)
O4B O 0.6029(7) 0.4056(3) 0.5821(5)
O5B O 0.5203(7) 0.0827(3) 0.8632(5)
O6B O 0.4329(8) 0.0469(3) 0.7232(5)
O7B O 1.0939(8) 0.0758(4) 0.7885(5)
O8B O 0.8997(7) 0.0843(3) 0.8964(4)
C1B C 0.8327(11) 0.2805(5) 0.6632(7)
C2B C 0.6467(11) 0.2756(5) 0.6458(7)
C3B C 0.5561(11) 0.2101(5) 0.6833(7)
H6B H 0.4321(11) 0.2051(5) 0.6696(7)
C4B C 0.6474(10) 0.1527(5) 0.7402(6)
C5B C 0.8355(11) 0.1587(5) 0.7560(7)
C6B C 0.9255(11) 0.2221(5) 0.7163(7)
H7B H 1.0505(11) 0.2250(5) 0.7259(7)
C7B C 0.9437(11) 0.3466(5) 0.6258(7)
C8B C 0.5321(11) 0.3372(6) 0.5916(7)
C9B C 0.5305(11) 0.0887(5) 0.7785(7)
C10B C 0.9514(11) 0.1019(5) 0.8168(7)
O9B O 0.7580(7) 0.5172(3) 0.4593(4)
H1B H 0.8370(7) 0.4759(3) 0.4902(4)
Co2B Co 1.2090(2) 0.48647(7) 0.67611(10)
Co3B Co 1.18871(14) 0.37216(7) 0.47251(9)
O11B O 1.3703(8) 0.4117(4) 0.7619(5)
H4B H 1.4861(8) 0.4334(4) 0.7806(5)
H5B H 1.4668(8) 0.3902(4) 0.7313(5)
O10B O 1.1560(10) 0.2466(4) 0.4218(6)
H2B H 1.0881(10) 0.1975(4) 0.4431(6)
H3B H 1.2442(10) 0.2318(4) 0.3957(6)
O8C O 0.6003(7) 0.5843(3) 0.6036(4)
O8A O 0.3997(7) 0.4157(3) 0.3964(4)
O5A O 0.0203(7) 0.4173(3) 0.3632(5)
O6A O -0.0671(8) 0.4531(3) 0.2232(5)
O7A O -0.4061(8) 0.4242(4) 0.2885(5)
O9B_2 O -0.2420(7) 0.5172(3) 0.4593(4)
O3_2 O -0.3737(8) 0.6824(4) 0.4380(5)
O5C O -0.0203(7) 0.5827(3) 0.6368(5)
O8C_2 O -0.3997(7) 0.5843(3) 0.6036(4)
Co3_2 Co 0.81129(14) 0.62784(7) 0.52749(9)
Co2A Co 0.7090(2) 1.01353(7) 0.17611(10)
Co3C Co 0.31129(14) 0.87216(7) 0.02749(9)
Co2A_2 Co -0.2910(2) 1.01353(7) 0.17611(10)
Co1C Co 0.0000 1.0000 0.0000
Co2B_2 Co 0.2090(2) 0.48647(7) 0.67611(10)
Co3B_2 Co 0.18871(14) 0.37216(7) 0.47251(9)
Co2C Co 0.2910(2) -0.01353(7) 0.82389(10)
Co3A Co 0.68871(14) 0.12784(7) 0.97251(9)
Co2C_2 Co 1.2910(2) -0.01353(7) 0.82389(10)
Co1C_2 Co 1.0000 0.0000 1.0000
Co2_2 Co 0.7910(2) 0.51353(7) 0.32389(10)
O5C_2 O 0.9797(7) 0.5827(3) 0.6368(5)
O6C O 1.0671(8) 0.5469(3) 0.7768(5)
O7C O 1.4061(8) 0.5758(4) 0.7115(5)
O9_2 O 1.2420(7) 0.4828(3) 0.5407(4)
O3B_2 O 1.3737(8) 0.3176(4) 0.5620(5)
O5A_2 O 1.0203(7) 0.4173(3) 0.3632(5)
O8A_2 O 1.3997(7) 0.4157(3) 0.3964(4)
H1B_2 H -0.1630(7) 0.4759(3) 0.4902(4)
H1_2 H 1.1630(7) 0.5241(3) 0.5098(4)
O12 O 0.7586(12) 0.9266(6) 0.6868(8)
O13 O 0.1431(19) 1.0983(7) 0.5670(8)
O14 O 0.2203(15) 0.7688(8) 0.6237(11)
O15 O 0.7760(23) 1.0460(10) 0.5393(12)
O16 O 0.4993(28) 0.8478(12) 0.5555(17)
loop_
_geom_bond_atom_site_label_1
_geom_bond_atom_site_label_2
_geom_bond_site_symmetry_1
_geom_bond_site_symmetry_2
Co1 O4 1_555 1_555
Co2 O2 1_555 1_555
Co3 O1 1_555 1_555
O1 C7 1_555 1_555
O2 C7 1_555 1_555
O3 C8 1_555 1_555
O4 C8 1_555 1_555
O5 C9 1_555 1_555
O6 C9 1_555 1_555
O7 C10 1_555 1_555
O8 C10 1_555 1_555
O9 Co1 1_555 1_555
H1 O9 1_555 1_555
O10 Co3 1_555 1_555
H2 O10 1_555 1_555
H3 O10 1_555 1_555
O11 Co2 1_555 1_555
H4 O11 1_555 1_555
H5 O11 1_555 1_555
C1 C2 1_555 1_555
C2 C3 1_555 1_555
C3 H6 1_555 1_555
C4 C3 1_555 1_555
C5 C4 1_555 1_555
C6 C1 1_555 1_555
H7 C6 1_555 1_555
C7 C1 1_555 1_555
C8 C2 1_555 1_555
C9 C4 1_555 1_555
C10 C5 1_555 1_555
O1B C7B 1_555 1_555
O2B C7B 1_555 1_555
O3B C8B 1_555 1_555
O4B Co1 1_555 1_555
O5B C9B 1_555 1_555
O6B C9B 1_555 1_555
O7B C10B 1_555 1_555
O8B C10B 1_555 1_555
C1B C2B 1_555 1_555
C2B C3B 1_555 1_555
C3B H6B 1_555 1_555
C4B C3B 1_555 1_555
C5B C4B 1_555 1_555
C6B C1B 1_555 1_555
H7B C6B 1_555 1_555
C7B C1B 1_555 1_555
C8B O4B 1_555 1_555
C9B C4B 1_555 1_555
C10B C5B 1_555 1_555
O9B Co1 1_555 1_555
H1B O9B 1_555 1_555
Co2B O2B 1_555 1_555
Co3B O1B 1_555 1_555
O11B Co2B 1_555 1_555
H4B O11B 1_555 1_555
H5B O11B 1_555 1_555
O10B Co3B 1_555 1_555
H2B O10B 1_555 1_555
H3B O10B 1_555 1_555
O8C Co1 1_555 1_555
O8A Co1 1_555 1_555
O5A Co2 1_555 1_555
O6A Co2 1_555 1_555
O7A Co2 1_555 1_555
O9B_2 Co2 1_555 1_555
O3_2 Co3 1_555 1_555
O5C Co3 1_555 1_555
O8C_2 Co3 1_555 1_555
Co3_2 O3 1_555 1_555
Co2A O5 1_555 1_555
Co3C O5 1_555 1_555
Co2A_2 O7 1_555 1_555
Co1C O8 1_555 1_555
Co2B_2 O9 1_555 1_555
Co3B_2 O9 1_555 1_555
Co2C O5B 1_555 1_555
Co3A O5B 1_555 1_555
Co2C_2 O7B 1_555 1_555
Co1C_2 O8B 1_555 1_555
Co2_2 O9B 1_555 1_555
O5C_2 Co2B 1_555 1_555
O6C Co2B 1_555 1_555
O7C Co2B 1_555 1_555
O9_2 Co2B 1_555 1_555
O3B_2 Co3B 1_555 1_555
O5A_2 Co3B 1_555 1_555
O8A_2 Co3B 1_555 1_555
H1B_2 O9B_2 1_555 1_555
H1_2 O9_2 1_555 1_555
Co3 O9B_2 1_555 1_555
O6 Co2A 1_555 1_555
O8 Co3C 1_555 1_555
C5 C6 1_555 1_555
O3B Co3B_2 1_555 1_555
O6B Co2C 1_555 1_555
O8B Co3A 1_555 1_555
C2B C8B 1_555 1_555
C5B C6B 1_555 1_555
O9B Co3_2 1_555 1_555
Co3B O9_2 1_555 1_555
O8C Co3_2 1_555 1_555
O8A Co3B_2 1_555 1_555
O5A Co3B_2 1_555 1_555
O5C Co2B_2 1_555 1_555
Co3_2 O5C_2 1_555 1_555
Co2_2 O5A_2 1_555 1_555

#END
