
#######################################################################
#
#                 Cambridge Crystallographic Data Centre
#                                CCDC 
#
#######################################################################
#
# If this CIF has been generated from an entry in the Cambridge 
# Structural Database, then it will include bibliographic, chemical, 
# crystal, experimental, refinement or atomic coordinate data resulting 
# from the CCDC's data processing and validation procedures.
#
#######################################################################

data_RABNOX
_symmetry_cell_setting           monoclinic
_symmetry_space_group_name_H-M   'P 2/c'
_symmetry_Int_Tables_number      13
_space_group_name_Hall           '-P 2yc'
loop_
_symmetry_equiv_pos_site_id
_symmetry_equiv_pos_as_xyz
1 x,y,z
2 -x,y,1/2-z
3 -x,-y,-z
4 x,-y,1/2+z
_cell_length_a                   13.5895(22)
_cell_length_b                   8.8351(9)
_cell_length_c                   9.2294(10)
_cell_angle_alpha                90
_cell_angle_beta                 100.79
_cell_angle_gamma                90
_cell_volume                     1088.53
loop_
_atom_site_label
_atom_site_type_symbol
_atom_site_fract_x
_atom_site_fract_y
_atom_site_fract_z
P1 P 0.1294(14) 0.1174(18) 0.4295(17)
O1 O 0.1537(18) 0.1527(20) 0.2769(16)
O2 O 0.0660(15) 0.4400(15) 0.1698(25)
O3 O 0.0652(19) 0.3485(21) -0.1331(20)
O4 O 0.1517(18) -0.0517(13) 0.4789(21)
O5 O 0.0209(12) 0.1488(23) 0.4384(32)
C1 C 0.1943(24) 0.2540(24) 0.5564(27)
F1 F 0.2509(12) 0.3339(24) 0.0814(30)
P2 P 0.0000 0.5423(22) 0.2500
C2 C 0.2238(14) 0.211(4) 0.7170(24)
N1 N 0.3347(13) 0.1658(30) 0.7232(22)
C3 C 0.3491(11) 0.0064(29) 0.7177(20)
C4 C 0.4003(8) -0.0519(22) 0.6169(13)
C5 C 0.4552(10) 0.0271(17) 0.5340(17)
C6 C 0.4266(22) 0.1830(19) 0.5291(23)
C7 C 0.3966(19) 0.2463(25) 0.6549(26)
Zr1 Zr 0.1099(10) 0.2533(12) 0.0705(12)
O2A O -0.0660(15) 0.4400(15) 0.3302(25)
Zr1A Zr -0.1099(10) 0.2533(12) 0.4295(12)
O1A O -0.1537(18) 0.1527(20) 0.2231(16)
P1C P 0.1294(14) -0.1174(18) -0.0705(17)
O4C O 0.1517(18) 0.0517(13) -0.0211(21)
P2B P 0.0000 0.4577(22) -0.2500
Zr1B Zr -0.1099(10) 0.7467(12) -0.0705(12)
O3B O -0.0652(19) 0.6515(21) 0.1331(20)
O3C O 0.0652(19) 0.6515(21) 0.3669(20)
Zr1C Zr 0.1099(10) 0.7467(12) 0.5705(12)
O3A O -0.0652(19) 0.3485(21) 0.6331(20)
O4B O -0.1517(18) 0.0517(13) 0.5211(21)
C5B C 0.5448(10) -0.0271(17) 0.4660(17)
C4B C 0.5997(8) 0.0519(22) 0.3831(13)
C3B C 0.6509(11) -0.0064(29) 0.2823(20)
N1B N 0.6653(13) -0.1658(30) 0.2768(22)
C2B C 0.7762(14) -0.211(4) 0.2830(24)
C1B C 0.8057(24) -0.2540(24) 0.4436(27)
P1B P 0.8706(14) -0.1174(18) 0.5705(17)
O1B O 0.8463(18) -0.1527(20) 0.7231(16)
Zr1B_2 Zr 0.8901(10) -0.2533(12) 0.9295(12)
O4B_2 O 0.8483(18) 0.0517(13) 0.5211(21)
O5B O 0.9791(12) -0.1488(23) 0.5616(32)
C7B C 0.6034(19) -0.2463(25) 0.3451(26)
C6B C 0.5734(22) -0.1830(19) 0.4709(23)
F1A F -0.2509(12) 0.3339(24) 0.4186(30)
O5A O -0.0209(12) 0.1488(23) 0.0616(32)
Zr1C_2 Zr 0.1099(10) -0.2533(12) 0.5705(12)
O6 O 0.4101(19) 0.3478(24) 0.9527(32)
O7 O 0.300(4) 0.5088(32) 0.789(4)
F2 F 0.5000 0.303(4) 0.2500
loop_
_geom_bond_atom_site_label_1
_geom_bond_atom_site_label_2
_geom_bond_site_symmetry_1
_geom_bond_site_symmetry_2
P1 O1 1_555 1_555
O1 Zr1 1_555 1_555
O2 P2 1_555 1_555
O3 Zr1 1_555 1_555
O4 P1 1_555 1_555
O5 P1 1_555 1_555
C1 P1 1_555 1_555
F1 Zr1 1_555 1_555
P2 O2A 1_555 1_555
C2 C1 1_555 1_555
N1 C2 1_555 1_555
C3 N1 1_555 1_555
C4 C3 1_555 1_555
C5 C4 1_555 1_555
C6 C5 1_555 1_555
C7 N1 1_555 1_555
Zr1 O2 1_555 1_555
O2A Zr1A 1_555 1_555
Zr1A O5 1_555 1_555
O1A Zr1A 1_555 1_555
P1C O4C 1_555 1_555
O4C Zr1 1_555 1_555
P2B O3 1_555 1_555
Zr1B O3B 1_555 1_555
O3B P2 1_555 1_555
O3C P2 1_555 1_555
Zr1C O3C 1_555 1_555
O3A Zr1A 1_555 1_555
O4B Zr1A 1_555 1_555
C5B C5 1_555 1_555
C4B C5B 1_555 1_555
C3B C4B 1_555 1_555
N1B C3B 1_555 1_555
C2B N1B 1_555 1_555
C1B C2B 1_555 1_555
P1B C1B 1_555 1_555
O1B P1B 1_555 1_555
Zr1B_2 O1B 1_555 1_555
O4B_2 P1B 1_555 1_555
O5B P1B 1_555 1_555
C7B N1B 1_555 1_555
C6B C5B 1_555 1_555
F1A Zr1A 1_555 1_555
O5A Zr1 1_555 1_555
Zr1C_2 O4 1_555 1_555
C6 C7 1_555 1_555
C7B C6B 1_555 1_555

#END
