
#######################################################################
#
#                 Cambridge Crystallographic Data Centre
#                                CCDC 
#
#######################################################################
#
# If this CIF has been generated from an entry in the Cambridge 
# Structural Database, then it will include bibliographic, chemical, 
# crystal, experimental, refinement or atomic coordinate data resulting 
# from the CCDC's data processing and validation procedures.
#
#######################################################################

data_RATCUL02
_symmetry_cell_setting           monoclinic
_symmetry_space_group_name_H-M   'P 21/c'
_symmetry_Int_Tables_number      14
_space_group_name_Hall           '-P 2ybc'
loop_
_symmetry_equiv_pos_site_id
_symmetry_equiv_pos_as_xyz
1 x,y,z
2 -x,1/2+y,1/2-z
3 -x,-y,-z
4 x,1/2-y,1/2+z
_cell_length_a                   11.4694(2)
_cell_length_b                   9.9777(2)
_cell_length_c                   18.3901(4)
_cell_angle_alpha                90
_cell_angle_beta                 127.390(2)
_cell_angle_gamma                90
_cell_volume                     1672.09
loop_
_atom_site_label
_atom_site_type_symbol
_atom_site_fract_x
_atom_site_fract_y
_atom_site_fract_z
Fe1 Fe 0.37787(3) 0.07723(3) 0.13292(2)
Fe2 Fe 0.42831(3) 0.11209(3) -0.31169(2)
Fe3 Fe 0.5000 0.0000 0.0000
Fe4 Fe 0.0000 0.0000 0.0000
O1 O 0.44255(17) 0.19775(15) 0.24755(9)
O2 O 0.55434(18) 0.06027(16) 0.36855(10)
O3 O 0.59116(17) -0.00842(15) 0.21862(10)
O4 O 0.68170(18) 0.00022(18) 0.14077(11)
O5 O 0.45485(17) 0.25551(15) 0.10728(10)
O6 O 0.48061(19) 0.20835(16) -0.00136(11)
O7 O 0.34587(16) -0.08476(15) 0.19637(10)
O8 O 0.10502(18) -0.10584(17) 0.12381(11)
O9 O 0.33612(17) -0.02719(16) 0.02206(10)
O10 O 0.11310(18) -0.10947(17) -0.03684(11)
O11 O 0.16396(16) 0.15532(16) 0.06141(10)
O12 O 0.20283(17) 0.37546(16) 0.09176(11)
C1 C 0.5037(3) 0.1705(2) 0.33135(15)
C2 C 0.6929(3) -0.0171(3) 0.21095(17)
C3 C 0.4708(3) 0.2869(2) 0.04675(16)
C4 C 0.2342(3) -0.1316(3) 0.18657(16)
C5 C 0.2234(3) -0.1021(3) -0.03281(16)
C6 C 0.1220(3) 0.2769(2) 0.05147(16)
H1 H 0.513(2) 0.247(2) 0.3681(14)
H2 H 0.788(3) -0.034(2) 0.2651(17)
H3 H 0.479(3) 0.386(3) 0.0420(18)
H4 H 0.256(3) -0.201(3) 0.2340(16)
H5 H 0.227(3) -0.151(2) -0.0751(17)
H6 H 0.015(3) 0.296(2) 0.0080(15)
Fe1B Fe 0.62213(3) -0.07723(3) -0.13292(2)
Fe1B_2 Fe -0.37787(3) -0.07723(3) -0.13292(2)
Fe1A Fe 0.62213(3) 0.57723(3) 0.36708(2)
Fe2B Fe 0.57169(3) -0.11209(3) 0.31169(2)
Fe2C Fe 0.42831(3) 0.38791(3) 0.18831(2)
Fe2A Fe 0.57169(3) -0.38791(3) -0.18831(2)
Fe2A_2 Fe -0.42831(3) -0.38791(3) -0.18831(2)
Fe2B_2 Fe 0.57169(3) 0.88791(3) 0.31169(2)
Fe3C Fe 0.5000 0.5000 0.5000
Fe4_2 Fe 1.0000 0.0000 0.0000
O1B O 0.55745(17) -0.19775(15) -0.24755(9)
O1C O 0.44255(17) 0.30225(15) -0.25245(9)
O1A O 0.55745(17) 0.69775(15) 0.25245(9)
O2B O 0.44566(18) -0.06027(16) -0.36855(10)
O2A O 0.44566(18) 0.56027(16) 0.13145(10)
O3B O 0.40884(17) 0.00842(15) -0.21862(10)
O3A O 0.40884(17) 0.49158(15) 0.28138(10)
O4B O 0.31830(18) -0.00022(18) -0.14077(11)
O4A O 0.31830(18) 0.50022(18) 0.35923(11)
O5B O 0.54515(17) -0.25551(15) -0.10728(10)
O5C O 0.45485(17) 0.24449(15) -0.39272(10)
O6B O 0.51939(19) -0.20835(16) 0.00136(11)
O7B O 0.65413(16) 0.08476(15) -0.19637(10)
O7A O 0.65413(16) 0.41524(15) 0.30363(10)
O8B O -0.10502(18) 0.10584(17) -0.12381(11)
O9B O 0.66388(17) 0.02719(16) -0.02206(10)
O10B O 0.88690(18) 0.10947(17) 0.03684(11)
O10B_2 O -0.11310(18) 0.10947(17) 0.03684(11)
O11B O -0.16396(16) -0.15532(16) -0.06141(10)
O11B_2 O 0.83604(16) -0.15532(16) -0.06141(10)
O12C O 0.20283(17) 0.12454(16) -0.40824(11)
O12B O -0.20283(17) -0.37546(16) -0.09176(11)
C1A C 0.4963(3) 0.6705(2) 0.16865(15)
C2B C 0.3071(3) 0.0171(3) -0.21095(17)
C2A C 0.3071(3) 0.4829(3) 0.28905(17)
C3B C 0.5292(3) -0.2869(2) -0.04675(16)
C5B C 0.7766(3) 0.1021(3) 0.03281(16)
C6B C -0.1220(3) -0.2769(2) -0.05147(16)
H1A H 0.487(2) 0.747(2) 0.1319(14)
H2B H 0.212(3) 0.034(2) -0.2651(17)
H2A H 0.212(3) 0.466(2) 0.2349(17)
H3B H 0.521(3) -0.386(3) -0.0420(18)
H5B H 0.773(3) 0.151(2) 0.0751(17)
H6B H -0.015(3) -0.296(2) -0.0080(15)
loop_
_geom_bond_atom_site_label_1
_geom_bond_atom_site_label_2
_geom_bond_site_symmetry_1
_geom_bond_site_symmetry_2
Fe1 O1 1_555 1_555
Fe2 O1C 1_555 1_555
Fe3 O4 1_555 1_555
Fe4 O8 1_555 1_555
O1 C1 1_555 1_555
O2 C1 1_555 1_555
O3 Fe1 1_555 1_555
O4 C2 1_555 1_555
O5 Fe1 1_555 1_555
O6 Fe3 1_555 1_555
O7 Fe1 1_555 1_555
O8 C4 1_555 1_555
O9 Fe1 1_555 1_555
O10 Fe4 1_555 1_555
O11 Fe1 1_555 1_555
O12 C6 1_555 1_555
C1 H1 1_555 1_555
C2 O3 1_555 1_555
C3 O5 1_555 1_555
C4 O7 1_555 1_555
C5 O9 1_555 1_555
C6 O11 1_555 1_555
H2 C2 1_555 1_555
H3 C3 1_555 1_555
H4 C4 1_555 1_555
H5 C5 1_555 1_555
H6 C6 1_555 1_555
Fe1B O1B 1_555 1_555
Fe1B_2 O11B 1_555 1_555
Fe1A O1A 1_555 1_555
Fe2B O2 1_555 1_555
Fe2C O1 1_555 1_555
Fe2A O1B 1_555 1_555
Fe2A_2 O12B 1_555 1_555
Fe2B_2 O1A 1_555 1_555
Fe3C O4A 1_555 1_555
Fe4_2 O10B 1_555 1_555
O1A C1A 1_555 1_555
O2B Fe2 1_555 1_555
O2A Fe2C 1_555 1_555
O3B Fe2 1_555 1_555
O3A Fe1A 1_555 1_555
O4B Fe3 1_555 1_555
O4A C2A 1_555 1_555
O5B Fe1B 1_555 1_555
O5C Fe2 1_555 1_555
O6B Fe3 1_555 1_555
O7B Fe2 1_555 1_555
O7A Fe1A 1_555 1_555
O8B Fe4 1_555 1_555
O9B Fe3 1_555 1_555
O10B C5B 1_555 1_555
O10B_2 Fe4 1_555 1_555
O11B Fe4 1_555 1_555
O11B_2 Fe1B 1_555 1_555
O12C Fe2 1_555 1_555
O12B C6B 1_555 1_555
C1A O2A 1_555 1_555
C2B O3B 1_555 1_555
C2A O3A 1_555 1_555
C3B O5B 1_555 1_555
C5B O9B 1_555 1_555
C6B O11B 1_555 1_555
H1A C1A 1_555 1_555
H2B C2B 1_555 1_555
H2A C2A 1_555 1_555
H3B C3B 1_555 1_555
H5B C5B 1_555 1_555
H6B C6B 1_555 1_555
Fe3 O9 1_555 1_555
Fe4 O11 1_555 1_555
O3 Fe2B 1_555 1_555
O5 Fe2C 1_555 1_555
O6 C3 1_555 1_555
O7 Fe2B 1_555 1_555
O10 C5 1_555 1_555
O12 Fe2C 1_555 1_555
Fe1B O3B 1_555 1_555
Fe1B O7B 1_555 1_555
Fe1B O9B 1_555 1_555
Fe2C O3A 1_555 1_555
Fe2C O7A 1_555 1_555
Fe2A O5B 1_555 1_555
Fe4_2 O11B_2 1_555 1_555
O4B C2B 1_555 1_555
O6B C3B 1_555 1_555

#END
