
#######################################################################
#
#                 Cambridge Crystallographic Data Centre
#                                CCDC 
#
#######################################################################
#
# If this CIF has been generated from an entry in the Cambridge 
# Structural Database, then it will include bibliographic, chemical, 
# crystal, experimental, refinement or atomic coordinate data resulting 
# from the CCDC's data processing and validation procedures.
#
#######################################################################

data_RAVVOA01
_symmetry_cell_setting           monoclinic
_symmetry_space_group_name_H-M   'P 21/c'
_symmetry_Int_Tables_number      14
_space_group_name_Hall           '-P 2ybc'
loop_
_symmetry_equiv_pos_site_id
_symmetry_equiv_pos_as_xyz
1 x,y,z
2 -x,1/2+y,1/2-z
3 -x,-y,-z
4 x,1/2-y,1/2+z
_cell_length_a                   11.2858(4)
_cell_length_b                   9.8690(4)
_cell_length_c                   18.1797(6)
_cell_angle_alpha                90
_cell_angle_beta                 127.193(2)
_cell_angle_gamma                90
_cell_volume                     1613
loop_
_atom_site_label
_atom_site_type_symbol
_atom_site_fract_x
_atom_site_fract_y
_atom_site_fract_z
Co1 Co 0.37780(5) 0.07788(4) 0.13315(3)
Co2 Co 0.43018(5) 0.11228(4) -0.31021(3)
Co3 Co 0.5000 0.0000 0.0000
Co4 Co 0.0000 0.0000 0.0000
O1 O 0.4371(2) 0.19830(19) 0.24532(13)
O2 O 0.5507(3) 0.0577(2) 0.36741(14)
O3 O 0.5892(3) -0.0068(2) 0.21842(14)
O4 O 0.6813(3) 0.0047(2) 0.13954(15)
O5 O 0.4551(3) 0.25505(19) 0.10878(14)
O6 O 0.4794(3) 0.2082(2) -0.00224(15)
O7 O 0.3451(3) -0.0845(2) 0.19484(14)
O8 O 0.1007(3) -0.1057(2) 0.12313(16)
O9 O 0.3390(3) -0.0275(2) 0.02360(14)
O10 O 0.1152(3) -0.1147(2) -0.03321(15)
O11 O 0.1642(2) 0.1533(2) 0.06063(13)
O12 O 0.2052(3) 0.3761(2) 0.09180(15)
C1 C 0.4993(4) 0.1707(3) 0.3299(2)
C2 C 0.6931(4) -0.0145(3) 0.2111(2)
C3 C 0.4693(4) 0.2873(3) 0.0471(2)
C4 C 0.2310(4) -0.1303(3) 0.1858(2)
C5 C 0.2254(4) -0.1061(3) -0.0298(2)
C6 C 0.1218(4) 0.2775(3) 0.0504(2)
H1 H 0.511(3) 0.255(3) 0.3701(17)
H2 H 0.784(4) -0.038(3) 0.264(2)
H3 H 0.475(4) 0.386(3) 0.038(2)
H4 H 0.256(4) -0.200(3) 0.235(2)
H5 H 0.234(4) -0.156(3) -0.068(2)
H6 H 0.013(4) 0.299(3) 0.005(2)
Co1B Co 0.62220(5) -0.07788(4) -0.13315(3)
Co1B_2 Co -0.37780(5) -0.07788(4) -0.13315(3)
Co1A Co 0.62220(5) 0.57788(4) 0.36685(3)
Co2B Co 0.56982(5) -0.11228(4) 0.31021(3)
Co2C Co 0.43018(5) 0.38772(4) 0.18979(3)
Co2A Co 0.56982(5) -0.38772(4) -0.18979(3)
Co2A_2 Co -0.43018(5) -0.38772(4) -0.18979(3)
Co2B_2 Co 0.56982(5) 0.88772(4) 0.31021(3)
Co3C Co 0.5000 0.5000 0.5000
Co4_2 Co 1.0000 0.0000 0.0000
O1B O 0.5629(2) -0.19830(19) -0.24532(13)
O1C O 0.4371(2) 0.30170(19) -0.25468(13)
O1A O 0.5629(2) 0.69830(19) 0.25468(13)
O2B O 0.4493(3) -0.0577(2) -0.36741(14)
O2A O 0.4493(3) 0.5577(2) 0.13259(14)
O3B O 0.4108(3) 0.0068(2) -0.21842(14)
O3A O 0.4108(3) 0.4932(2) 0.28158(14)
O4B O 0.3187(3) -0.0047(2) -0.13954(15)
O4A O 0.3187(3) 0.5047(2) 0.36046(15)
O5B O 0.5449(3) -0.25505(19) -0.10878(14)
O5C O 0.4551(3) 0.24495(19) -0.39122(14)
O6B O 0.5206(3) -0.2082(2) 0.00224(15)
O7B O 0.6549(3) 0.0845(2) -0.19484(14)
O7A O 0.6549(3) 0.4155(2) 0.30516(14)
O8B O -0.1007(3) 0.1057(2) -0.12313(16)
O9B O 0.6610(3) 0.0275(2) -0.02360(14)
O10B O 0.8848(3) 0.1147(2) 0.03321(15)
O10B_2 O -0.1152(3) 0.1147(2) 0.03321(15)
O11B O -0.1642(2) -0.1533(2) -0.06063(13)
O11B_2 O 0.8358(2) -0.1533(2) -0.06063(13)
O12C O 0.2052(3) 0.1239(2) -0.40820(15)
O12B O -0.2052(3) -0.3761(2) -0.09180(15)
C1A C 0.5007(4) 0.6707(3) 0.1701(2)
C2B C 0.3069(4) 0.0145(3) -0.2111(2)
C2A C 0.3069(4) 0.4855(3) 0.2889(2)
C3B C 0.5307(4) -0.2873(3) -0.0471(2)
C5B C 0.7746(4) 0.1061(3) 0.0298(2)
C6B C -0.1218(4) -0.2775(3) -0.0504(2)
H1A H 0.489(3) 0.755(3) 0.1299(17)
H2B H 0.216(4) 0.038(3) -0.264(2)
H2A H 0.216(4) 0.462(3) 0.236(2)
H3B H 0.525(4) -0.386(3) -0.038(2)
H5B H 0.766(4) 0.156(3) 0.068(2)
H6B H -0.013(4) -0.299(3) -0.005(2)
loop_
_geom_bond_atom_site_label_1
_geom_bond_atom_site_label_2
_geom_bond_site_symmetry_1
_geom_bond_site_symmetry_2
Co1 O1 1_555 1_555
Co2 O1C 1_555 1_555
Co3 O4 1_555 1_555
Co4 O8 1_555 1_555
O1 C1 1_555 1_555
O2 C1 1_555 1_555
O3 Co1 1_555 1_555
O4 C2 1_555 1_555
O5 Co1 1_555 1_555
O6 Co3 1_555 1_555
O7 Co1 1_555 1_555
O8 C4 1_555 1_555
O9 Co1 1_555 1_555
O10 Co4 1_555 1_555
O11 Co1 1_555 1_555
O12 C6 1_555 1_555
C1 H1 1_555 1_555
C2 O3 1_555 1_555
C3 O5 1_555 1_555
C4 O7 1_555 1_555
C5 O9 1_555 1_555
C6 O11 1_555 1_555
H2 C2 1_555 1_555
H3 C3 1_555 1_555
H4 C4 1_555 1_555
H5 C5 1_555 1_555
H6 C6 1_555 1_555
Co1B O1B 1_555 1_555
Co1B_2 O11B 1_555 1_555
Co1A O1A 1_555 1_555
Co2B O2 1_555 1_555
Co2C O1 1_555 1_555
Co2A O1B 1_555 1_555
Co2A_2 O12B 1_555 1_555
Co2B_2 O1A 1_555 1_555
Co3C O4A 1_555 1_555
Co4_2 O10B 1_555 1_555
O1A C1A 1_555 1_555
O2B Co2 1_555 1_555
O2A Co2C 1_555 1_555
O3B Co2 1_555 1_555
O3A Co1A 1_555 1_555
O4B Co3 1_555 1_555
O4A C2A 1_555 1_555
O5B Co1B 1_555 1_555
O5C Co2 1_555 1_555
O6B Co3 1_555 1_555
O7B Co2 1_555 1_555
O7A Co1A 1_555 1_555
O8B Co4 1_555 1_555
O9B Co3 1_555 1_555
O10B C5B 1_555 1_555
O10B_2 Co4 1_555 1_555
O11B Co4 1_555 1_555
O11B_2 Co1B 1_555 1_555
O12C Co2 1_555 1_555
O12B C6B 1_555 1_555
C1A O2A 1_555 1_555
C2B O3B 1_555 1_555
C2A O3A 1_555 1_555
C3B O5B 1_555 1_555
C5B O9B 1_555 1_555
C6B O11B 1_555 1_555
H1A C1A 1_555 1_555
H2B C2B 1_555 1_555
H2A C2A 1_555 1_555
H3B C3B 1_555 1_555
H5B C5B 1_555 1_555
H6B C6B 1_555 1_555
Co3 O9 1_555 1_555
Co4 O11 1_555 1_555
O3 Co2B 1_555 1_555
O5 Co2C 1_555 1_555
O6 C3 1_555 1_555
O7 Co2B 1_555 1_555
O10 C5 1_555 1_555
O12 Co2C 1_555 1_555
Co1B O3B 1_555 1_555
Co1B O7B 1_555 1_555
Co1B O9B 1_555 1_555
Co2C O3A 1_555 1_555
Co2C O7A 1_555 1_555
Co2A O5B 1_555 1_555
Co4_2 O11B_2 1_555 1_555
O4B C2B 1_555 1_555
O6B C3B 1_555 1_555

#END
