
#######################################################################
#
#                 Cambridge Crystallographic Data Centre
#                                CCDC 
#
#######################################################################
#
# If this CIF has been generated from an entry in the Cambridge 
# Structural Database, then it will include bibliographic, chemical, 
# crystal, experimental, refinement or atomic coordinate data resulting 
# from the CCDC's data processing and validation procedures.
#
#######################################################################

data_RAXQEO
_symmetry_cell_setting           monoclinic
_symmetry_space_group_name_H-M   'P 21/n'
_symmetry_Int_Tables_number      14
_space_group_name_Hall           '-P 2yn'
loop_
_symmetry_equiv_pos_site_id
_symmetry_equiv_pos_as_xyz
1 x,y,z
2 1/2-x,1/2+y,1/2-z
3 -x,-y,-z
4 1/2+x,1/2-y,1/2+z
_cell_length_a                   11.5359(9)
_cell_length_b                   15.0948(12)
_cell_length_c                   22.6817(19)
_cell_angle_alpha                90
_cell_angle_beta                 91.4830(10)
_cell_angle_gamma                90
_cell_volume                     3948.29
loop_
_atom_site_label
_atom_site_type_symbol
_atom_site_fract_x
_atom_site_fract_y
_atom_site_fract_z
Cu1 Cu -0.1159(2) 0.7214(2) 0.72786(14)
C1 C 0.057(3) 0.628(3) 0.8100(19)
H1 H 0.0415 0.6625 0.8430
C2 C 0.057(3) 0.584(3) 0.726(2)
H2 H 0.0421 0.5758 0.6857
C3 C 0.209(3) 0.459(3) 0.7393(19)
H3 H 0.2344 0.4687 0.6995
H4 H 0.2776 0.4582 0.7649
C4 C 0.160(3) 0.377(3) 0.7413(18)
H5 H 0.1160 0.3688 0.7768
H6 H 0.2180 0.3303 0.7392
C5 C 0.084(3) 0.377(3) 0.6890(18)
H7 H 0.0116 0.4051 0.6987
H8 H 0.1200 0.4125 0.6588
C6 C 0.059(3) 0.288(3) 0.6643(18)
H9 H 0.1299 0.2577 0.6540
H10 H 0.0182 0.2515 0.6925
C7 C -0.016(3) 0.305(3) 0.6102(18)
H11 H 0.0291 0.3251 0.5775
H12 H -0.0764 0.3479 0.6180
C8 C -0.070(3) 0.210(3) 0.5976(18)
H13 H -0.0061 0.1689 0.5925
H14 H -0.1131 0.2127 0.5605
C9 C -0.281(3) 0.875(2) 0.7303(13)
H15 H -0.2595 0.8882 0.7690
C10 C -0.296(2) 0.815(2) 0.6521(12)
H16 H -0.2876 0.7750 0.6211
C11 C -0.446(3) 0.906(2) 0.5989(12)
H17 H -0.5078 0.9420 0.6135
H18 H -0.4801 0.8531 0.5810
C12 C -0.383(3) 0.955(2) 0.5537(12)
H19 H -0.3147 0.9215 0.5439
H20 H -0.3563 1.0104 0.5714
C13 C -0.451(2) 0.979(2) 0.4937(12)
H21 H -0.4030 1.0166 0.4696
H22 H -0.4681 0.9252 0.4718
C14 C 0.161(4) 0.937(3) 0.599(2)
H23 H 0.1571 0.9786 0.6311
H24 H 0.2428 0.9250 0.5936
C15 C 0.126(3) 0.985(3) 0.548(2)
H25 H 0.1341 1.0480 0.5570
H26 H 0.1785 0.9719 0.5168
C16 C 0.007(4) 0.971(3) 0.5250(19)
H27 H -0.0490 0.9852 0.5547
H28 H -0.0037 0.9097 0.5132
N1 N 0.007(3) 0.639(2) 0.7539(16)
N2 N 0.137(3) 0.535(2) 0.7563(17)
N3 N 0.130(3) 0.562(2) 0.8087(16)
N4 N -0.149(2) 0.1717(18) 0.6440(10)
N5 N -0.1214(19) 0.1057(16) 0.6793(11)
C17 C -0.196(2) 0.1044(17) 0.7220(11)
H29 H -0.1962 0.0643 0.7531
N6 N -0.269(2) 0.1695(18) 0.7131(11)
C18 C -0.240(2) 0.2111(16) 0.6650(12)
H30 H -0.2781 0.2600 0.6485
N7 N -0.236(2) 0.8072(16) 0.7005(10)
N8 N -0.369(2) 0.8789(16) 0.6484(10)
N9 N -0.362(2) 0.9221(16) 0.6996(10)
N10 N -0.012(2) 0.7671(19) 0.6658(12)
C19 C 0.057(2) 0.837(2) 0.6724(12)
H31 H 0.0681 0.8701 0.7066
N11 N 0.109(2) 0.8504(18) 0.6215(13)
N12 N 0.072(2) 0.789(2) 0.5834(11)
C20 C -0.004(2) 0.7377(18) 0.6108(13)
H32 H -0.0430 0.6896 0.5944
Cu1A Cu -0.3841(2) 1.2214(2) 0.77214(14)
Cu1A_2 Cu -0.3841(2) 0.2214(2) 0.77214(14)
Cu1B Cu -0.8841(2) 1.2786(2) 0.27214(14)
Cu1B_2 Cu 0.1159(2) 1.2786(2) 0.27214(14)
C1A C -0.557(3) 1.128(3) 0.6900(19)
H1A H -0.5415 1.1625 0.6570
C2A C -0.557(3) 1.084(3) 0.774(2)
H2A H -0.5421 1.0758 0.8143
C3A C -0.709(3) 0.959(3) 0.7607(19)
H3A H -0.7344 0.9687 0.8005
H4A H -0.7776 0.9582 0.7351
C4A C -0.660(3) 0.877(3) 0.7587(18)
H5A H -0.6160 0.8688 0.7232
H6A H -0.7180 0.8303 0.7608
C5A C -0.584(3) 0.877(3) 0.8110(18)
H7A H -0.5116 0.9051 0.8013
H8A H -0.6200 0.9125 0.8412
C6A C -0.559(3) 0.788(3) 0.8357(18)
H9A H -0.6299 0.7577 0.8460
H10A H -0.5182 0.7515 0.8075
C7A C -0.484(3) 0.805(3) 0.8898(18)
H11A H -0.5291 0.8251 0.9225
H12A H -0.4236 0.8479 0.8820
C8A C -0.430(3) 0.710(3) 0.9024(18)
H13A H -0.4939 0.6689 0.9075
H14A H -0.3869 0.7127 0.9395
C9B C -0.719(3) 1.125(2) 0.2697(13)
H15B H -0.7405 1.1118 0.2310
C10B C -0.704(2) 1.185(2) 0.3479(12)
H16B H -0.7124 1.2250 0.3789
C11B C -0.554(3) 1.094(2) 0.4011(12)
H17B H -0.4922 1.0580 0.3865
H18B H -0.5199 1.1469 0.4190
C12B C -0.617(3) 1.045(2) 0.4463(12)
H19B H -0.6853 1.0785 0.4561
H20B H -0.6437 0.9896 0.4286
C13B C -0.549(2) 1.021(2) 0.5063(12)
H21B H -0.5970 0.9834 0.5304
H22B H -0.5319 1.0748 0.5282
C14B C -0.161(4) 1.063(3) 0.401(2)
H23B H -0.1571 1.0214 0.3689
H24B H -0.2428 1.0750 0.4064
C15B C -0.126(3) 1.015(3) 0.452(2)
H25B H -0.1341 0.9520 0.4430
H26B H -0.1785 1.0281 0.4832
C16B C -0.007(4) 1.029(3) 0.4750(19)
H27B H 0.0490 1.0148 0.4453
H28B H 0.0037 1.0903 0.4868
N1A N -0.507(3) 1.139(2) 0.7461(16)
N2A N -0.637(3) 1.035(2) 0.7437(17)
N3A N -0.630(3) 1.062(2) 0.6913(16)
N4A N -0.351(2) 0.6717(18) 0.8560(10)
N5A N -0.3786(19) 0.6057(16) 0.8207(11)
C17A C -0.304(2) 0.6044(17) 0.7780(11)
H29A H -0.3038 0.5643 0.7469
N6A N -0.231(2) 0.6695(18) 0.7869(11)
N6_2 N -0.269(2) 1.1695(18) 0.7131(11)
C18A C -0.260(2) 0.7111(16) 0.8350(12)
H30A H -0.2219 0.7600 0.8515
N7B N -0.764(2) 1.1928(16) 0.2995(10)
N7A N -0.264(2) 1.3072(16) 0.7995(10)
N8B N -0.631(2) 1.1211(16) 0.3516(10)
N9B N -0.638(2) 1.0779(16) 0.3004(10)
N10B N 0.012(2) 1.2329(19) 0.3342(12)
N10A N -0.488(2) 1.2671(19) 0.8342(12)
C19B C -0.057(2) 1.163(2) 0.3276(12)
H31B H -0.0681 1.1299 0.2934
N11B N -0.109(2) 1.1496(18) 0.3785(13)
N12B N -0.072(2) 1.211(2) 0.4166(11)
C20B C 0.004(2) 1.2623(18) 0.3892(13)
H32B H 0.0430 1.3104 0.4056
Si1 Si -0.5000 0.5000 0.5000
W1 W -0.79570(7) 0.53956(7) 0.52962(5)
W2 W -0.28318(7) 0.56304(6) 0.60412(5)
W3 W -0.38655(9) 0.28438(6) 0.50738(6)
W4 W -0.47972(9) 0.39094(8) 0.63749(5)
W5 W -0.68596(8) 0.32032(7) 0.53010(5)
W6 W -0.58022(9) 0.61301(7) 0.62943(5)
O2 O -0.467(2) 0.5137(19) 0.5650(12)
O3 O -0.5155(19) 0.4022(16) 0.5390(13)
O4 O -0.5920(19) 0.5662(15) 0.5330(11)
O5 O -0.6133(18) 0.3400(14) 0.6057(9)
O6 O -0.7326(18) 0.5724(14) 0.6041(9)
O7 O -0.4135(18) 0.2958(14) 0.4238(9)
O8 O -0.1845(16) 0.5965(12) 0.6547(9)
O9 O -0.7525(18) 0.6510(14) 0.4981(11)
O10 O -0.5594(18) 0.4933(14) 0.6571(10)
O11 O -0.5509(18) 0.2651(14) 0.5076(9)
O12 O -0.7810(18) 0.4210(14) 0.5483(9)
O13 O -0.3938(17) 0.3127(14) 0.5860(11)
O14 O -0.9332(14) 0.5569(15) 0.5440(9)
O15 O -0.7741(17) 0.2353(11) 0.5433(9)
O16 O -0.6142(17) 0.6600(13) 0.6918(9)
O17 O -0.4639(15) 0.3386(13) 0.7014(9)
O18 O -0.2745(18) 0.6595(14) 0.5507(9)
O19 O -0.3358(14) 0.1813(10) 0.5143(9)
O20 O -0.3403(17) 0.4605(14) 0.6392(11)
O21 O -0.8031(17) 0.5025(14) 0.4482(11)
O22 O -0.4189(18) 0.6233(14) 0.6316(9)
W1B W -0.20430(7) 0.46044(7) 0.47038(5)
W2B W -0.71682(7) 0.43696(6) 0.39588(5)
W3B W -0.61345(9) 0.71562(6) 0.49262(6)
W4B W -0.52028(9) 0.60906(8) 0.36251(5)
W5B W -0.31404(8) 0.67968(7) 0.46990(5)
W6B W -0.41978(9) 0.38699(7) 0.37057(5)
O2B O -0.533(2) 0.4863(19) 0.4350(12)
O3B O -0.4845(19) 0.5978(16) 0.4610(13)
O4B O -0.4080(19) 0.4338(15) 0.4670(11)
O5B O -0.3867(18) 0.6600(14) 0.3943(9)
O6B O -0.2674(18) 0.4276(14) 0.3959(9)
O7B O -0.5865(18) 0.7042(14) 0.5762(9)
O8B O -0.8155(16) 0.4035(12) 0.3453(9)
O9B O -0.2475(18) 0.3490(14) 0.5019(11)
O10B O -0.4406(18) 0.5067(14) 0.3429(10)
O11B O -0.4491(18) 0.7349(14) 0.4924(9)
O12B O -0.2190(18) 0.5790(14) 0.4517(9)
O13B O -0.6062(17) 0.6873(14) 0.4140(11)
O14B O -0.0668(14) 0.4431(15) 0.4560(9)
O15B O -0.2259(17) 0.7647(11) 0.4567(9)
O16B O -0.3858(17) 0.3400(13) 0.3082(9)
O17B O -0.5361(15) 0.6614(13) 0.2986(9)
O18B O -0.7255(18) 0.3405(14) 0.4493(9)
O19B O -0.6642(14) 0.8187(10) 0.4857(9)
O20B O -0.6597(17) 0.5395(14) 0.3608(11)
O21B O -0.1969(17) 0.4975(14) 0.5518(11)
O22B O -0.5811(18) 0.3767(14) 0.3684(9)
O1? O -0.372(2) 0.5364(16) 0.5127(13)
loop_
_geom_bond_atom_site_label_1
_geom_bond_atom_site_label_2
_geom_bond_site_symmetry_1
_geom_bond_site_symmetry_2
Si1 O2 1_555 1_555
W1 O4 1_555 1_555
W2 O2 1_555 1_555
W3 O3 1_555 1_555
W4 O2 1_555 1_555
W5 O3 1_555 1_555
W6 O2 1_555 1_555
O2 O4 1_555 1_555
O3 Si1 1_555 1_555
O4 Si1 1_555 1_555
O5 W4 1_555 1_555
O6 W1 1_555 1_555
O7 W3 1_555 1_555
O8 W2 1_555 1_555
O9 W1 1_555 1_555
O10 W4 1_555 1_555
O11 W3 1_555 1_555
O12 W1 1_555 1_555
O13 W3 1_555 1_555
O14 W1 1_555 1_555
O15 W5 1_555 1_555
O16 W6 1_555 1_555
O17 W4 1_555 1_555
O18 W2 1_555 1_555
O19 W3 1_555 1_555
O20 W2 1_555 1_555
O21 W1 1_555 1_555
O22 W2 1_555 1_555
Cu1 N1 1_555 1_555
C1 H1 1_555 1_555
C2 H2 1_555 1_555
C3 H3 1_555 1_555
H4 C3 1_555 1_555
C4 C3 1_555 1_555
H5 C4 1_555 1_555
H6 C4 1_555 1_555
C5 C4 1_555 1_555
H7 C5 1_555 1_555
H8 C5 1_555 1_555
C6 C5 1_555 1_555
H9 C6 1_555 1_555
H10 C6 1_555 1_555
C7 C6 1_555 1_555
H11 C7 1_555 1_555
H12 C7 1_555 1_555
C8 C7 1_555 1_555
H13 C8 1_555 1_555
H14 C8 1_555 1_555
C9 H15 1_555 1_555
C10 H16 1_555 1_555
C11 H17 1_555 1_555
H18 C11 1_555 1_555
C12 C11 1_555 1_555
H19 C12 1_555 1_555
H20 C12 1_555 1_555
C13 C12 1_555 1_555
H21 C13 1_555 1_555
H22 C13 1_555 1_555
C14 H23 1_555 1_555
H24 C14 1_555 1_555
C15 C14 1_555 1_555
H25 C15 1_555 1_555
H26 C15 1_555 1_555
C16 C15 1_555 1_555
H27 C16 1_555 1_555
H28 C16 1_555 1_555
N1 C1 1_555 1_555
N2 C2 1_555 1_555
N3 C1 1_555 1_555
N4 C8 1_555 1_555
N5 N4 1_555 1_555
C17 N5 1_555 1_555
H29 C17 1_555 1_555
N6 C17 1_555 1_555
C18 N4 1_555 1_555
H30 C18 1_555 1_555
N7 Cu1 1_555 1_555
N8 C10 1_555 1_555
N9 C9 1_555 1_555
N10 Cu1 1_555 1_555
C19 N10 1_555 1_555
H31 C19 1_555 1_555
N11 C14 1_555 1_555
N12 N11 1_555 1_555
C20 N10 1_555 1_555
H32 C20 1_555 1_555
W1B O4B 1_555 1_555
W2B O21 1_555 1_555
W3B O4 1_555 1_555
W4B O2B 1_555 1_555
W5B O18 1_555 1_555
W6B O7 1_555 1_555
O2B Si1 1_555 1_555
O3B Si1 1_555 1_555
O4B Si1 1_555 1_555
O5B W4B 1_555 1_555
O6B W1B 1_555 1_555
O7B W6 1_555 1_555
O8B W2B 1_555 1_555
O9B W3 1_555 1_555
O10B W4B 1_555 1_555
O11B W3B 1_555 1_555
O12B W1B 1_555 1_555
O13B W3B 1_555 1_555
O14B W1B 1_555 1_555
O15B W5B 1_555 1_555
O16B W6B 1_555 1_555
O17B W4B 1_555 1_555
O18B W5 1_555 1_555
O19B W3B 1_555 1_555
O20B W2B 1_555 1_555
O21B W2 1_555 1_555
O22B W2B 1_555 1_555
Cu1A N1A 1_555 1_555
Cu1A_2 N6 1_555 1_555
Cu1B N7B 1_555 1_555
Cu1B_2 N10B 1_555 1_555
C1A H1A 1_555 1_555
C2A H2A 1_555 1_555
C3A H3A 1_555 1_555
H4A C3A 1_555 1_555
C4A C3A 1_555 1_555
H5A C4A 1_555 1_555
H6A C4A 1_555 1_555
C5A C4A 1_555 1_555
H7A C5A 1_555 1_555
H8A C5A 1_555 1_555
C6A C5A 1_555 1_555
H9A C6A 1_555 1_555
H10A C6A 1_555 1_555
C7A C6A 1_555 1_555
H11A C7A 1_555 1_555
H12A C7A 1_555 1_555
C8A C7A 1_555 1_555
H13A C8A 1_555 1_555
H14A C8A 1_555 1_555
C9B H15B 1_555 1_555
C10B H16B 1_555 1_555
C11B H17B 1_555 1_555
H18B C11B 1_555 1_555
C12B C11B 1_555 1_555
H19B C12B 1_555 1_555
H20B C12B 1_555 1_555
C13B C13 1_555 1_555
H21B C13B 1_555 1_555
H22B C13B 1_555 1_555
C14B H23B 1_555 1_555
H24B C14B 1_555 1_555
C15B C14B 1_555 1_555
H25B C15B 1_555 1_555
H26B C15B 1_555 1_555
C16B C16 1_555 1_555
H27B C16B 1_555 1_555
H28B C16B 1_555 1_555
N1A C1A 1_555 1_555
N2A C2A 1_555 1_555
N3A C1A 1_555 1_555
N4A C8A 1_555 1_555
N5A N4A 1_555 1_555
C17A N5A 1_555 1_555
H29A C17A 1_555 1_555
N6A Cu1 1_555 1_555
N6_2 Cu1A 1_555 1_555
C18A N4A 1_555 1_555
H30A C18A 1_555 1_555
N7B C9B 1_555 1_555
N7A Cu1A 1_555 1_555
N8B C10B 1_555 1_555
N9B C9B 1_555 1_555
N10B C19B 1_555 1_555
N10A Cu1A 1_555 1_555
C19B H31B 1_555 1_555
N11B C14B 1_555 1_555
N12B N11B 1_555 1_555
C20B N10B 1_555 1_555
H32B C20B 1_555 1_555
W3 O4B 1_555 1_555
W4 O3 1_555 1_555
W4 O13 1_555 1_555
W4 O20 1_555 1_555
W5 O5 1_555 1_555
W5 O11 1_555 1_555
W5 O12 1_555 1_555
W6 O4 1_555 1_555
W6 O6 1_555 1_555
W6 O10 1_555 1_555
W6 O22 1_555 1_555
O9 W3B 1_555 1_555
C2 N1 1_555 1_555
C3 N2 1_555 1_555
C9 N7 1_555 1_555
C10 N7 1_555 1_555
C11 N8 1_555 1_555
N2 N3 1_555 1_555
N6 C18 1_555 1_555
N8 N9 1_555 1_555
C19 N11 1_555 1_555
N12 C20 1_555 1_555
W1B O9B 1_555 1_555
W1B O21B 1_555 1_555
W2B O2B 1_555 1_555
W2B O18B 1_555 1_555
W3B O3B 1_555 1_555
W3B O7B 1_555 1_555
W4B O3B 1_555 1_555
W4B O13B 1_555 1_555
W4B O20B 1_555 1_555
W5B O3B 1_555 1_555
W5B O5B 1_555 1_555
W5B O11B 1_555 1_555
W5B O12B 1_555 1_555
W6B O2B 1_555 1_555
W6B O4B 1_555 1_555
W6B O6B 1_555 1_555
W6B O10B 1_555 1_555
W6B O22B 1_555 1_555
O2B O4B 1_555 1_555
C2A N1A 1_555 1_555
C3A N2A 1_555 1_555
C10B N7B 1_555 1_555
C11B N8B 1_555 1_555
C12B C13B 1_555 1_555
C15B C16B 1_555 1_555
N2A N3A 1_555 1_555
C17A N6A 1_555 1_555
N6A C18A 1_555 1_555
N8B N9B 1_555 1_555
C19B N11B 1_555 1_555
N12B C20B 1_555 1_555

#END
