
#######################################################################
#
#                 Cambridge Crystallographic Data Centre
#                                CCDC 
#
#######################################################################
#
# If this CIF has been generated from an entry in the Cambridge 
# Structural Database, then it will include bibliographic, chemical, 
# crystal, experimental, refinement or atomic coordinate data resulting 
# from the CCDC's data processing and validation procedures.
#
#######################################################################

data_RAZGOQ
_symmetry_cell_setting           tetragonal
_symmetry_space_group_name_H-M   'I 41/a'
_symmetry_Int_Tables_number      88
_space_group_name_Hall           '-I 4ad'
loop_
_symmetry_equiv_pos_site_id
_symmetry_equiv_pos_as_xyz
1 x,y,z
2 3/4-y,1/4+x,1/4+z
3 1/2-x,-y,1/2+z
4 3/4+y,3/4-x,3/4+z
5 1/2+x,1/2+y,1/2+z
6 1/4-y,3/4+x,3/4+z
7 -x,1/2-y,z
8 1/4+y,1/4-x,1/4+z
9 -x,-y,-z
10 1/4+y,3/4-x,3/4-z
11 1/2+x,y,1/2-z
12 1/4-y,1/4+x,1/4-z
13 1/2-x,1/2-y,1/2-z
14 3/4+y,1/4-x,1/4-z
15 x,1/2+y,-z
16 3/4-y,3/4+x,3/4-z
_cell_length_a                   24.7563(5)
_cell_length_b                   24.7563(5)
_cell_length_c                   4.76110(10)
_cell_angle_alpha                90
_cell_angle_beta                 90
_cell_angle_gamma                90
_cell_volume                     2917.96
loop_
_atom_site_label
_atom_site_type_symbol
_atom_site_fract_x
_atom_site_fract_y
_atom_site_fract_z
Cu1 Cu 0.884222(12) 0.151566(12) 1.17884(7)
O1 O 0.90264(6) 0.03480(6) 1.1040(4)
O2 O 0.92787(6) 0.10230(6) 1.3875(4)
O3 O 0.96351(6) -0.12923(6) 1.3148(3)
O4 O 0.94837(6) -0.08696(6) 1.7243(4)
O5 O 0.81767(6) 0.11619(6) 1.3227(4)
O6 O 0.94641(6) 0.17672(7) 0.9604(4)
C1 C 0.92809(8) 0.05303(8) 1.3100(5)
C2 C 0.95906(8) 0.01550(8) 1.4984(5)
C3 C 0.98683(8) -0.03500(8) 1.3655(5)
C4 C 0.96492(8) -0.08825(8) 1.4720(5)
H1 H 0.9328 0.0042 1.6512
H2 H 0.9898 -0.0368 1.1616
H3 H 0.7879 0.1347 1.3223
H4 H 0.8200 0.0982 1.4658
H5 H 0.9729 0.1589 0.9195
H6 H 0.9313 0.1891 0.7961
Cu1H Cu 1.115778(12) -0.151566(12) 1.82116(7)
Cu1C Cu 0.901566(12) -0.134222(12) 0.92884(7)
Cu1C_2 Cu 0.901566(12) -0.134222(12) 1.92884(7)
Cu1K Cu 1.098434(12) 0.134222(12) 2.07116(7)
Cu1K_2 Cu 1.098434(12) 0.134222(12) 1.07116(7)
O1H O 1.09736(6) -0.03480(6) 1.8960(4)
O2H O 1.07213(6) -0.10230(6) 1.6125(4)
O3H O 1.03649(6) 0.12923(6) 1.6852(3)
O3A O 0.87923(6) 0.21351(6) 1.5648(3)
O3I O 1.12077(6) -0.21351(6) 1.4352(3)
O4H O 1.05163(6) 0.08696(6) 1.2757(4)
O4A O 0.83696(6) 0.19837(6) 0.9743(4)
O4I O 1.16304(6) -0.19837(6) 2.0257(4)
O5H O 1.18233(6) -0.11619(6) 1.6773(4)
O6H O 1.05359(6) -0.17672(7) 2.0396(4)
C1H C 1.07191(8) -0.05303(8) 1.6900(5)
C2H C 1.04094(8) -0.01550(8) 1.5016(5)
C3H C 1.01317(8) 0.03500(8) 1.6345(5)
C4H C 1.03508(8) 0.08825(8) 1.5280(5)
H1H H 1.0672 -0.0042 1.3488
H2H H 1.0102 0.0368 1.8384
H3H H 1.2121 -0.1347 1.6777
H4H H 1.1800 -0.0982 1.5342
H5H H 1.0271 -0.1589 2.0805
H6H H 1.0687 -0.1891 2.2039
O7 O 0.81015(7) 0.04373(7) 1.7567(4)
H7 H 0.8320 0.0478 1.8868
H8 H 0.7847 0.0484 1.8436
loop_
_geom_bond_atom_site_label_1
_geom_bond_atom_site_label_2
_geom_bond_site_symmetry_1
_geom_bond_site_symmetry_2
Cu1 O2 1_555 1_555
O1 C1 1_555 1_555
O2 C1 1_555 1_555
O3 C4 1_555 1_555
O4 C4 1_555 1_555
O5 Cu1 1_555 1_555
O6 Cu1 1_555 1_555
O7 H7 1_555 1_555
C1 C2 1_555 1_555
C2 C3 1_555 1_555
C3 C4 1_555 1_555
H1 C2 1_555 1_555
H2 C3 1_555 1_555
H3 O5 1_555 1_555
H4 O5 1_555 1_555
H5 O6 1_555 1_555
H6 O6 1_555 1_555
H8 O7 1_555 1_555
Cu1H O2H 1_555 1_555
Cu1C O3 1_555 1_555
Cu1C_2 O4 1_555 1_555
Cu1K O3H 1_555 1_555
Cu1K_2 O4H 1_555 1_555
O1H C1H 1_555 1_555
O2H C1H 1_555 1_555
O3H C4H 1_555 1_555
O3A Cu1 1_555 1_555
O3I Cu1H 1_555 1_555
O4H C4H 1_555 1_555
O4A Cu1 1_555 1_555
O4I Cu1H 1_555 1_555
O5H Cu1H 1_555 1_555
O6H Cu1H 1_555 1_555
C1H C2H 1_555 1_555
C2H C3 1_555 1_555
C3H C2 1_555 1_555
C4H C3H 1_555 1_555
H1H C2H 1_555 1_555
H2H C3H 1_555 1_555
H3H O5H 1_555 1_555
H4H O5H 1_555 1_555
H5H O6H 1_555 1_555
H6H O6H 1_555 1_555
C2H C3H 1_555 1_555

#END
