
#######################################################################
#
#                 Cambridge Crystallographic Data Centre
#                                CCDC 
#
#######################################################################
#
# If this CIF has been generated from an entry in the Cambridge 
# Structural Database, then it will include bibliographic, chemical, 
# crystal, experimental, refinement or atomic coordinate data resulting 
# from the CCDC's data processing and validation procedures.
#
#######################################################################

data_REJVOS
_symmetry_cell_setting           monoclinic
_symmetry_space_group_name_H-M   'P 21/n'
_symmetry_Int_Tables_number      14
_space_group_name_Hall           '-P 2yn'
loop_
_symmetry_equiv_pos_site_id
_symmetry_equiv_pos_as_xyz
1 x,y,z
2 1/2-x,1/2+y,1/2-z
3 -x,-y,-z
4 1/2+x,1/2-y,1/2+z
_cell_length_a                   11.3070(18)
_cell_length_b                   9.8568(15)
_cell_length_c                   14.729(3)
_cell_angle_alpha                90
_cell_angle_beta                 91.371(3)
_cell_angle_gamma                90
_cell_volume                     1641.09
loop_
_atom_site_label
_atom_site_type_symbol
_atom_site_fract_x
_atom_site_fract_y
_atom_site_fract_z
Mg1 Mg 0.25643(4) 0.42238(4) 0.63538(3)
Mg2 Mg 0.0000 0.5000 0.5000
Mg3 Mg 0.23962(4) 0.61430(4) 0.80733(3)
Mg4 Mg 0.5000 0.5000 0.5000
O1 O 0.13015(8) 0.51075(9) 0.71702(7)
O2 O -0.03874(9) 0.51116(11) 0.63522(7)
O3 O 0.15782(8) 0.24490(9) 0.61275(6)
O4 O 0.01602(9) 0.29304(10) 0.50924(7)
O5 O 0.40111(8) 0.34989(9) 0.56621(7)
O6 O 0.39508(9) 0.12974(10) 0.60465(7)
O7 O 0.30544(8) 0.30266(9) 0.74792(6)
O8 O 0.30662(9) 0.44481(10) 0.86649(7)
O9 O 0.18369(8) 0.52432(10) 0.52529(6)
O10 O 0.34933(9) 0.60166(10) 0.46318(7)
O11 O 0.35044(8) 0.58228(9) 0.69620(7)
O12 O 0.51437(9) 0.61362(11) 0.61663(7)
C1 C 0.01887(12) 0.52673(14) 0.70672(9)
H1 H -0.0227 0.5524 0.7576
C2 C 0.07405(12) 0.21269(13) 0.55670(9)
H2 H 0.0554 0.1211 0.5513
C3 C 0.43735(12) 0.22700(13) 0.56311(9)
H3 H 0.5012 0.2091 0.5263
C4 C 0.32302(12) 0.33222(13) 0.83154(9)
H4 H 0.3506 0.2632 0.8696
C5 C 0.24105(11) 0.59725(13) 0.46940(9)
H5 H 0.1968 0.6519 0.4299
C6 C 0.45121(12) 0.63634(14) 0.68196(9)
H6 H 0.4793 0.6985 0.7248
Mg1B Mg -0.25643(4) 0.57762(4) 0.36462(3)
Mg1A Mg 0.24357(4) 0.92238(4) 0.86462(3)
Mg1B_2 Mg 0.74357(4) 0.57762(4) 0.36462(3)
Mg3B Mg -0.23962(4) 0.38570(4) 0.19267(3)
Mg3A Mg 0.26038(4) 0.11430(4) 0.69267(3)
Mg3C Mg -0.26038(4) 0.88570(4) 0.30733(3)
Mg3A_2 Mg 0.26038(4) 1.11430(4) 0.69267(3)
Mg3B_2 Mg 0.76038(4) 0.38570(4) 0.19267(3)
Mg4_2 Mg -0.5000 0.5000 0.5000
Mg4C Mg 0.0000 1.0000 1.0000
O1B O -0.13015(8) 0.48925(9) 0.28298(7)
O2B O 0.03874(9) 0.48884(11) 0.36478(7)
O3B O -0.15782(8) 0.75510(9) 0.38725(6)
O3A O 0.34218(8) 0.74490(9) 0.88725(6)
O3C O -0.34218(8) 0.25510(9) 0.11275(6)
O4B O -0.01602(9) 0.70696(10) 0.49076(7)
O5A O 0.09889(8) 0.84989(9) 0.93379(7)
O5B O 0.59889(8) 0.65011(9) 0.43379(7)
O5B_2 O -0.40111(8) 0.65011(9) 0.43379(7)
O6A O 0.10492(9) 0.62974(10) 0.89535(7)
O6C O -0.10492(9) 0.37026(10) 0.10465(7)
O7A O 0.19456(8) 0.80266(9) 0.75208(6)
O7B O -0.30544(8) 0.69734(9) 0.25208(6)
O7C O -0.19456(8) 0.19734(9) 0.24792(6)
O8A O 0.19338(9) 0.94481(10) 0.63351(7)
O8B O -0.30662(9) 0.55519(10) 0.13351(7)
O9B O -0.18369(8) 0.47568(10) 0.47471(6)
O10B O -0.34933(9) 0.39834(10) 0.53682(7)
O10B_2 O 0.65067(9) 0.39834(10) 0.53682(7)
O11B O 0.64956(8) 0.41772(9) 0.30380(7)
O11B_2 O -0.35044(8) 0.41772(9) 0.30380(7)
O12B O 0.48563(9) 0.38638(11) 0.38337(7)
C1B C -0.01887(12) 0.47327(14) 0.29328(9)
H1B H 0.0227 0.4476 0.2424
C2B C -0.07405(12) 0.78731(13) 0.44330(9)
H2B H -0.0554 0.8789 0.4487
C3A C 0.06265(12) 0.72700(13) 0.93689(9)
H3A H -0.0012 0.7091 0.9737
C4A C 0.17698(12) 0.83222(13) 0.66846(9)
H4A H 0.1494 0.7632 0.6304
C5B C -0.24105(11) 0.40275(13) 0.53060(9)
H5B H -0.1968 0.3481 0.5701
C6B C 0.54879(12) 0.36366(14) 0.31804(9)
H6B H 0.5207 0.3015 0.2752
O13 O 0.38450(17) 0.4894(2) 0.16092(14)
C7 C 0.3807(2) 0.6177(2) 0.20590(16)
H7 H 0.4260 0.6848 0.1733
H8 H 0.4130 0.6104 0.2673
C8 C 0.2513(2) 0.6574(3) 0.20699(15)
H9 H 0.2416 0.7551 0.2087
H10 H 0.2117 0.6172 0.2581
C9 C 0.2061(2) 0.5985(2) 0.11738(15)
H11 H 0.1215 0.5820 0.1182
H12 H 0.2236 0.6578 0.0669
C10 C 0.2747(2) 0.4671(3) 0.11243(16)
H13 H 0.2310 0.3939 0.1401
H14 H 0.2890 0.4435 0.0497
loop_
_geom_bond_atom_site_label_1
_geom_bond_atom_site_label_2
_geom_bond_site_symmetry_1
_geom_bond_site_symmetry_2
Mg1 O1 1_555 1_555
Mg2 O2 1_555 1_555
Mg3 O1 1_555 1_555
Mg4 O5 1_555 1_555
O1 C1 1_555 1_555
O2 C1 1_555 1_555
O3 Mg1 1_555 1_555
O4 Mg2 1_555 1_555
O5 Mg1 1_555 1_555
O6 C3 1_555 1_555
O7 Mg1 1_555 1_555
O8 Mg3 1_555 1_555
O9 Mg1 1_555 1_555
O10 Mg4 1_555 1_555
O11 Mg1 1_555 1_555
O12 Mg4 1_555 1_555
C1 H1 1_555 1_555
C2 O3 1_555 1_555
H2 C2 1_555 1_555
C3 O5 1_555 1_555
H3 C3 1_555 1_555
C4 O7 1_555 1_555
H4 C4 1_555 1_555
C5 O9 1_555 1_555
H5 C5 1_555 1_555
C6 O11 1_555 1_555
H6 C6 1_555 1_555
O13 C7 1_555 1_555
C7 H7 1_555 1_555
H8 C7 1_555 1_555
C8 C7 1_555 1_555
H9 C8 1_555 1_555
H10 C8 1_555 1_555
C9 C8 1_555 1_555
H11 C9 1_555 1_555
H12 C9 1_555 1_555
C10 O13 1_555 1_555
H13 C10 1_555 1_555
H14 C10 1_555 1_555
Mg1B O1B 1_555 1_555
Mg1A O3A 1_555 1_555
Mg1B_2 O5B 1_555 1_555
Mg3B O1B 1_555 1_555
Mg3A O3 1_555 1_555
Mg3C O3B 1_555 1_555
Mg3A_2 O8A 1_555 1_555
Mg3B_2 O11B 1_555 1_555
Mg4_2 O5B_2 1_555 1_555
Mg4C O5A 1_555 1_555
O1B C1B 1_555 1_555
O2B Mg2 1_555 1_555
O3B Mg1B 1_555 1_555
O3A Mg3 1_555 1_555
O3C Mg3B 1_555 1_555
O4B Mg2 1_555 1_555
O5A Mg1A 1_555 1_555
O5B Mg4 1_555 1_555
O5B_2 Mg1B 1_555 1_555
O6A Mg3 1_555 1_555
O6C Mg3B 1_555 1_555
O7A Mg3 1_555 1_555
O7B Mg1B 1_555 1_555
O7C Mg3B 1_555 1_555
O8A C4A 1_555 1_555
O8B Mg3B 1_555 1_555
O9B Mg2 1_555 1_555
O10B Mg4_2 1_555 1_555
O10B_2 Mg4 1_555 1_555
O11B Mg1B_2 1_555 1_555
O11B_2 Mg1B 1_555 1_555
O12B Mg4 1_555 1_555
C1B O2B 1_555 1_555
H1B C1B 1_555 1_555
C2B O3B 1_555 1_555
H2B C2B 1_555 1_555
C3A O5A 1_555 1_555
H3A C3A 1_555 1_555
C4A O7A 1_555 1_555
H4A C4A 1_555 1_555
C5B O9B 1_555 1_555
H5B C5B 1_555 1_555
C6B O11B 1_555 1_555
H6B C6B 1_555 1_555
Mg2 O9 1_555 1_555
Mg3 O11 1_555 1_555
O4 C2 1_555 1_555
O6 Mg3A 1_555 1_555
O7 Mg3A 1_555 1_555
O8 C4 1_555 1_555
O10 C5 1_555 1_555
O12 C6 1_555 1_555
C9 C10 1_555 1_555
Mg1B O9B 1_555 1_555
Mg1A O7A 1_555 1_555
Mg3B O11B_2 1_555 1_555
Mg3C O7B 1_555 1_555
O4B C2B 1_555 1_555
O6A C3A 1_555 1_555
O10B C5B 1_555 1_555
O12B C6B 1_555 1_555

#END
