
#######################################################################
#
#                 Cambridge Crystallographic Data Centre
#                                CCDC 
#
#######################################################################
#
# If this CIF has been generated from an entry in the Cambridge 
# Structural Database, then it will include bibliographic, chemical, 
# crystal, experimental, refinement or atomic coordinate data resulting 
# from the CCDC's data processing and validation procedures.
#
#######################################################################

data_RELLAW
_symmetry_cell_setting           monoclinic
_symmetry_space_group_name_H-M   'P 21/c'
_symmetry_Int_Tables_number      14
_space_group_name_Hall           '-P 2ybc'
loop_
_symmetry_equiv_pos_site_id
_symmetry_equiv_pos_as_xyz
1 x,y,z
2 -x,1/2+y,1/2-z
3 -x,-y,-z
4 x,1/2-y,1/2+z
_cell_length_a                   16.1578(5)
_cell_length_b                   18.8070(6)
_cell_length_c                   18.1039(5)
_cell_angle_alpha                90
_cell_angle_beta                 92.6150(10)
_cell_angle_gamma                90
_cell_volume                     5495.68
loop_
_atom_site_label
_atom_site_type_symbol
_atom_site_fract_x
_atom_site_fract_y
_atom_site_fract_z
Zn1 Zn 0.365450(16) 0.500204(14) 0.672337(14)
Zn2 Zn 0.185789(16) 0.499222(14) 0.642175(14)
O1 O 0.35299(11) 0.43006(10) 0.58538(10)
O2 O 0.21681(11) 0.40897(10) 0.58767(10)
O3 O 0.19566(11) 0.05862(10) 0.23839(10)
O4 O 0.33257(11) 0.07848(10) 0.24070(10)
O5 O 0.21963(11) 0.55900(10) 0.55467(10)
O6 O 0.35003(11) 0.57980(10) 0.59650(10)
O7 O 0.33228(12) 0.92914(10) 0.24993(10)
O8 O 0.20172(12) 0.91174(10) 0.20613(10)
N1 N 1.06133(13) 0.50078(11) 0.62619(12)
N2 N 0.49051(13) 0.49931(11) 0.67592(12)
C1 C 0.28823(16) 0.39592(13) 0.56651(14)
C2 C 0.29743(16) 0.33538(14) 0.51359(14)
C3 C 0.37661(18) 0.31953(16) 0.48701(17)
H1 H 0.424(2) 0.347(2) 0.505(2)
C4 C 0.38545(18) 0.26749(17) 0.43594(17)
H2 H 0.442(2) 0.2567(17) 0.4136(17)
C5 C 0.31563(16) 0.22815(14) 0.40841(15)
C6 C 0.32180(17) 0.17624(15) 0.35279(15)
H3 H 0.371(2) 0.1642(18) 0.3335(18)
C7 C 0.25303(16) 0.14035(14) 0.32510(14)
C8 C 0.17517(18) 0.15333(16) 0.35499(16)
H4 H 0.127(2) 0.1270(17) 0.3354(17)
C9 C 0.16721(18) 0.20251(17) 0.40946(17)
H5 H 0.115(2) 0.2112(17) 0.4312(18)
C10 C 0.23665(16) 0.24230(15) 0.43684(15)
C11 C 0.22985(17) 0.29658(15) 0.48977(15)
H6 H 0.1746(18) 0.3072(15) 0.5130(15)
C12 C 0.26101(16) 0.08799(13) 0.26341(14)
C13 C 0.28810(15) 0.59148(13) 0.55428(13)
C14 C 0.29619(16) 0.64958(14) 0.49862(14)
C15 C 0.37128(18) 0.68787(16) 0.49637(16)
H7 H 0.415(2) 0.6775(17) 0.5308(18)
C16 C 0.37928(18) 0.74275(16) 0.44900(16)
H8 H 0.430(2) 0.7712(18) 0.4503(18)
C17 C 0.31282(16) 0.76267(14) 0.39948(15)
C18 C 0.31910(17) 0.81957(15) 0.34906(15)
H9 H 0.3686(19) 0.8496(16) 0.3514(16)
C19 C 0.25403(17) 0.83751(14) 0.30175(15)
C20 C 0.17910(18) 0.79927(17) 0.30354(17)
H10 H 0.137(2) 0.8087(16) 0.2671(17)
C21 C 0.17043(19) 0.74435(17) 0.35126(17)
H11 H 0.116(2) 0.7183(17) 0.3528(17)
C22 C 0.23729(16) 0.72415(14) 0.40050(15)
C23 C 0.23080(17) 0.66775(14) 0.45144(15)
H12 H 0.1783(17) 0.6413(15) 0.4514(15)
C24 C 0.26365(17) 0.89771(14) 0.24867(14)
C25 C 1.01584(18) 0.45531(17) 0.66387(19)
H13 H 1.0441(19) 0.4242(17) 0.6923(17)
C26 C 0.93058(18) 0.45606(18) 0.6605(2)
H14 H 0.898(2) 0.426(2) 0.688(2)
C27 C 0.88859(16) 0.50602(14) 0.61629(16)
C28 C 0.79815(17) 0.51119(16) 0.61379(18)
H15 H 0.774(2) 0.5324(19) 0.569(2)
C29 C 0.75229(19) 0.48736(19) 0.66722(19)
H16 H 0.775(2) 0.4686(18) 0.7109(19)
C30 C 0.66190(17) 0.49170(16) 0.66835(16)
C31 C 0.62291(19) 0.4791(2) 0.73385(18)
H17 H 0.656(3) 0.468(2) 0.772(2)
C32 C 0.53823(18) 0.48359(19) 0.73538(18)
H18 H 0.515(3) 0.475(2) 0.776(2)
C33 C 0.52807(18) 0.51099(16) 0.61237(16)
H19 H 0.496(2) 0.5191(16) 0.5714(18)
C34 C 0.61170(17) 0.50775(16) 0.60634(17)
H20 H 0.629(2) 0.5150(16) 0.5612(19)
C35 C 0.93607(17) 0.55072(18) 0.57478(17)
H21 H 0.9143(19) 0.5842(17) 0.5426(17)
C36 C 1.02119(17) 0.54699(16) 0.58158(16)
H22 H 1.0537(18) 0.5791(16) 0.5553(16)
Zn1C Zn 0.365450(16) -0.000204(14) 0.172337(14)
Zn1C_2 Zn 0.365450(16) 0.999796(14) 0.172337(14)
Zn2C Zn 0.185789(16) 0.000778(14) 0.142175(14)
Zn2C_2 Zn 0.185789(16) 1.000778(14) 0.142175(14)
Zn2_2 Zn 1.185789(16) 0.499222(14) 0.642175(14)
O3C O 0.19566(11) 0.44138(10) 0.73839(10)
O4C O 0.33257(11) 0.42152(10) 0.74070(10)
O7C O 0.33228(12) 0.57086(10) 0.74993(10)
O8C O 0.20172(12) 0.58826(10) 0.70613(10)
N1_2 N 0.06133(13) 0.50078(11) 0.62619(12)
O9 O -0.1621(4) 0.0846(4) 0.3218(3)
N3 N -0.1515(4) 0.1930(3) 0.3701(3)
C37 C -0.2316(7) 0.1882(8) 0.4021(7)
H23 H -0.2585 0.1436 0.3866
H24 H -0.2660 0.2285 0.3852
H25 H -0.2245 0.1893 0.4561
C38 C -0.1082(6) 0.2613(4) 0.3914(4)
H26 H -0.0563 0.2648 0.3657
H27 H -0.0962 0.2620 0.4449
H28 H -0.1440 0.3017 0.3774
C39 C -0.1088(9) 0.1504(5) 0.3358(4)
H29 H -0.0537 0.1575 0.3212
O10 O 0.5121(3) 0.4133(2) 0.9097(3)
N4 N 0.4029(3) 0.4508(2) 0.9765(2)
C40 C 0.4698(5) 0.4081(3) 0.9645(4)
H30 H 0.4843 0.3727 1.0002
C41 C 0.3807(5) 0.5034(3) 0.9248(3)
H31 H 0.4209 0.5041 0.8859
H32 H 0.3803 0.5498 0.9494
H33 H 0.3254 0.4932 0.9029
C42 C 0.3557(6) 0.4387(5) 1.0393(4)
H34 H 0.3106 0.4735 1.0401
H35 H 0.3913 0.4436 1.0842
H36 H 0.3324 0.3906 1.0369
O11 O 0.5582(3) 0.6533(2) 0.8139(3)
N5 N 0.4920(2) 0.74547(17) 0.7608(2)
C43 C 0.5106(3) 0.6777(3) 0.7664(3)
H37 H 0.4854 0.6458 0.7314
C44 C 0.4300(3) 0.7693(3) 0.7073(3)
H38 H 0.4124 0.7294 0.6755
H39 H 0.4529 0.8071 0.6771
H40 H 0.3823 0.7877 0.7329
C45 C 0.5251(3) 0.7972(3) 0.8117(3)
H41 H 0.5670 0.7748 0.8450
H42 H 0.4804 0.8164 0.8406
H43 H 0.5506 0.8358 0.7844
O12 O 0.0414(3) 0.2798(2) 0.7017(3)
N6 N 0.1552(3) 0.2114(2) 0.7156(2)
C46 C 0.1145(5) 0.2669(3) 0.6889(3)
H44 H 0.1427 0.2988 0.6582
C47 C 0.2434(5) 0.2034(4) 0.6975(5)
H45 H 0.2584 0.2412 0.6634
H46 H 0.2514 0.1570 0.6742
H47 H 0.2785 0.2066 0.7429
C48 C 0.1207(5) 0.1621(3) 0.7646(3)
H48 H 0.0623 0.1737 0.7707
H49 H 0.1509 0.1645 0.8127
H50 H 0.1251 0.1140 0.7443
O13 O 0.0050(4) -0.1675(3) 0.4812(3)
N7 N 0.0394(8) -0.0711(3) 0.4133(4)
C49 C 0.0114(6) -0.1293(5) 0.4294(5)
H51 H -0.0133 -0.1511 0.3864
C50 C 0.0400(6) -0.0336(5) 0.3480(5)
H52 H -0.0111 -0.0435 0.3185
H53 H 0.0879 -0.0481 0.3203
H54 H 0.0435 0.0174 0.3588
C51 C 0.1309(14) -0.0426(14) 0.4633(14)
H55 H 0.1344 -0.0658 0.5118
H56 H 0.1292 0.0091 0.4699
H57 H 0.1795 -0.0553 0.4357
O14 O -0.0092(3) 0.6866(3) 0.4640(3)
loop_
_geom_bond_atom_site_label_1
_geom_bond_atom_site_label_2
_geom_bond_site_symmetry_1
_geom_bond_site_symmetry_2
Zn1 O1 1_555 1_555
Zn2 O2 1_555 1_555
O1 C1 1_555 1_555
O2 C1 1_555 1_555
O3 C12 1_555 1_555
O4 C12 1_555 1_555
O5 Zn2 1_555 1_555
O6 Zn1 1_555 1_555
O7 C24 1_555 1_555
O8 C24 1_555 1_555
N1 C25 1_555 1_555
N2 Zn1 1_555 1_555
C1 C2 1_555 1_555
C2 C3 1_555 1_555
C3 H1 1_555 1_555
C4 C3 1_555 1_555
H2 C4 1_555 1_555
C5 C4 1_555 1_555
C6 C5 1_555 1_555
H3 C6 1_555 1_555
C7 C6 1_555 1_555
C8 C7 1_555 1_555
H4 C8 1_555 1_555
C9 C8 1_555 1_555
H5 C9 1_555 1_555
C10 C5 1_555 1_555
C11 C2 1_555 1_555
H6 C11 1_555 1_555
C12 C7 1_555 1_555
C13 O5 1_555 1_555
C14 C13 1_555 1_555
C15 C14 1_555 1_555
H7 C15 1_555 1_555
C16 C15 1_555 1_555
H8 C16 1_555 1_555
C17 C16 1_555 1_555
C18 C17 1_555 1_555
H9 C18 1_555 1_555
C19 C18 1_555 1_555
C20 C19 1_555 1_555
H10 C20 1_555 1_555
C21 C20 1_555 1_555
H11 C21 1_555 1_555
C22 C17 1_555 1_555
C23 C14 1_555 1_555
H12 C23 1_555 1_555
C24 C19 1_555 1_555
C25 H13 1_555 1_555
C26 C25 1_555 1_555
H14 C26 1_555 1_555
C27 C26 1_555 1_555
C28 C27 1_555 1_555
H15 C28 1_555 1_555
C29 C28 1_555 1_555
H16 C29 1_555 1_555
C30 C29 1_555 1_555
C31 C30 1_555 1_555
H17 C31 1_555 1_555
C32 N2 1_555 1_555
H18 C32 1_555 1_555
C33 N2 1_555 1_555
H19 C33 1_555 1_555
C34 C30 1_555 1_555
H20 C34 1_555 1_555
C35 C27 1_555 1_555
H21 C35 1_555 1_555
C36 N1 1_555 1_555
H22 C36 1_555 1_555
O9 C39 1_555 1_555
O10 C40 1_555 1_555
O11 C43 1_555 1_555
O12 C46 1_555 1_555
O13 C49 1_555 1_555
N3 C37 1_555 1_555
N4 C40 1_555 1_555
N5 C43 1_555 1_555
N6 C46 1_555 1_555
N7 C49 1_555 1_555
C37 H23 1_555 1_555
H24 C37 1_555 1_555
H25 C37 1_555 1_555
C38 N3 1_555 1_555
H26 C38 1_555 1_555
H27 C38 1_555 1_555
H28 C38 1_555 1_555
C39 N3 1_555 1_555
H29 C39 1_555 1_555
C40 H30 1_555 1_555
C41 N4 1_555 1_555
H31 C41 1_555 1_555
H32 C41 1_555 1_555
H33 C41 1_555 1_555
C42 N4 1_555 1_555
H34 C42 1_555 1_555
H35 C42 1_555 1_555
H36 C42 1_555 1_555
C43 H37 1_555 1_555
C44 N5 1_555 1_555
H38 C44 1_555 1_555
H39 C44 1_555 1_555
H40 C44 1_555 1_555
C45 N5 1_555 1_555
H41 C45 1_555 1_555
H42 C45 1_555 1_555
H43 C45 1_555 1_555
C46 H44 1_555 1_555
C47 N6 1_555 1_555
H45 C47 1_555 1_555
H46 C47 1_555 1_555
H47 C47 1_555 1_555
C48 N6 1_555 1_555
H48 C48 1_555 1_555
H49 C48 1_555 1_555
H50 C48 1_555 1_555
C49 H51 1_555 1_555
C50 N7 1_555 1_555
H52 C50 1_555 1_555
H53 C50 1_555 1_555
H54 C50 1_555 1_555
C51 N7 1_555 1_555
H55 C51 1_555 1_555
H56 C51 1_555 1_555
H57 C51 1_555 1_555
Zn1C O4 1_555 1_555
Zn1C_2 O7 1_555 1_555
Zn2C O3 1_555 1_555
Zn2C_2 O8 1_555 1_555
Zn2_2 N1 1_555 1_555
O3C Zn2 1_555 1_555
O4C Zn1 1_555 1_555
O7C Zn1 1_555 1_555
O8C Zn2 1_555 1_555
N1_2 Zn2 1_555 1_555
O6 C13 1_555 1_555
C9 C10 1_555 1_555
C10 C11 1_555 1_555
C21 C22 1_555 1_555
C22 C23 1_555 1_555
C31 C32 1_555 1_555
C33 C34 1_555 1_555
C35 C36 1_555 1_555

#END
