
#######################################################################
#
#                 Cambridge Crystallographic Data Centre
#                                CCDC 
#
#######################################################################
#
# If this CIF has been generated from an entry in the Cambridge 
# Structural Database, then it will include bibliographic, chemical, 
# crystal, experimental, refinement or atomic coordinate data resulting 
# from the CCDC's data processing and validation procedures.
#
#######################################################################

data_REMRIM
_symmetry_cell_setting           monoclinic
_symmetry_space_group_name_H-M   'P 21/m'
_symmetry_Int_Tables_number      11
_space_group_name_Hall           '-P 2yb'
loop_
_symmetry_equiv_pos_site_id
_symmetry_equiv_pos_as_xyz
1 x,y,z
2 -x,1/2+y,-z
3 -x,-y,-z
4 x,1/2-y,z
_cell_length_a                   6.2927(13)
_cell_length_b                   10.083(2)
_cell_length_c                   15.981(3)
_cell_angle_alpha                90
_cell_angle_beta                 79.28(3)
_cell_angle_gamma                90
_cell_volume                     996.287
loop_
_atom_site_label
_atom_site_type_symbol
_atom_site_fract_x
_atom_site_fract_y
_atom_site_fract_z
C1 C 0.8756(7) 0.5031(6) 0.0096(3)
C2 C 0.9352(9) 0.4809(7) 0.2733(4)
C3 C 0.9417(11) 0.3690(8) 0.3344(4)
H1 H 1.0171 0.3980 0.3788
H2 H 0.7950 0.3460 0.3610
C4 C 1.2828(14) 0.2500 0.2944(6)
H3 H 1.3142 0.1725 0.3260
C5 C 1.4362(11) 0.2500 0.2091(5)
C6 C 0.5910(10) 0.5042(7) 0.5251(4)
Gd1 Gd 0.99132(5) 0.2500 0.12558(2)
Gd2 Gd 0.69139(6) 0.7500 0.39360(2)
N1 N 1.0504(10) 0.2500 0.2927(4)
O1 O 0.7822(5) 0.4098(4) 0.0545(2)
O2 O 0.7898(6) 0.5967(4) -0.0219(2)
O3 O 1.0003(6) 0.4627(4) 0.1943(2)
O4 O 0.8630(9) 0.5898(5) 0.3035(3)
O5 O 1.3588(8) 0.2500 0.1436(3)
O6 O 1.6347(8) 0.2500 0.2131(3)
O7 O 0.7158(10) 0.5994(7) 0.5094(4)
O8 O 0.5989(9) 0.4120(7) 0.5768(4)
O9 O 1.0548(10) 0.7500 0.4152(6)
O10 O 0.4909(11) 0.7500 0.2789(4)
C1B C 1.1244(7) 0.4969(6) -0.0096(3)
C2C C 0.9352(9) 0.0191(7) 0.2733(4)
C3C C 0.9417(11) 0.1310(8) 0.3344(4)
H1C H 1.0171 0.1020 0.3788
H2C H 0.7950 0.1540 0.3610
H3C H 1.3142 0.3275 0.3260
C6B C 0.4090(10) 0.4958(7) 0.4749(4)
Gd1A Gd 1.00868(5) 0.7500 -0.12558(2)
Gd1_2 Gd 1.99132(5) 0.2500 0.12558(2)
Gd2A Gd 0.30861(6) 0.2500 0.60640(2)
Gd2_2 Gd 0.69139(6) -0.2500 0.39360(2)
O1B O 1.2178(5) 0.5902(4) -0.0545(2)
O1C O 0.7822(5) 0.0902(4) 0.0545(2)
O2B O 1.2102(6) 0.4033(4) 0.0219(2)
O2A O 1.2102(6) 0.0967(4) 0.0219(2)
O3C O 1.0003(6) 0.0373(4) 0.1943(2)
O4C O 0.8630(9) -0.0898(5) 0.3035(3)
O4C_2 O 0.8630(9) 0.9102(5) 0.3035(3)
O6_2 O 0.6347(8) 0.2500 0.2131(3)
O7B O 0.2842(10) 0.4006(7) 0.4906(4)
O7C O 0.7158(10) 0.9006(7) 0.5094(4)
O8B O 0.4011(9) 0.5880(7) 0.4232(4)
O8A O 0.4011(9) 0.9120(7) 0.4232(4)
K1 K 0.5558(3) 0.2500 -0.03699(11)
O11 O 0.5527(7) 0.4445(5) -0.1635(3)
O12 O 0.9849(14) 0.2500 -0.1302(5)
loop_
_geom_bond_atom_site_label_1
_geom_bond_atom_site_label_2
_geom_bond_site_symmetry_1
_geom_bond_site_symmetry_2
C1 O1 1_555 1_555
C2 C3 1_555 1_555
C3 H1 1_555 1_555
H2 C3 1_555 1_555
C4 H3 1_555 1_555
C5 C4 1_555 1_555
C6 O7 1_555 1_555
Gd1 N1 1_555 1_555
Gd2 O4 1_555 1_555
N1 C3 1_555 1_555
O1 Gd1 1_555 1_555
O2 C1 1_555 1_555
O3 C2 1_555 1_555
O4 C2 1_555 1_555
O5 C5 1_555 1_555
O6 C5 1_555 1_555
O7 Gd2 1_555 1_555
O8 C6 1_555 1_555
O9 Gd2 1_555 1_555
O10 Gd2 1_555 1_555
C1B C1 1_555 1_555
C2C C3C 1_555 1_555
C3C N1 1_555 1_555
H1C C3C 1_555 1_555
H2C C3C 1_555 1_555
H3C C4 1_555 1_555
C6B C6 1_555 1_555
Gd1A O2 1_555 1_555
Gd1_2 O6 1_555 1_555
Gd2A O8 1_555 1_555
Gd2_2 O4C 1_555 1_555
O1B C1B 1_555 1_555
O1C Gd1 1_555 1_555
O2B Gd1 1_555 1_555
O2A Gd1 1_555 1_555
O3C Gd1 1_555 1_555
O4C C2C 1_555 1_555
O4C_2 Gd2 1_555 1_555
O6_2 Gd1 1_555 1_555
O7B C6B 1_555 1_555
O7C Gd2 1_555 1_555
O8B Gd2 1_555 1_555
O8A Gd2 1_555 1_555
C4 N1 1_555 1_555
Gd1 O3 1_555 1_555
Gd1 O5 1_555 1_555
C1B O2B 1_555 1_555
C2C O3C 1_555 1_555
C6B O8B 1_555 1_555
Gd1A O1B 1_555 1_555
Gd2A O7B 1_555 1_555

#END
