
#######################################################################
#
#                 Cambridge Crystallographic Data Centre
#                                CCDC 
#
#######################################################################
#
# If this CIF has been generated from an entry in the Cambridge 
# Structural Database, then it will include bibliographic, chemical, 
# crystal, experimental, refinement or atomic coordinate data resulting 
# from the CCDC's data processing and validation procedures.
#
#######################################################################

data_RESWUI01
_symmetry_cell_setting           triclinic
_symmetry_space_group_name_H-M   'P -1'
_symmetry_Int_Tables_number      2
_space_group_name_Hall           '-P 1'
loop_
_symmetry_equiv_pos_site_id
_symmetry_equiv_pos_as_xyz
1 x,y,z
2 -x,-y,-z
_cell_length_a                   8.5139(6)
_cell_length_b                   10.2165(7)
_cell_length_c                   11.0721(8)
_cell_angle_alpha                64.2080(10)
_cell_angle_beta                 71.5630(10)
_cell_angle_gamma                80.7520(10)
_cell_volume                     822.325
loop_
_atom_site_label
_atom_site_type_symbol
_atom_site_fract_x
_atom_site_fract_y
_atom_site_fract_z
Er1 Er 0.133487(18) -0.063789(16) 0.162315(16)
O1 O -0.0159(4) 0.1272(3) 0.0330(3)
O2 O -0.1218(4) 0.2765(3) -0.1365(3)
O3 O -0.0515(3) 0.0108(3) 0.3366(3)
O4 O -0.1550(3) -0.1224(3) 0.2698(3)
O5 O 0.1734(3) -0.2462(3) 0.3732(3)
O6 O 0.3950(3) -0.1965(3) 0.1941(3)
O7 O 0.3138(3) 0.0310(3) -0.0645(3)
H1 H 0.2805 0.0531 -0.1359
H2 H 0.3975 0.0809 -0.0875
O8 O 0.2822(4) 0.0961(3) 0.1769(3)
N1 N 0.3589(5) 0.2697(4) 0.2176(5)
C1 C -0.0560(4) 0.2536(4) -0.0428(4)
C2 C -0.0276(5) 0.3808(4) -0.0195(4)
C3 C 0.0035(5) 0.5157(4) -0.1312(4)
H3 H 0.0060 0.5265 -0.2215
C4 C -0.0307(5) 0.3656(4) 0.1125(4)
H4 H -0.0516 0.2736 0.1896
C5 C -0.1736(4) -0.0465(4) 0.3386(4)
C6 C -0.3427(4) -0.0211(4) 0.4222(4)
C7 C -0.4776(5) -0.0889(5) 0.4307(4)
H5 H -0.4617 -0.1496 0.3826
C8 C -0.3656(5) 0.0686(5) 0.4913(4)
H6 H -0.2741 0.1157 0.4851
C9 C 0.3227(5) -0.2725(4) 0.3213(4)
C10 C 0.4155(5) -0.3919(4) 0.4127(4)
C11 C 0.3352(5) -0.4715(5) 0.5499(4)
H7 H 0.2209 -0.4520 0.5848
C12 C 0.5822(5) -0.4201(5) 0.3613(4)
H8 H 0.6393 -0.3658 0.2665
C13 C 0.2573(5) 0.1708(5) 0.2442(5)
H9 H 0.1592 0.1557 0.3193
C14 C 0.3190(9) 0.3580(6) 0.2986(7)
H10 H 0.4086 0.4254 0.2648
H11 H 0.3064 0.2943 0.3974
H12 H 0.2154 0.4133 0.2877
C15 C 0.5138(8) 0.2900(7) 0.1103(8)
H13 H 0.5745 0.3673 0.1045
H14 H 0.4922 0.3172 0.0204
H15 H 0.5801 0.1993 0.1330
Er1A Er -1.133487(18) 0.063789(16) 0.837685(16)
Er1_2 Er 0.133487(18) 0.936211(16) 0.162315(16)
Er1A_2 Er -0.133487(18) 0.063789(16) -0.162315(16)
Er1A_3 Er -0.133487(18) 1.063789(16) -0.162315(16)
Er1A_4 Er 0.866513(18) -0.936211(16) 0.837685(16)
O1A O 0.0159(4) 0.8728(3) -0.0330(3)
O1A_2 O -0.9841(4) -0.1272(3) 0.9670(3)
O2A O 0.1218(4) 0.7235(3) 0.1365(3)
O2_2 O -1.1218(4) 0.2765(3) 0.8635(3)
O2A_2 O 0.1218(4) -0.2765(3) 0.1365(3)
O3A O -0.9485(3) -0.0108(3) 0.6634(3)
O4A O -0.8450(3) 0.1224(3) 0.7302(3)
O5A O 0.8266(3) -0.7538(3) 0.6268(3)
O5A_2 O -1.1734(3) 0.2462(3) 0.6268(3)
O6A O 0.6050(3) -0.8035(3) 0.8059(3)
O6A_2 O -1.3950(3) 0.1965(3) 0.8059(3)
O7A O -1.3138(3) -0.0310(3) 1.0645(3)
H1A H -1.2805 -0.0531 1.1359
H2A H -1.3975 -0.0809 1.0875
O8A O -1.2822(4) -0.0961(3) 0.8231(3)
N1A N -1.3589(5) -0.2697(4) 0.7824(5)
C1A C 0.0560(4) 0.7464(4) 0.0428(4)
C2A C 0.0276(5) 0.6192(4) 0.0195(4)
C3A C -0.0035(5) 0.4843(4) 0.1312(4)
H3A H -0.0060 0.4735 0.2215
C4A C 0.0307(5) 0.6344(4) -0.1125(4)
H4A H 0.0516 0.7264 -0.1896
C5A C -0.8264(4) 0.0465(4) 0.6614(4)
C6A C -0.6573(4) 0.0211(4) 0.5778(4)
C7A C -0.5224(5) 0.0889(5) 0.5693(4)
H5A H -0.5383 0.1496 0.6174
C8A C -0.6344(5) -0.0686(5) 0.5087(4)
H6A H -0.7259 -0.1157 0.5149
C9A C 0.6773(5) -0.7275(4) 0.6787(4)
C9A_2 C -1.3227(5) 0.2725(4) 0.6787(4)
C10A C 0.5845(5) -0.6081(4) 0.5873(4)
C11A C 0.6648(5) -0.5285(5) 0.4501(4)
H7A H 0.7791 -0.5480 0.4152
C12A C 0.4178(5) -0.5799(5) 0.6387(4)
H8A H 0.3607 -0.6342 0.7335
C13A C -1.2573(5) -0.1708(5) 0.7558(5)
H9A H -1.1592 -0.1557 0.6807
C14A C -1.3190(9) -0.3580(6) 0.7014(7)
H10A H -1.4086 -0.4254 0.7352
H11A H -1.3064 -0.2943 0.6026
H12A H -1.2154 -0.4133 0.7123
C15A C -1.5138(8) -0.2900(7) 0.8897(8)
H13A H -1.5745 -0.3673 0.8955
H14A H -1.4922 -0.3172 0.9796
H15A H -1.5801 -0.1993 0.8670
loop_
_geom_bond_atom_site_label_1
_geom_bond_atom_site_label_2
_geom_bond_site_symmetry_1
_geom_bond_site_symmetry_2
Er1 O1 1_555 1_555
O1 C1 1_555 1_555
O2 C1 1_555 1_555
O3 Er1 1_555 1_555
O4 Er1 1_555 1_555
O5 Er1 1_555 1_555
O6 Er1 1_555 1_555
O7 Er1 1_555 1_555
H1 O7 1_555 1_555
H2 O7 1_555 1_555
O8 Er1 1_555 1_555
N1 C13 1_555 1_555
C1 C2 1_555 1_555
C2 C3 1_555 1_555
C3 H3 1_555 1_555
C4 C2 1_555 1_555
H4 C4 1_555 1_555
C5 O3 1_555 1_555
C6 C5 1_555 1_555
C7 C6 1_555 1_555
H5 C7 1_555 1_555
C8 C6 1_555 1_555
H6 C8 1_555 1_555
C9 O5 1_555 1_555
C10 C9 1_555 1_555
C11 C10 1_555 1_555
H7 C11 1_555 1_555
C12 C10 1_555 1_555
H8 C12 1_555 1_555
C13 O8 1_555 1_555
H9 C13 1_555 1_555
C14 N1 1_555 1_555
H10 C14 1_555 1_555
H11 C14 1_555 1_555
H12 C14 1_555 1_555
C15 N1 1_555 1_555
H13 C15 1_555 1_555
H14 C15 1_555 1_555
H15 C15 1_555 1_555
Er1A O1A_2 1_555 1_555
Er1_2 O2A 1_555 1_555
Er1A_2 O2 1_555 1_555
Er1A_3 O1A 1_555 1_555
Er1A_4 O5A 1_555 1_555
O1A C1A 1_555 1_555
O2A C1A 1_555 1_555
O2_2 Er1A 1_555 1_555
O2A_2 Er1 1_555 1_555
O3A Er1A 1_555 1_555
O4A Er1A 1_555 1_555
O5A C9A 1_555 1_555
O5A_2 Er1A 1_555 1_555
O6A Er1A_4 1_555 1_555
O6A_2 Er1A 1_555 1_555
O7A Er1A 1_555 1_555
H1A O7A 1_555 1_555
H2A O7A 1_555 1_555
O8A Er1A 1_555 1_555
N1A C13A 1_555 1_555
C1A C2A 1_555 1_555
C2A C3A 1_555 1_555
C3A C4 1_555 1_555
H3A C3A 1_555 1_555
C4A C3 1_555 1_555
H4A C4A 1_555 1_555
C5A O3A 1_555 1_555
C6A C5A 1_555 1_555
C7A C8 1_555 1_555
H5A C7A 1_555 1_555
C8A C7 1_555 1_555
H6A C8A 1_555 1_555
C9A O6A 1_555 1_555
C9A_2 O5A_2 1_555 1_555
C10A C9A 1_555 1_555
C11A C12 1_555 1_555
H7A C11A 1_555 1_555
C12A C11 1_555 1_555
H8A C12A 1_555 1_555
C13A O8A 1_555 1_555
H9A C13A 1_555 1_555
C14A N1A 1_555 1_555
H10A C14A 1_555 1_555
H11A C14A 1_555 1_555
H12A C14A 1_555 1_555
C15A N1A 1_555 1_555
H13A C15A 1_555 1_555
H14A C15A 1_555 1_555
H15A C15A 1_555 1_555
O4 C5 1_555 1_555
O6 C9 1_555 1_555
O4A C5A 1_555 1_555
O6A_2 C9A_2 1_555 1_555
C2A C4A 1_555 1_555
C6A C7A 1_555 1_555
C6A C8A 1_555 1_555
C10A C11A 1_555 1_555
C10A C12A 1_555 1_555

#END
