
#######################################################################
#
#                 Cambridge Crystallographic Data Centre
#                                CCDC 
#
#######################################################################
#
# If this CIF has been generated from an entry in the Cambridge 
# Structural Database, then it will include bibliographic, chemical, 
# crystal, experimental, refinement or atomic coordinate data resulting 
# from the CCDC's data processing and validation procedures.
#
#######################################################################

data_REVYUO
_symmetry_cell_setting           rhombohedral
_symmetry_space_group_name_H-M   'R -3'
_symmetry_Int_Tables_number      148
_space_group_name_Hall           '-R 3'
loop_
_symmetry_equiv_pos_site_id
_symmetry_equiv_pos_as_xyz
1 x,y,z
2 -y,x-y,z
3 -x+y,-x,z
4 2/3+x,1/3+y,1/3+z
5 2/3-y,1/3+x-y,1/3+z
6 2/3-x+y,1/3-x,1/3+z
7 1/3+x,2/3+y,2/3+z
8 1/3-y,2/3+x-y,2/3+z
9 1/3-x+y,2/3-x,2/3+z
10 -x,-y,-z
11 y,-x+y,-z
12 x-y,x,-z
13 1/3-x,2/3-y,2/3-z
14 1/3+y,2/3-x+y,2/3-z
15 1/3+x-y,2/3+x,2/3-z
16 2/3-x,1/3-y,1/3-z
17 2/3+y,1/3-x+y,1/3-z
18 2/3+x-y,1/3+x,1/3-z
_cell_length_a                   20.0843(5)
_cell_length_b                   20.0843(5)
_cell_length_c                   20.2408(7)
_cell_angle_alpha                90
_cell_angle_beta                 90
_cell_angle_gamma                120
_cell_volume                     7070.85
loop_
_atom_site_label
_atom_site_type_symbol
_atom_site_fract_x
_atom_site_fract_y
_atom_site_fract_z
Cd1 Cd 0.0000 0.0000 0.0000
Cd2 Cd 0.0000 0.0000 0.20472(5)
N1 N 0.1221(7) 0.2255(6) 0.1081(5)
N2 N 0.0566(5) 0.1118(5) 0.0668(4)
N3 N 0.1889(7) 0.3458(6) 0.0582(5)
C1 C 0.1013(7) 0.1822(7) 0.0522(5)
H1 H 0.1172 0.2011 0.0097
N4 N 0.0487(5) 0.1077(5) 0.1349(4)
C2 C 0.1773(9) 0.3076(8) 0.1149(6)
C3 C 0.2113(10) 0.3384(9) 0.1741(6)
H2 H 0.2010 0.3077 0.2114
C4 C 0.2397(8) 0.4209(7) 0.0627(6)
C5 C 0.0887(7) 0.1772(6) 0.1586(5)
H3 H 0.0931 0.1908 0.2030
C6 C 0.2780(9) 0.4592(9) 0.1180(7)
H4 H 0.3138 0.5115 0.1168
C7 C 0.2617(10) 0.4173(9) 0.1768(7)
H5 H 0.2840 0.4415 0.2165
N5 N 0.2503(8) 0.4609(6) 0.0022(5)
C8 C 0.2770(8) 0.5364(7) -0.0075(6)
H6 H 0.2908 0.5722 0.0263
C9 C 0.2355(11) 0.4302(9) -0.0605(6)
H7 H 0.2147 0.3783 -0.0702
N6 N 0.2812(5) 0.5532(5) -0.0699(4)
N7 N 0.2552(8) 0.4848(7) -0.1047(5)
N1A N -0.2255(6) -0.1034(9) 0.1081(5)
N2A N -0.1118(5) -0.0552(7) 0.0668(4)
N3A N -0.3458(6) -0.1569(9) 0.0582(5)
C1A C -0.1822(7) -0.0809(10) 0.0522(5)
H1A H -0.2011 -0.0839 0.0097
N4A N -0.1077(5) -0.0590(7) 0.1349(4)
C2A C -0.3076(8) -0.1303(12) 0.1149(6)
C3A C -0.3384(9) -0.1271(13) 0.1741(6)
H2A H -0.3077 -0.1067 0.2114
C4A C -0.4209(7) -0.1812(11) 0.0627(6)
C5A C -0.1772(6) -0.0885(9) 0.1586(5)
H3A H -0.1908 -0.0977 0.2030
C6A C -0.4592(9) -0.1812(13) 0.1180(7)
H4A H -0.5115 -0.1977 0.1168
C7A C -0.4173(9) -0.1556(13) 0.1768(7)
H5A H -0.4415 -0.1575 0.2165
N5A N -0.4609(6) -0.2106(10) 0.0022(5)
C8A C -0.5364(7) -0.2594(11) -0.0075(6)
H6A H -0.5722 -0.2814 0.0263
C9A C -0.4302(9) -0.1947(14) -0.0605(6)
H7A H -0.3783 -0.1636 -0.0702
N6A N -0.5532(5) -0.2720(7) -0.0699(4)
N7A N -0.4848(7) -0.2296(11) -0.1047(5)
N1B N 0.1034(9) -0.1221(7) 0.1081(5)
N2B N 0.0552(7) -0.0566(5) 0.0668(4)
N3B N 0.1569(9) -0.1889(7) 0.0582(5)
C1B C 0.0809(10) -0.1013(7) 0.0522(5)
H1B H 0.0839 -0.1172 0.0097
N4B N 0.0590(7) -0.0487(5) 0.1349(4)
C2B C 0.1303(12) -0.1773(9) 0.1149(6)
C3B C 0.1271(13) -0.2113(10) 0.1741(6)
H2B H 0.1067 -0.2010 0.2114
C4B C 0.1812(11) -0.2397(8) 0.0627(6)
C5B C 0.0885(9) -0.0887(7) 0.1586(5)
H3B H 0.0977 -0.0931 0.2030
C6B C 0.1812(13) -0.2780(9) 0.1180(7)
H4B H 0.1977 -0.3138 0.1168
C7B C 0.1556(13) -0.2617(10) 0.1768(7)
H5B H 0.1575 -0.2840 0.2165
N5B N 0.2106(10) -0.2503(8) 0.0022(5)
C8B C 0.2594(11) -0.2770(8) -0.0075(6)
H6B H 0.2814 -0.2908 0.0263
C9B C 0.1947(14) -0.2355(11) -0.0605(6)
H7B H 0.1636 -0.2147 -0.0702
N6B N 0.2720(7) -0.2812(5) -0.0699(4)
N7B N 0.2296(11) -0.2552(8) -0.1047(5)
Cd2I Cd 0.0000 0.0000 -0.20472(5)
N1I N -0.1221(7) -0.2255(6) -0.1081(5)
N2I N -0.0566(5) -0.1118(5) -0.0668(4)
N3I N -0.1889(7) -0.3458(6) -0.0582(5)
C1I C -0.1013(7) -0.1822(7) -0.0522(5)
H1I H -0.1172 -0.2011 -0.0097
N4I N -0.0487(5) -0.1077(5) -0.1349(4)
C2I C -0.1773(9) -0.3076(8) -0.1149(6)
C3I C -0.2113(10) -0.3384(9) -0.1741(6)
H2I H -0.2010 -0.3077 -0.2114
C4I C -0.2397(8) -0.4209(7) -0.0627(6)
C5I C -0.0887(7) -0.1772(6) -0.1586(5)
H3I H -0.0931 -0.1908 -0.2030
C6I C -0.2780(9) -0.4592(9) -0.1180(7)
H4I H -0.3138 -0.5115 -0.1168
C7I C -0.2617(10) -0.4173(9) -0.1768(7)
H5I H -0.2840 -0.4415 -0.2165
N5I N -0.2503(8) -0.4609(6) -0.0022(5)
C8I C -0.2770(8) -0.5364(7) 0.0075(6)
H6I H -0.2908 -0.5722 -0.0263
C9I C -0.2355(11) -0.4302(9) 0.0605(6)
H7I H -0.2147 -0.3783 0.0702
N6I N -0.2812(5) -0.5532(5) 0.0699(4)
N7I N -0.2552(8) -0.4848(7) 0.1047(5)
N1J N 0.2255(6) 0.1034(9) -0.1081(5)
N2J N 0.1118(5) 0.0552(7) -0.0668(4)
N3J N 0.3458(6) 0.1569(9) -0.0582(5)
C1J C 0.1822(7) 0.0809(10) -0.0522(5)
H1J H 0.2011 0.0839 -0.0097
N4J N 0.1077(5) 0.0590(7) -0.1349(4)
C2J C 0.3076(8) 0.1303(12) -0.1149(6)
C3J C 0.3384(9) 0.1271(13) -0.1741(6)
H2J H 0.3077 0.1067 -0.2114
C4J C 0.4209(7) 0.1812(11) -0.0627(6)
C5J C 0.1772(6) 0.0885(9) -0.1586(5)
H3J H 0.1908 0.0977 -0.2030
C6J C 0.4592(9) 0.1812(13) -0.1180(7)
H4J H 0.5115 0.1977 -0.1168
C7J C 0.4173(9) 0.1556(13) -0.1768(7)
H5J H 0.4415 0.1575 -0.2165
N5J N 0.4609(6) 0.2106(10) -0.0022(5)
C8J C 0.5364(7) 0.2594(11) 0.0075(6)
H6J H 0.5722 0.2814 -0.0263
C9J C 0.4302(9) 0.1947(14) 0.0605(6)
H7J H 0.3783 0.1636 0.0702
N6J N 0.5532(5) 0.2720(7) 0.0699(4)
N7J N 0.4848(7) 0.2296(11) 0.1047(5)
N1K N -0.1034(9) 0.1221(7) -0.1081(5)
N2K N -0.0552(7) 0.0566(5) -0.0668(4)
N3K N -0.1569(9) 0.1889(7) -0.0582(5)
C1K C -0.0809(10) 0.1013(7) -0.0522(5)
H1K H -0.0839 0.1172 -0.0097
N4K N -0.0590(7) 0.0487(5) -0.1349(4)
C2K C -0.1303(12) 0.1773(9) -0.1149(6)
C3K C -0.1271(13) 0.2113(10) -0.1741(6)
H2K H -0.1067 0.2010 -0.2114
C4K C -0.1812(11) 0.2397(8) -0.0627(6)
C5K C -0.0885(9) 0.0887(7) -0.1586(5)
H3K H -0.0977 0.0931 -0.2030
C6K C -0.1812(13) 0.2780(9) -0.1180(7)
H4K H -0.1977 0.3138 -0.1168
C7K C -0.1556(13) 0.2617(10) -0.1768(7)
H5K H -0.1575 0.2840 -0.2165
N5K N -0.2106(10) 0.2503(8) -0.0022(5)
C8K C -0.2594(11) 0.2770(8) 0.0075(6)
H6K H -0.2814 0.2908 -0.0263
C9K C -0.1947(14) 0.2355(11) 0.0605(6)
H7K H -0.1636 0.2147 0.0702
N6K N -0.2720(7) 0.2812(5) 0.0699(4)
N7K N -0.2296(11) 0.2552(8) 0.1047(5)
Cd2F Cd -0.6667 -0.3333 -0.12861(5)
Cd2F_2 Cd 0.3333 -0.3333 -0.12861(5)
Cd2F_3 Cd 0.3333 0.6667 -0.12861(5)
Cd2O Cd -0.3333 -0.6667 0.12861(5)
Cd2O_2 Cd -0.3333 0.3333 0.12861(5)
Cd2O_3 Cd 0.6667 0.3333 0.12861(5)
N6C N -0.0521(5) -0.1135(5) 0.2634(4)
N6D N 0.1135(5) 0.0613(7) 0.2634(4)
N6E N -0.0613(7) 0.0521(5) 0.2634(4)
N6L N 0.0521(5) 0.1135(5) -0.2634(4)
N6M N -0.1135(5) -0.0613(7) -0.2634(4)
N6N N 0.0613(7) -0.0521(5) -0.2634(4)
F1 F 0.4206(13) 0.3363(12) -0.0021(11)
F2 F 0.3148(16) 0.2776(14) 0.0610(18)
F3 F 0.3537(18) 0.378(2) -0.0022(17)
F4 F 0.4050(19) 0.380(2) 0.0823(15)
B1 B 0.3648(15) 0.3310(15) 0.0328(14)
P1 P 0.3333 0.6667 0.1667
F5 F 0.2576(4) 0.6149(5) 0.1183(3)
F5A F 0.3851(5) 0.6427(6) 0.1183(3)
F5B F 0.3573(6) 0.7424(4) 0.1183(3)
F5O F 0.4091(4) 0.7184(5) 0.2150(3)
F5P F 0.2816(5) 0.6906(6) 0.2150(3)
F5Q F 0.3094(6) 0.5909(4) 0.2150(3)
O1 O 0.7639(6) 0.8832(8) 0.9026(4)
O2 O 0.5561(14) 0.4501(15) 0.0209(6)
O3 O 0.6153(11) 0.6768(13) 0.7800(12)
loop_
_geom_bond_atom_site_label_1
_geom_bond_atom_site_label_2
_geom_bond_site_symmetry_1
_geom_bond_site_symmetry_2
Cd1 N2 1_555 1_555
Cd2 N4 1_555 1_555
N1 C1 1_555 1_555
N2 C1 1_555 1_555
N3 C2 1_555 1_555
C1 H1 1_555 1_555
N4 N2 1_555 1_555
C2 N1 1_555 1_555
C3 C2 1_555 1_555
H2 C3 1_555 1_555
C4 N3 1_555 1_555
C5 N1 1_555 1_555
H3 C5 1_555 1_555
C6 C4 1_555 1_555
H4 C6 1_555 1_555
C7 C3 1_555 1_555
H5 C7 1_555 1_555
N5 C4 1_555 1_555
C8 N5 1_555 1_555
H6 C8 1_555 1_555
C9 N5 1_555 1_555
H7 C9 1_555 1_555
N6 C8 1_555 1_555
N7 C9 1_555 1_555
F1 B1 1_555 1_555
F2 B1 1_555 1_555
F3 B1 1_555 1_555
F4 B1 1_555 1_555
P1 F5 1_555 1_555
N1A C1A 1_555 1_555
N2A Cd1 1_555 1_555
N3A C2A 1_555 1_555
C1A N2A 1_555 1_555
H1A C1A 1_555 1_555
N4A Cd2 1_555 1_555
C2A N1A 1_555 1_555
C3A C2A 1_555 1_555
H2A C3A 1_555 1_555
C4A N3A 1_555 1_555
C5A N1A 1_555 1_555
H3A C5A 1_555 1_555
C6A C4A 1_555 1_555
H4A C6A 1_555 1_555
C7A C3A 1_555 1_555
H5A C7A 1_555 1_555
N5A C4A 1_555 1_555
C8A N5A 1_555 1_555
H6A C8A 1_555 1_555
C9A N5A 1_555 1_555
H7A C9A 1_555 1_555
N6A C8A 1_555 1_555
N7A C9A 1_555 1_555
N1B C1B 1_555 1_555
N2B Cd1 1_555 1_555
N3B C2B 1_555 1_555
C1B N2B 1_555 1_555
H1B C1B 1_555 1_555
N4B Cd2 1_555 1_555
C2B N1B 1_555 1_555
C3B C2B 1_555 1_555
H2B C3B 1_555 1_555
C4B N3B 1_555 1_555
C5B N1B 1_555 1_555
H3B C5B 1_555 1_555
C6B C4B 1_555 1_555
H4B C6B 1_555 1_555
C7B C3B 1_555 1_555
H5B C7B 1_555 1_555
N5B C4B 1_555 1_555
C8B N5B 1_555 1_555
H6B C8B 1_555 1_555
C9B N5B 1_555 1_555
H7B C9B 1_555 1_555
N6B C8B 1_555 1_555
N7B C9B 1_555 1_555
Cd2I N4I 1_555 1_555
N1I C1I 1_555 1_555
N2I Cd1 1_555 1_555
N3I C2I 1_555 1_555
C1I N2I 1_555 1_555
H1I C1I 1_555 1_555
N4I N2I 1_555 1_555
C2I N1I 1_555 1_555
C3I C2I 1_555 1_555
H2I C3I 1_555 1_555
C4I N3I 1_555 1_555
C5I N1I 1_555 1_555
H3I C5I 1_555 1_555
C6I C4I 1_555 1_555
H4I C6I 1_555 1_555
C7I C3I 1_555 1_555
H5I C7I 1_555 1_555
N5I C4I 1_555 1_555
C8I N5I 1_555 1_555
H6I C8I 1_555 1_555
C9I N5I 1_555 1_555
H7I C9I 1_555 1_555
N6I C8I 1_555 1_555
N7I C9I 1_555 1_555
N1J C1J 1_555 1_555
N2J Cd1 1_555 1_555
N3J C2J 1_555 1_555
C1J N2J 1_555 1_555
H1J C1J 1_555 1_555
N4J Cd2I 1_555 1_555
C2J N1J 1_555 1_555
C3J C2J 1_555 1_555
H2J C3J 1_555 1_555
C4J N3J 1_555 1_555
C5J N1J 1_555 1_555
H3J C5J 1_555 1_555
C6J C4J 1_555 1_555
H4J C6J 1_555 1_555
C7J C3J 1_555 1_555
H5J C7J 1_555 1_555
N5J C4J 1_555 1_555
C8J N5J 1_555 1_555
H6J C8J 1_555 1_555
C9J N5J 1_555 1_555
H7J C9J 1_555 1_555
N6J C8J 1_555 1_555
N7J C9J 1_555 1_555
N1K C1K 1_555 1_555
N2K Cd1 1_555 1_555
N3K C2K 1_555 1_555
C1K N2K 1_555 1_555
H1K C1K 1_555 1_555
N4K Cd2I 1_555 1_555
C2K N1K 1_555 1_555
C3K C2K 1_555 1_555
H2K C3K 1_555 1_555
C4K N3K 1_555 1_555
C5K N1K 1_555 1_555
H3K C5K 1_555 1_555
C6K C4K 1_555 1_555
H4K C6K 1_555 1_555
C7K C3K 1_555 1_555
H5K C7K 1_555 1_555
N5K C4K 1_555 1_555
C8K N5K 1_555 1_555
H6K C8K 1_555 1_555
C9K N5K 1_555 1_555
H7K C9K 1_555 1_555
N6K C8K 1_555 1_555
N7K C9K 1_555 1_555
Cd2F N6A 1_555 1_555
Cd2F_2 N6B 1_555 1_555
Cd2F_3 N6 1_555 1_555
Cd2O N6I 1_555 1_555
Cd2O_2 N6K 1_555 1_555
Cd2O_3 N6J 1_555 1_555
N6C Cd2 1_555 1_555
N6D Cd2 1_555 1_555
N6E Cd2 1_555 1_555
N6L Cd2I 1_555 1_555
N6M Cd2I 1_555 1_555
N6N Cd2I 1_555 1_555
F5A P1 1_555 1_555
F5B P1 1_555 1_555
F5O P1 1_555 1_555
F5P P1 1_555 1_555
F5Q P1 1_555 1_555
N4 C5 1_555 1_555
C6 C7 1_555 1_555
N6 N7 1_555 1_555
N2A N4A 1_555 1_555
N4A C5A 1_555 1_555
C6A C7A 1_555 1_555
N6A N7A 1_555 1_555
N2B N4B 1_555 1_555
N4B C5B 1_555 1_555
C6B C7B 1_555 1_555
N6B N7B 1_555 1_555
N4I C5I 1_555 1_555
C6I C7I 1_555 1_555
N6I N7I 1_555 1_555
N2J N4J 1_555 1_555
N4J C5J 1_555 1_555
C6J C7J 1_555 1_555
N6J N7J 1_555 1_555
N2K N4K 1_555 1_555
N4K C5K 1_555 1_555
C6K C7K 1_555 1_555
N6K N7K 1_555 1_555

#END
