
#######################################################################
#
#                 Cambridge Crystallographic Data Centre
#                                CCDC 
#
#######################################################################
#
# If this CIF has been generated from an entry in the Cambridge 
# Structural Database, then it will include bibliographic, chemical, 
# crystal, experimental, refinement or atomic coordinate data resulting 
# from the CCDC's data processing and validation procedures.
#
#######################################################################

data_REXDOP
_symmetry_cell_setting           triclinic
_symmetry_space_group_name_H-M   'P -1'
_symmetry_Int_Tables_number      2
_space_group_name_Hall           '-P 1'
loop_
_symmetry_equiv_pos_site_id
_symmetry_equiv_pos_as_xyz
1 x,y,z
2 -x,-y,-z
_cell_length_a                   14.907(5)
_cell_length_b                   18.608(6)
_cell_length_c                   32.920(11)
_cell_angle_alpha                103.269(4)
_cell_angle_beta                 93.089(4)
_cell_angle_gamma                108.970(4)
_cell_volume                     8322.85
loop_
_atom_site_label
_atom_site_type_symbol
_atom_site_fract_x
_atom_site_fract_y
_atom_site_fract_z
Zn1 Zn -0.20144(14) 1.26495(11) -0.06710(8)
I1 I -0.32843(11) 1.29850(10) -0.10322(7)
I2 I -0.21229(14) 1.24288(9) 0.00615(6)
N1 N -0.1874(8) 1.1681(8) -0.1085(5)
C1 C -0.2570(10) 1.1147(9) -0.1361(5)
H1 H -0.3185 1.1195 -0.1361
C2 C -0.2484(10) 1.0533(9) -0.1645(5)
H2 H -0.3019 1.0178 -0.1843
C3 C -0.1626(10) 1.0430(8) -0.1644(4)
C4 C -0.0890(11) 1.0956(9) -0.1337(5)
H3 H -0.0277 1.0905 -0.1322
C5 C -0.1053(9) 1.1549(9) -0.1054(5)
H4 H -0.0562 1.1878 -0.0828
C6 C -0.1488(10) 0.9789(9) -0.1954(5)
N2 N -0.2189(8) 0.9410(7) -0.2277(3)
C7 C -0.2023(10) 0.8857(7) -0.2565(4)
N3 N -0.1267(8) 0.8627(6) -0.2551(3)
C8 C -0.0612(8) 0.9064(7) -0.2218(3)
N4 N -0.0680(8) 0.9632(6) -0.1907(3)
N5 N -0.3963(8) 0.7948(6) -0.3722(3)
C9 C -0.3020(10) 0.7992(9) -0.3704(4)
H5 H -0.2789 0.7826 -0.3959
C10 C -0.2399(10) 0.8260(9) -0.3336(3)
H6 H -0.1756 0.8277 -0.3340
C11 C -0.2714(8) 0.8505(7) -0.2963(4)
C12 C -0.3652(8) 0.8473(8) -0.2975(4)
H7 H -0.3883 0.8653 -0.2722
C13 C -0.4263(9) 0.8175(8) -0.3358(4)
H8 H -0.4915 0.8134 -0.3357
N6 N 0.2039(9) 0.8580(7) -0.2207(3)
C14 C 0.1928(9) 0.9159(9) -0.1913(5)
H9 H 0.2443 0.9468 -0.1694
C15 C 0.1095(10) 0.9322(11) -0.1917(5)
H10 H 0.1077 0.9772 -0.1716
C16 C 0.0295(11) 0.8871(8) -0.2194(4)
C17 C 0.0370(12) 0.8237(10) -0.2499(5)
H11 H -0.0159 0.7887 -0.2702
C18 C 0.1275(11) 0.8144(11) -0.2487(6)
H12 H 0.1341 0.7730 -0.2700
Zn2 Zn 0.32803(14) 0.83567(13) -0.22129(7)
I3 I 0.46983(10) 0.96108(10) -0.18940(7)
I4 I 0.32157(11) 0.74965(10) -0.29478(5)
N7 N 0.3187(10) 0.7690(8) -0.1769(5)
C19 C 0.2455(12) 0.7030(9) -0.1842(5)
H13 H 0.2008 0.6883 -0.2090
C20 C 0.2307(13) 0.6543(10) -0.1578(5)
H14 H 0.1762 0.6075 -0.1640
C21 C 0.2958(10) 0.6739(9) -0.1222(4)
C22 C 0.3684(14) 0.7412(10) -0.1173(6)
H15 H 0.4168 0.7573 -0.0938
C23 C 0.3772(14) 0.7880(10) -0.1442(5)
H16 H 0.4292 0.8366 -0.1380
C24 C 0.2847(12) 0.6282(9) -0.0902(4)
N8 N 0.1959(10) 0.5720(7) -0.0933(4)
C25 C 0.1923(9) 0.5354(8) -0.0638(4)
N9 N 0.2616(7) 0.5450(6) -0.0334(3)
C26 C 0.3432(8) 0.6012(7) -0.0361(4)
N10 N 0.3576(8) 0.6447(7) -0.0629(4)
N11 N -0.0703(9) 0.3504(7) -0.0656(4)
C27 C -0.0130(9) 0.3904(7) -0.0294(4)
H17 H -0.0321 0.3788 -0.0039
C28 C 0.0732(11) 0.4479(9) -0.0283(5)
H18 H 0.1153 0.4729 -0.0025
C29 C 0.0993(9) 0.4699(8) -0.0651(4)
C30 C 0.0405(12) 0.4289(10) -0.1020(5)
H19 H 0.0577 0.4396 -0.1279
C31 C -0.0463(12) 0.3704(10) -0.1008(5)
H20 H -0.0896 0.3441 -0.1261
N12 N 0.5844(8) 0.6419(7) 0.0560(4)
C32 C 0.5845(11) 0.6917(11) 0.0314(5)
H21 H 0.6413 0.7354 0.0336
C33 C 0.5071(9) 0.6821(9) 0.0036(5)
H22 H 0.5088 0.7212 -0.0108
C34 C 0.4272(8) 0.6158(7) -0.0033(4)
C35 C 0.4241(10) 0.5631(8) 0.0213(4)
H23 H 0.3691 0.5174 0.0179
C36 C 0.5034(10) 0.5789(8) 0.0510(4)
H24 H 0.5003 0.5439 0.0683
Zn3 Zn 0.70009(12) 0.66988(10) 0.10112(5)
I5 I 0.84419(8) 0.72703(7) 0.06743(4)
I6 I 0.67241(9) 0.55828(7) 0.13679(4)
N13 N 0.6769(9) 0.7585(8) 0.1446(4)
C37 C 0.5863(11) 0.7503(10) 0.1493(5)
H25 H 0.5375 0.7093 0.1293
C38 C 0.5585(11) 0.7969(10) 0.1809(5)
H26 H 0.4926 0.7882 0.1830
C39 C 0.6300(11) 0.8575(10) 0.2099(5)
C40 C 0.7235(11) 0.8697(9) 0.2054(5)
H27 H 0.7735 0.9125 0.2240
C41 C 0.7437(10) 0.8171(8) 0.1726(4)
H28 H 0.8089 0.8237 0.1702
C42 C 0.6018(9) 0.9094(8) 0.2446(4)
N14 N 0.5063(8) 0.8912(6) 0.2451(3)
C43 C 0.4838(9) 0.9386(7) 0.2765(4)
N15 N 0.5453(8) 0.9972(6) 0.3072(3)
C44 C 0.6362(10) 1.0097(8) 0.3036(4)
N16 N 0.6710(8) 0.9654(6) 0.2723(3)
N17 N 0.1820(8) 0.8858(7) 0.2757(4)
C45 C 0.2430(7) 0.9455(8) 0.3066(4)
H29 H 0.2187 0.9759 0.3274
C46 C 0.3406(7) 0.9626(7) 0.3080(5)
H30 H 0.3827 1.0041 0.3302
C47 C 0.3788(8) 0.9199(7) 0.2770(4)
C48 C 0.3139(9) 0.8615(8) 0.2452(4)
H31 H 0.3364 0.8328 0.2228
C49 C 0.2192(11) 0.8447(10) 0.2453(5)
H32 H 0.1764 0.8027 0.2235
N18 N 0.8525(8) 1.1774(7) 0.4007(3)
C50 C 0.8729(11) 1.1355(9) 0.3658(4)
H33 H 0.9386 1.1446 0.3633
C51 C 0.8079(11) 1.0813(11) 0.3336(6)
H34 H 0.8274 1.0536 0.3098
C52 C 0.7109(9) 1.0679(7) 0.3370(4)
C53 C 0.6858(9) 1.1118(7) 0.3709(4)
H35 H 0.6204 1.1046 0.3733
C54 C 0.7602(8) 1.1686(8) 0.4024(4)
H36 H 0.7438 1.2012 0.4253
Zn4 Zn 0.03533(11) 0.85522(9) 0.27104(5)
I7 I -0.03527(8) 0.75887(8) 0.19833(3)
I8 I -0.01394(7) 0.97655(6) 0.29053(3)
N19 N -0.0091(9) 0.7952(7) 0.3162(4)
C55 C -0.0677(11) 0.8146(8) 0.3420(5)
H37 H -0.0828 0.8604 0.3419
C56 C -0.1065(12) 0.7705(8) 0.3685(5)
H38 H -0.1501 0.7851 0.3858
C57 C -0.0837(10) 0.7037(8) 0.3710(4)
C58 C -0.0234(12) 0.6822(9) 0.3433(5)
H39 H -0.0060 0.6373 0.3432
C59 C 0.0118(11) 0.7306(8) 0.3148(5)
H40 H 0.0504 0.7158 0.2948
C60 C -0.1255(10) 0.6586(7) 0.3998(4)
N20 N -0.1871(8) 0.6832(6) 0.4227(4)
C61 C -0.2232(10) 0.6413(7) 0.4499(4)
N21 N -0.2004(8) 0.5795(6) 0.4564(3)
C62 C -0.1405(9) 0.5592(7) 0.4308(3)
N22 N -0.1030(8) 0.5956(6) 0.4023(3)
N23 N -0.4048(8) 0.7247(6) 0.5292(4)
C63 C -0.4072(11) 0.6497(9) 0.5225(4)
H41 H -0.4500 0.6161 0.5363
C64 C -0.3540(14) 0.6207(10) 0.4983(6)
H42 H -0.3586 0.5674 0.4948
C65 C -0.2884(9) 0.6699(8) 0.4770(4)
C66 C -0.2889(9) 0.7425(7) 0.4831(4)
H43 H -0.2470 0.7769 0.4695
C67 C -0.3470(10) 0.7702(8) 0.5081(4)
H44 H -0.3466 0.8222 0.5106
Zn5 Zn -0.48076(11) 0.77063(10) 0.57185(5)
I9 I -0.63914(8) 0.66974(8) 0.57479(4)
I10 I -0.46911(9) 0.90774(7) 0.56358(4)
N24 N -0.0701(8) 0.3627(6) 0.4449(3)
C68 C -0.0557(16) 0.3898(9) 0.4108(6)
H45 H -0.0317 0.3619 0.3887
C69 C -0.0733(16) 0.4552(11) 0.4054(5)
H46 H -0.0585 0.4738 0.3811
C70 C -0.1128(10) 0.4926(7) 0.4363(4)
C71 C -0.1262(10) 0.4678(8) 0.4734(5)
H47 H -0.1500 0.4944 0.4961
C72 C -0.1020(11) 0.4006(8) 0.4751(5)
H48 H -0.1098 0.3827 0.4999
Zn6 Zn -0.04417(11) 0.26074(8) 0.44713(5)
I11 I 0.11730(7) 0.27343(6) 0.42252(3)
I12 I -0.07970(8) 0.23247(6) 0.51759(3)
Zn1_2 Zn -0.20144(14) 0.26495(11) -0.06710(8)
N5_2 N -0.3963(8) 0.7948(6) 0.6278(3)
N11_2 N -0.0703(9) 1.3504(7) -0.0656(4)
N18_2 N -0.1475(8) 0.1774(7) 0.4007(3)
Zn5_2 Zn -0.48076(11) 0.77063(10) -0.42815(5)
Zn6_2 Zn 0.95583(11) 1.26074(8) 0.44713(5)
O1 O 0.2590(10) 0.0060(7) 0.5442(4)
O2 O 0.1516(11) 0.0747(7) 0.5872(3)
H49 H 0.1931 0.0570 0.5947
C73 C 0.2006(11) 0.0302(9) 0.5219(4)
C74 C 0.0805(10) 0.0934(8) 0.5270(4)
H50 H 0.0424 0.1174 0.5435
C75 C 0.0739(10) 0.0843(8) 0.4837(4)
H51 H 0.0308 0.1029 0.4707
C76 C 0.1281(10) 0.0490(9) 0.4590(4)
C77 C 0.1889(11) 0.0203(9) 0.4786(4)
H52 H 0.2235 -0.0070 0.4618
C78 C 0.3146(14) -0.0330(12) 0.5205(6)
H53 H 0.3558 -0.0461 0.5397
H54 H 0.3544 0.0016 0.5051
H55 H 0.2718 -0.0814 0.5005
C79 C 0.1448(11) 0.0662(9) 0.5454(4)
O3 O 0.1661(15) 0.0107(14) 0.3899(5)
C80 C 0.1179(16) 0.0373(12) 0.4143(7)
H56 H 0.0690 0.0516 0.4022
O4 O 0.6586(17) 0.8817(13) 0.3603(6)
O5 O 0.2365(14) 0.8049(11) 0.3590(6)
O6 O 0.2237(14) 0.6997(11) 0.2865(6)
H57 H 0.1821 0.7126 0.2996
C81 C 0.4819(15) 0.7820(13) 0.3124(6)
H58 H 0.5370 0.7772 0.3006
C82 C 0.5888(15) 0.8874(15) 0.3759(10)
H59 H 0.5941 0.9218 0.4028
C83 C 0.3920(16) 0.7330(14) 0.2908(7)
H60 H 0.3852 0.6965 0.2644
C84 C 0.4120(16) 0.8438(13) 0.3667(7)
H61 H 0.4190 0.8819 0.3925
C85 C 0.4944(14) 0.8375(13) 0.3504(6)
C86 C 0.240(2) 0.8634(15) 0.3964(8)
H62 H 0.1743 0.8607 0.4009
H63 H 0.2761 0.9157 0.3932
H64 H 0.2709 0.8541 0.4206
C87 C 0.3197(15) 0.7968(15) 0.3466(8)
C88 C 0.3122(13) 0.7398(16) 0.3096(8)
loop_
_geom_bond_atom_site_label_1
_geom_bond_atom_site_label_2
_geom_bond_site_symmetry_1
_geom_bond_site_symmetry_2
Zn1 I1 1_555 1_555
I2 Zn1 1_555 1_555
N1 Zn1 1_555 1_555
C1 N1 1_555 1_555
H1 C1 1_555 1_555
C2 C1 1_555 1_555
H2 C2 1_555 1_555
C3 C2 1_555 1_555
C4 C3 1_555 1_555
H3 C4 1_555 1_555
C5 N1 1_555 1_555
H4 C5 1_555 1_555
C6 C3 1_555 1_555
N2 C6 1_555 1_555
C7 N2 1_555 1_555
N3 C7 1_555 1_555
C8 N3 1_555 1_555
N4 C6 1_555 1_555
N5 C9 1_555 1_555
C9 H5 1_555 1_555
C10 C9 1_555 1_555
H6 C10 1_555 1_555
C11 C7 1_555 1_555
C12 C11 1_555 1_555
H7 C12 1_555 1_555
C13 N5 1_555 1_555
H8 C13 1_555 1_555
N6 C14 1_555 1_555
C14 H9 1_555 1_555
C15 C14 1_555 1_555
H10 C15 1_555 1_555
C16 C8 1_555 1_555
C17 C16 1_555 1_555
H11 C17 1_555 1_555
C18 N6 1_555 1_555
H12 C18 1_555 1_555
Zn2 N6 1_555 1_555
I3 Zn2 1_555 1_555
I4 Zn2 1_555 1_555
N7 Zn2 1_555 1_555
C19 N7 1_555 1_555
H13 C19 1_555 1_555
C20 C19 1_555 1_555
H14 C20 1_555 1_555
C21 C20 1_555 1_555
C22 C21 1_555 1_555
H15 C22 1_555 1_555
C23 N7 1_555 1_555
H16 C23 1_555 1_555
C24 C21 1_555 1_555
N8 C24 1_555 1_555
C25 N8 1_555 1_555
N9 C25 1_555 1_555
C26 N9 1_555 1_555
N10 C24 1_555 1_555
N11 C27 1_555 1_555
C27 H17 1_555 1_555
C28 C27 1_555 1_555
H18 C28 1_555 1_555
C29 C25 1_555 1_555
C30 C29 1_555 1_555
H19 C30 1_555 1_555
C31 N11 1_555 1_555
H20 C31 1_555 1_555
N12 C32 1_555 1_555
C32 H21 1_555 1_555
C33 C32 1_555 1_555
H22 C33 1_555 1_555
C34 C26 1_555 1_555
C35 C34 1_555 1_555
H23 C35 1_555 1_555
C36 N12 1_555 1_555
H24 C36 1_555 1_555
Zn3 N12 1_555 1_555
I5 Zn3 1_555 1_555
I6 Zn3 1_555 1_555
N13 Zn3 1_555 1_555
C37 N13 1_555 1_555
H25 C37 1_555 1_555
C38 C37 1_555 1_555
H26 C38 1_555 1_555
C39 C38 1_555 1_555
C40 C39 1_555 1_555
H27 C40 1_555 1_555
C41 N13 1_555 1_555
H28 C41 1_555 1_555
C42 C39 1_555 1_555
N14 C42 1_555 1_555
C43 N14 1_555 1_555
N15 C43 1_555 1_555
C44 N15 1_555 1_555
N16 C42 1_555 1_555
N17 C45 1_555 1_555
C45 H29 1_555 1_555
C46 C45 1_555 1_555
H30 C46 1_555 1_555
C47 C43 1_555 1_555
C48 C47 1_555 1_555
H31 C48 1_555 1_555
C49 N17 1_555 1_555
H32 C49 1_555 1_555
N18 C50 1_555 1_555
C50 H33 1_555 1_555
C51 C50 1_555 1_555
H34 C51 1_555 1_555
C52 C44 1_555 1_555
C53 C52 1_555 1_555
H35 C53 1_555 1_555
C54 N18 1_555 1_555
H36 C54 1_555 1_555
Zn4 N17 1_555 1_555
I7 Zn4 1_555 1_555
I8 Zn4 1_555 1_555
N19 Zn4 1_555 1_555
C55 N19 1_555 1_555
H37 C55 1_555 1_555
C56 C55 1_555 1_555
H38 C56 1_555 1_555
C57 C56 1_555 1_555
C58 C57 1_555 1_555
H39 C58 1_555 1_555
C59 N19 1_555 1_555
H40 C59 1_555 1_555
C60 C57 1_555 1_555
N20 C60 1_555 1_555
C61 N20 1_555 1_555
N21 C61 1_555 1_555
C62 N21 1_555 1_555
N22 C60 1_555 1_555
N23 C63 1_555 1_555
C63 H41 1_555 1_555
C64 C63 1_555 1_555
H42 C64 1_555 1_555
C65 C61 1_555 1_555
C66 C65 1_555 1_555
H43 C66 1_555 1_555
C67 N23 1_555 1_555
H44 C67 1_555 1_555
Zn5 N23 1_555 1_555
I9 Zn5 1_555 1_555
I10 Zn5 1_555 1_555
N24 C68 1_555 1_555
C68 H45 1_555 1_555
C69 C68 1_555 1_555
H46 C69 1_555 1_555
C70 C62 1_555 1_555
C71 C70 1_555 1_555
H47 C71 1_555 1_555
C72 N24 1_555 1_555
H48 C72 1_555 1_555
Zn6 N24 1_555 1_555
I11 Zn6 1_555 1_555
I12 Zn6 1_555 1_555
O1 C73 1_555 1_555
O2 H49 1_555 1_555
C73 C77 1_555 1_555
C74 H50 1_555 1_555
C75 C74 1_555 1_555
H51 C75 1_555 1_555
C76 C75 1_555 1_555
C77 C76 1_555 1_555
H52 C77 1_555 1_555
C78 O1 1_555 1_555
H53 C78 1_555 1_555
H54 C78 1_555 1_555
H55 C78 1_555 1_555
C79 O2 1_555 1_555
O3 C80 1_555 1_555
C80 C76 1_555 1_555
H56 C80 1_555 1_555
O4 C82 1_555 1_555
O5 C86 1_555 1_555
O6 H57 1_555 1_555
C81 H58 1_555 1_555
C82 H59 1_555 1_555
C83 C81 1_555 1_555
H60 C83 1_555 1_555
C84 H61 1_555 1_555
C85 C81 1_555 1_555
C86 H62 1_555 1_555
H63 C86 1_555 1_555
H64 C86 1_555 1_555
C87 O5 1_555 1_555
C88 O6 1_555 1_555
Zn1_2 N11 1_555 1_555
N5_2 Zn5 1_555 1_555
N11_2 Zn1 1_555 1_555
N18_2 Zn6 1_555 1_555
Zn5_2 N5 1_555 1_555
Zn6_2 N18 1_555 1_555
C4 C5 1_555 1_555
C8 N4 1_555 1_555
C10 C11 1_555 1_555
C12 C13 1_555 1_555
C15 C16 1_555 1_555
C17 C18 1_555 1_555
C22 C23 1_555 1_555
C26 N10 1_555 1_555
C28 C29 1_555 1_555
C30 C31 1_555 1_555
C33 C34 1_555 1_555
C35 C36 1_555 1_555
C40 C41 1_555 1_555
C44 N16 1_555 1_555
C46 C47 1_555 1_555
C48 C49 1_555 1_555
C51 C52 1_555 1_555
C53 C54 1_555 1_555
C58 C59 1_555 1_555
C62 N22 1_555 1_555
C64 C65 1_555 1_555
C66 C67 1_555 1_555
C69 C70 1_555 1_555
C71 C72 1_555 1_555
C73 C79 1_555 1_555
C74 C79 1_555 1_555
C82 C85 1_555 1_555
C83 C88 1_555 1_555
C84 C85 1_555 1_555
C84 C87 1_555 1_555
C87 C88 1_555 1_555

#END
