
#######################################################################
#
#                 Cambridge Crystallographic Data Centre
#                                CCDC 
#
#######################################################################
#
# If this CIF has been generated from an entry in the Cambridge 
# Structural Database, then it will include bibliographic, chemical, 
# crystal, experimental, refinement or atomic coordinate data resulting 
# from the CCDC's data processing and validation procedures.
#
#######################################################################

data_REXDEF
_symmetry_cell_setting           triclinic
_symmetry_space_group_name_H-M   'P -1'
_symmetry_Int_Tables_number      2
_space_group_name_Hall           '-P 1'
loop_
_symmetry_equiv_pos_site_id
_symmetry_equiv_pos_as_xyz
1 x,y,z
2 -x,-y,-z
_cell_length_a                   14.952(9)
_cell_length_b                   18.584(11)
_cell_length_c                   32.756(19)
_cell_angle_alpha                104.933(8)
_cell_angle_beta                 102.349(7)
_cell_angle_gamma                111.615(8)
_cell_volume                     7677.77
loop_
_atom_site_label
_atom_site_type_symbol
_atom_site_fract_x
_atom_site_fract_y
_atom_site_fract_z
Zn1 Zn -0.25000(17) -0.4590(2) 1.21501(10)
I1 I -0.24258(13) -0.46490(16) 1.29261(7)
I2 I -0.29961(12) -0.35982(13) 1.18541(8)
N1 N -0.1068(10) -0.4454(11) 1.2106(6)
C1 C -0.0501(12) -0.4668(16) 1.2378(7)
H1 H -0.0768 -0.4906 1.2575
C2 C 0.0461(13) -0.4554(16) 1.2378(7)
H2 H 0.0864 -0.4711 1.2569
C3 C 0.0810(12) -0.4202(13) 1.2088(5)
C4 C 0.0194(10) -0.4050(14) 1.1787(6)
H3 H 0.0421 -0.3864 1.1567
C5 C -0.0756(11) -0.4166(14) 1.1803(8)
H4 H -0.1185 -0.4045 1.1601
C6 C 0.1885(13) -0.4010(15) 1.2083(7)
N2 N 0.2480(9) -0.4108(11) 1.2409(5)
C7 C 0.3453(10) -0.3911(14) 1.2438(6)
N3 N 0.3850(9) -0.3620(11) 1.2153(5)
C8 C 0.3149(11) -0.3629(12) 1.1820(5)
N4 N 0.2218(9) -0.3771(10) 1.1775(4)
N5 N 0.5341(10) -0.4062(14) 1.3553(5)
C9 C 0.5679(14) -0.3886(16) 1.3232(6)
H5 H 0.6336 -0.3844 1.3241
C10 C 0.5132(12) -0.3759(15) 1.2887(7)
H6 H 0.5454 -0.3534 1.2698
C11 C 0.4123(16) -0.3958(16) 1.2817(8)
C12 C 0.3705(14) -0.4248(16) 1.3102(7)
H7 H 0.3006 -0.4396 1.3069
C13 C 0.4339(10) -0.4318(16) 1.3442(7)
H8 H 0.4022 -0.4583 1.3620
N6 N 0.4286(11) -0.2882(12) 1.0814(6)
C14 C 0.3381(13) -0.2929(15) 1.0825(7)
H9 H 0.2964 -0.2840 1.0600
C15 C 0.3055(14) -0.3107(15) 1.1165(6)
H10 H 0.2415 -0.3123 1.1171
C16 C 0.3600(12) -0.3263(14) 1.1497(6)
C17 C 0.4559(12) -0.3168(17) 1.1512(7)
H11 H 0.5011 -0.3213 1.1746
C18 C 0.4804(13) -0.3001(15) 1.1153(6)
H12 H 0.5451 -0.2965 1.1148
Zn2 Zn 0.4713(3) -0.2690(3) 1.02771(14)
I3 I 0.3359(3) -0.3929(2) 0.95937(10)
I4 I 0.6679(2) -0.2124(2) 1.05817(12)
N7 N 0.4530(13) -0.1662(13) 1.0302(6)
C19 C 0.3864(15) -0.1608(14) 0.9986(7)
H13 H 0.3505 -0.2098 0.9722
C20 C 0.3586(15) -0.0990(13) 0.9962(8)
H14 H 0.3054 -0.1059 0.9714
C21 C 0.4145(12) -0.0267(14) 1.0329(7)
C22 C 0.4863(14) -0.0253(14) 1.0673(7)
H15 H 0.5268 0.0246 1.0930
C23 C 0.5009(18) -0.0943(12) 1.0652(8)
H16 H 0.5489 -0.0907 1.0909
C24 C 0.3917(11) 0.0506(14) 1.0395(6)
N8 N 0.2980(9) 0.0297(9) 1.0125(4)
C25 C 0.2854(13) 0.0989(13) 1.0220(6)
N9 N 0.3495(9) 0.1749(11) 1.0509(5)
C26 C 0.4391(11) 0.1841(15) 1.0750(6)
N10 N 0.4630(11) 0.1209(11) 1.0692(5)
N11 N -0.0110(10) 0.0670(9) 0.9489(5)
C27 C 0.0574(10) 0.1401(11) 0.9806(5)
H17 H 0.0376 0.1835 0.9879
C28 C 0.1557(10) 0.1561(13) 1.0034(7)
H18 H 0.2067 0.2110 1.0221
C29 C 0.1761(14) 0.0882(14) 0.9976(7)
C30 C 0.1009(12) 0.0058(17) 0.9671(8)
H19 H 0.1138 -0.0415 0.9624
C31 C 0.0090(11) 0.0019(11) 0.9456(6)
H20 H -0.0450 -0.0517 0.9267
N12 N 0.6542(9) 0.4283(12) 1.1692(5)
C32 C 0.6675(17) 0.3619(17) 1.1644(9)
H21 H 0.7291 0.3703 1.1850
C33 C 0.6070(13) 0.2814(16) 1.1343(8)
H22 H 0.6301 0.2399 1.1332
C34 C 0.5118(12) 0.2620(15) 1.1056(7)
C35 C 0.4977(18) 0.3323(12) 1.1105(7)
H23 H 0.4351 0.3253 1.0914
C36 C 0.5648(11) 0.4115(13) 1.1403(6)
H24 H 0.5473 0.4557 1.1403
Zn3 Zn -0.14092(15) 0.06439(17) 0.90797(8)
I5 I -0.17206(10) 0.18183(11) 0.95147(5)
I6 I -0.26773(11) -0.08835(12) 0.86703(6)
N13 N -0.0757(12) 0.1028(12) 0.8628(6)
C37 C -0.0092(16) 0.0737(15) 0.8519(7)
H25 H 0.0066 0.0397 0.8666
C38 C 0.0371(15) 0.0908(14) 0.8206(7)
H26 H 0.0854 0.0720 0.8142
C39 C 0.0058(14) 0.1383(13) 0.7994(7)
C40 C -0.0608(12) 0.1692(12) 0.8101(6)
H27 H -0.0790 0.2034 0.7963
C41 C -0.0991(12) 0.1474(13) 0.8420(6)
H28 H -0.1465 0.1666 0.8494
C42 C 0.0533(13) 0.1556(12) 0.7637(6)
N14 N 0.1306(10) 0.1363(10) 0.7626(5)
C43 C 0.1682(13) 0.1568(15) 0.7314(7)
N15 N 0.1356(9) 0.1857(9) 0.7022(5)
C44 C 0.0569(11) 0.2014(12) 0.7072(5)
N16 N 0.0109(10) 0.1913(11) 0.7371(5)
N17 N 0.4409(13) 0.1251(13) 0.7363(7)
C45 C 0.3981(16) 0.1442(17) 0.7035(7)
H29 H 0.4281 0.1512 0.6811
C46 C 0.3103(14) 0.1542(17) 0.7014(7)
H30 H 0.2812 0.1680 0.6776
C47 C 0.2644(13) 0.1446(12) 0.7329(5)
C48 C 0.3040(15) 0.1177(15) 0.7642(7)
H31 H 0.2703 0.1029 0.7844
C49 C 0.3934(16) 0.1128(16) 0.7655(7)
H32 H 0.4239 0.0994 0.7892
Zn4 Zn 0.56300(19) 0.0969(2) 0.73952(11)
I7 I 0.61067(15) 0.07418(16) 0.81328(8)
I8 I 0.68997(14) 0.19223(13) 0.71392(9)
N18 N -0.0813(10) 0.2850(11) 0.6126(5)
C50 C -0.1120(15) 0.2787(17) 0.6476(6)
H33 H -0.1661 0.2921 0.6511
C51 C -0.0668(13) 0.2533(14) 0.6786(7)
H34 H -0.0917 0.2491 0.7027
C52 C 0.0123(12) 0.2337(13) 0.6763(7)
C53 C 0.0445(13) 0.2404(12) 0.6398(6)
H35 H 0.1003 0.2295 0.6365
C54 C -0.0072(13) 0.2638(12) 0.6079(7)
H36 H 0.0120 0.2644 0.5821
Zn5 Zn -0.14812(18) 0.3225(2) 0.56625(10)
I9 I -0.23617(15) 0.40038(18) 0.60323(8)
I10 I -0.23393(15) 0.19715(15) 0.49228(8)
N19 N -0.0249(13) 0.4119(13) 0.5620(6)
C55 C 0.0044(14) 0.3987(12) 0.5227(7)
H37 H -0.0318 0.3471 0.4979
C56 C 0.0863(15) 0.4634(13) 0.5224(8)
H38 H 0.1029 0.4561 0.4957
C57 C 0.1461(15) 0.5380(16) 0.5578(6)
C58 C 0.1207(16) 0.5449(14) 0.5960(6)
H39 H 0.1637 0.5925 0.6227
C59 C 0.0342(17) 0.4839(14) 0.5962(9)
H40 H 0.0156 0.4939 0.6223
C60 C 0.2344(17) 0.6013(19) 0.5560(8)
N20 N 0.2796(11) 0.5793(11) 0.5269(6)
C61 C 0.3706(12) 0.6381(13) 0.5330(7)
N21 N 0.4102(12) 0.7173(13) 0.5611(6)
C62 C 0.3639(16) 0.7355(16) 0.5901(9)
N22 N 0.2706(12) 0.6798(13) 0.5880(6)
N23 N 0.5344(13) 0.5843(12) 0.4484(7)
C63 C 0.552(2) 0.6609(15) 0.4732(8)
H41 H 0.6047 0.7045 0.4699
C64 C 0.5072(16) 0.6882(13) 0.5029(8)
H42 H 0.5293 0.7450 0.5205
C65 C 0.4268(13) 0.6226(14) 0.5036(6)
C66 C 0.3972(14) 0.5388(17) 0.4758(7)
H43 H 0.3393 0.4942 0.4756
C67 C 0.4535(14) 0.5235(13) 0.4494(7)
H44 H 0.4339 0.4675 0.4313
N24 N 0.4840(13) 0.9847(11) 0.6849(7)
C68 C 0.421(2) 0.9215(14) 0.6920(12)
H45 H 0.4108 0.9289 0.7201
C69 C 0.371(2) 0.8469(19) 0.6586(10)
H46 H 0.3082 0.8078 0.6583
C70 C 0.4072(16) 0.8247(14) 0.6251(8)
C71 C 0.4822(16) 0.8891(15) 0.6204(9)
H47 H 0.5059 0.8791 0.5958
C72 C 0.5225(19) 0.9688(18) 0.6521(8)
H48 H 0.5782 1.0129 0.6506
Zn6 Zn 0.61102(19) 0.5623(2) 0.40367(10)
I11 I 0.79295(12) 0.67506(16) 0.44045(7)
I12 I 0.55025(16) 0.40779(16) 0.36782(7)
Zn1_2 Zn 0.75000(17) 0.5410(2) 1.21501(10)
N5_2 N 0.5341(10) 0.5938(14) 0.3553(5)
N12_2 N -0.3458(9) -0.5717(12) 1.1692(5)
Zn4_2 Zn 0.56300(19) 1.0969(2) 0.73952(11)
N24_2 N 0.4840(13) -0.0153(11) 0.6849(7)
Zn6_2 Zn 0.61102(19) -0.4377(2) 1.40367(10)
O1 O -0.0019(16) 0.3473(13) 0.9029(7)
O2 O 0.1211(17) 0.3786(15) 0.9649(8)
C73 C 0.0404(19) 0.3847(16) 0.9427(7)
C74 C 0.0203(16) 0.4444(12) 0.9752(7)
C75 C -0.0368(18) 0.4923(16) 0.9588(8)
H49 H -0.0638 0.4846 0.9264
C76 C -0.044(2) 0.4289(17) 1.0066(9)
H50 H -0.0760 0.3752 1.0111
C77 C 0.147(3) 0.323(2) 0.9366(12)
H51 H 0.2042 0.3185 0.9548
H52 H 0.1664 0.3447 0.9139
H53 H 0.0874 0.2682 0.9217
C78 C 0.1033(14) 0.5266(17) 1.0137(9)
H54 H 0.1790 0.5458 1.0236
O1A O 0.0019(16) 0.6527(13) 1.0971(7)
O2A O -0.1211(17) 0.6214(15) 1.0351(8)
C73A C -0.0404(19) 0.6153(16) 1.0573(7)
C74A C -0.0203(16) 0.5556(12) 1.0248(7)
C75A C 0.0368(18) 0.5077(16) 1.0412(8)
H49A H 0.0638 0.5154 1.0736
C76A C 0.044(2) 0.5711(17) 0.9934(9)
H50A H 0.0760 0.6248 0.9889
C77A C -0.147(3) 0.677(2) 1.0634(12)
H51A H -0.2042 0.6815 1.0452
H52A H -0.1664 0.6553 1.0861
H53A H -0.0874 0.7318 1.0783
C78A C -0.1033(14) 0.4734(17) 0.9863(9)
H54A H -0.1790 0.4542 0.9764
loop_
_geom_bond_atom_site_label_1
_geom_bond_atom_site_label_2
_geom_bond_site_symmetry_1
_geom_bond_site_symmetry_2
Zn1 I1 1_555 1_555
I2 Zn1 1_555 1_555
N1 Zn1 1_555 1_555
C1 N1 1_555 1_555
H1 C1 1_555 1_555
C2 C1 1_555 1_555
H2 C2 1_555 1_555
C3 C2 1_555 1_555
C4 C3 1_555 1_555
H3 C4 1_555 1_555
C5 N1 1_555 1_555
H4 C5 1_555 1_555
C6 C3 1_555 1_555
N2 C6 1_555 1_555
C7 N2 1_555 1_555
N3 C7 1_555 1_555
C8 N3 1_555 1_555
N4 C6 1_555 1_555
N5 C9 1_555 1_555
C9 H5 1_555 1_555
C10 C9 1_555 1_555
H6 C10 1_555 1_555
C11 C7 1_555 1_555
C12 C11 1_555 1_555
H7 C12 1_555 1_555
C13 N5 1_555 1_555
H8 C13 1_555 1_555
N6 C14 1_555 1_555
C14 H9 1_555 1_555
C15 C14 1_555 1_555
H10 C15 1_555 1_555
C16 C8 1_555 1_555
C17 C16 1_555 1_555
H11 C17 1_555 1_555
C18 N6 1_555 1_555
H12 C18 1_555 1_555
Zn2 N6 1_555 1_555
I3 Zn2 1_555 1_555
I4 Zn2 1_555 1_555
N7 Zn2 1_555 1_555
C19 N7 1_555 1_555
H13 C19 1_555 1_555
C20 C19 1_555 1_555
H14 C20 1_555 1_555
C21 C20 1_555 1_555
C22 C21 1_555 1_555
H15 C22 1_555 1_555
C23 N7 1_555 1_555
H16 C23 1_555 1_555
C24 C21 1_555 1_555
N8 C24 1_555 1_555
C25 N8 1_555 1_555
N9 C25 1_555 1_555
C26 N9 1_555 1_555
N10 C24 1_555 1_555
N11 C27 1_555 1_555
C27 H17 1_555 1_555
C28 C27 1_555 1_555
H18 C28 1_555 1_555
C29 C25 1_555 1_555
C30 C29 1_555 1_555
H19 C30 1_555 1_555
C31 N11 1_555 1_555
H20 C31 1_555 1_555
N12 C32 1_555 1_555
C32 H21 1_555 1_555
C33 C32 1_555 1_555
H22 C33 1_555 1_555
C34 C26 1_555 1_555
C35 C34 1_555 1_555
H23 C35 1_555 1_555
C36 N12 1_555 1_555
H24 C36 1_555 1_555
Zn3 N11 1_555 1_555
I5 Zn3 1_555 1_555
I6 Zn3 1_555 1_555
N13 Zn3 1_555 1_555
C37 N13 1_555 1_555
H25 C37 1_555 1_555
C38 C37 1_555 1_555
H26 C38 1_555 1_555
C39 C38 1_555 1_555
C40 C39 1_555 1_555
H27 C40 1_555 1_555
C41 N13 1_555 1_555
H28 C41 1_555 1_555
C42 C39 1_555 1_555
N14 C42 1_555 1_555
C43 N14 1_555 1_555
N15 C43 1_555 1_555
C44 N15 1_555 1_555
N16 C42 1_555 1_555
N17 C45 1_555 1_555
C45 H29 1_555 1_555
C46 C45 1_555 1_555
H30 C46 1_555 1_555
C47 C43 1_555 1_555
C48 C47 1_555 1_555
H31 C48 1_555 1_555
C49 N17 1_555 1_555
H32 C49 1_555 1_555
Zn4 N17 1_555 1_555
I7 Zn4 1_555 1_555
I8 Zn4 1_555 1_555
N18 C50 1_555 1_555
C50 H33 1_555 1_555
C51 C50 1_555 1_555
H34 C51 1_555 1_555
C52 C44 1_555 1_555
C53 C52 1_555 1_555
H35 C53 1_555 1_555
C54 N18 1_555 1_555
H36 C54 1_555 1_555
Zn5 N18 1_555 1_555
I9 Zn5 1_555 1_555
I10 Zn5 1_555 1_555
N19 Zn5 1_555 1_555
C55 N19 1_555 1_555
H37 C55 1_555 1_555
C56 C55 1_555 1_555
H38 C56 1_555 1_555
C57 C56 1_555 1_555
C58 C57 1_555 1_555
H39 C58 1_555 1_555
C59 N19 1_555 1_555
H40 C59 1_555 1_555
C60 C57 1_555 1_555
N20 C60 1_555 1_555
C61 N20 1_555 1_555
N21 C61 1_555 1_555
C62 N21 1_555 1_555
N22 C60 1_555 1_555
N23 C63 1_555 1_555
C63 H41 1_555 1_555
C64 C63 1_555 1_555
H42 C64 1_555 1_555
C65 C61 1_555 1_555
C66 C65 1_555 1_555
H43 C66 1_555 1_555
C67 N23 1_555 1_555
H44 C67 1_555 1_555
N24 C68 1_555 1_555
C68 H45 1_555 1_555
C69 C68 1_555 1_555
H46 C69 1_555 1_555
C70 C62 1_555 1_555
C71 C70 1_555 1_555
H47 C71 1_555 1_555
C72 N24 1_555 1_555
H48 C72 1_555 1_555
Zn6 N23 1_555 1_555
I11 Zn6 1_555 1_555
I12 Zn6 1_555 1_555
O1 C73 1_555 1_555
O2 C73 1_555 1_555
C73 C74 1_555 1_555
C74 C75 1_555 1_555
C75 H49 1_555 1_555
C76 C74 1_555 1_555
H50 C76 1_555 1_555
C77 O2 1_555 1_555
H51 C77 1_555 1_555
H52 C77 1_555 1_555
H53 C77 1_555 1_555
C78 C74 1_555 1_555
H54 C78 1_555 1_555
Zn1_2 N12 1_555 1_555
N5_2 Zn6 1_555 1_555
N12_2 Zn1 1_555 1_555
Zn4_2 N24 1_555 1_555
N24_2 Zn4 1_555 1_555
Zn6_2 N5 1_555 1_555
O1A C73A 1_555 1_555
O2A C73A 1_555 1_555
C73A C74A 1_555 1_555
C74A C75A 1_555 1_555
C75A C76 1_555 1_555
H49A C75A 1_555 1_555
C76A C75 1_555 1_555
H50A C76A 1_555 1_555
C77A O2A 1_555 1_555
H51A C77A 1_555 1_555
H52A C77A 1_555 1_555
H53A C77A 1_555 1_555
C78A C75 1_555 1_555
H54A C78A 1_555 1_555
C4 C5 1_555 1_555
C8 N4 1_555 1_555
C10 C11 1_555 1_555
C12 C13 1_555 1_555
C15 C16 1_555 1_555
C17 C18 1_555 1_555
C22 C23 1_555 1_555
C26 N10 1_555 1_555
C28 C29 1_555 1_555
C30 C31 1_555 1_555
C33 C34 1_555 1_555
C35 C36 1_555 1_555
C40 C41 1_555 1_555
C44 N16 1_555 1_555
C46 C47 1_555 1_555
C48 C49 1_555 1_555
C51 C52 1_555 1_555
C53 C54 1_555 1_555
C58 C59 1_555 1_555
C62 N22 1_555 1_555
C64 C65 1_555 1_555
C66 C67 1_555 1_555
C69 C70 1_555 1_555
C71 C72 1_555 1_555
C76 C78A 1_555 1_555
C78 C75A 1_555 1_555
C78 C76A 1_555 1_555
C74A C76A 1_555 1_555
C74A C78A 1_555 1_555

#END
