
#######################################################################
#
#                 Cambridge Crystallographic Data Centre
#                                CCDC 
#
#######################################################################
#
# If this CIF has been generated from an entry in the Cambridge 
# Structural Database, then it will include bibliographic, chemical, 
# crystal, experimental, refinement or atomic coordinate data resulting 
# from the CCDC's data processing and validation procedures.
#
#######################################################################

data_REYPIW
_symmetry_cell_setting           triclinic
_symmetry_space_group_name_H-M   'P -1'
_symmetry_Int_Tables_number      2
_space_group_name_Hall           '-P 1'
loop_
_symmetry_equiv_pos_site_id
_symmetry_equiv_pos_as_xyz
1 x,y,z
2 -x,-y,-z
_cell_length_a                   11.4581(4)
_cell_length_b                   11.6819(4)
_cell_length_c                   11.8696(6)
_cell_angle_alpha                64.132(4)
_cell_angle_beta                 81.202(4)
_cell_angle_gamma                72.663(3)
_cell_volume                     1364.15
loop_
_atom_site_label
_atom_site_type_symbol
_atom_site_fract_x
_atom_site_fract_y
_atom_site_fract_z
Zn1 Zn 0.0000 1.0000 0.5000
Zn2 Zn 0.0000 0.5000 0.5000
Zn3 Zn 0.0000 1.0000 0.0000
O1 O -0.0836(3) 0.8451(3) 0.5504(3)
O2 O -0.0437(3) 0.6328(3) 0.5885(3)
O3 O -0.0436(3) 1.0778(3) 0.3117(3)
O4 O -0.0521(4) 1.1043(3) 0.1165(3)
N1 N 0.0032(3) 0.6760(4) 0.3495(4)
N2 N 0.1732(3) 0.8758(4) 0.4749(4)
N3 N 0.7996(4) 0.5441(4) 0.4828(4)
N4 N 0.0234(4) 0.7171(4) 0.2265(4)
C1 C 0.2492(4) 0.9194(5) 0.3777(5)
H1 H 0.2202 1.0007 0.3120
C2 C -0.0233(4) 0.7795(5) 0.3805(5)
N5 N 0.0093(4) 0.8463(4) 0.1775(4)
C3 C -0.0396(4) 1.0332(5) 0.2334(4)
C4 C 0.5467(4) 0.6563(5) 0.4725(5)
C5 C 0.3343(4) 0.6804(5) 0.5670(5)
H2 H 0.3599 0.5981 0.6326
C6 C 0.3687(4) 0.8494(5) 0.3702(5)
H3 H 0.4181 0.8829 0.3004
C7 C 0.7442(4) 0.6158(5) 0.3734(5)
H4 H 0.7916 0.6278 0.3002
N6 N 0.1887(4) 0.9986(4) 0.0102(4)
C8 C -0.0515(4) 0.7524(5) 0.5161(4)
C9 C -0.0196(4) 0.8887(5) 0.2702(4)
C10 C 0.4146(4) 0.7276(5) 0.4686(5)
C11 C 0.2160(4) 0.7567(5) 0.5669(5)
H5 H 0.1636 0.7238 0.6338
C12 C 0.6188(5) 0.6736(5) 0.3634(5)
H6 H 0.5837 0.7229 0.2852
C13 C 0.6037(4) 0.5761(5) 0.5861(5)
H7 H 0.5583 0.5581 0.6609
C14 C 0.7291(5) 0.5231(5) 0.5868(5)
H8 H 0.7662 0.4702 0.6637
C15 C 0.4344(5) 0.9994(5) 0.0033(5)
C16 C 0.4008(5) 0.8848(6) 0.0316(6)
H9 H 0.4604 0.8056 0.0486
C17 C 0.2205(5) 1.1087(6) -0.0152(6)
H10 H 0.1589 1.1863 -0.0316
C18 C 0.3391(5) 1.1134(6) -0.0183(6)
H11 H 0.3561 1.1923 -0.0347
C19 C 0.2797(6) 0.8883(6) 0.0345(6)
H12 H 0.2596 0.8100 0.0543
N6A N 0.8113(4) 1.0014(4) -0.0102(4)
C15A C 0.5656(5) 1.0006(5) -0.0033(5)
C16A C 0.5992(5) 1.1152(6) -0.0316(6)
H9A H 0.5396 1.1944 -0.0486
C17A C 0.7795(5) 0.8913(6) 0.0152(6)
H10A H 0.8411 0.8137 0.0316
C18A C 0.6609(5) 0.8866(6) 0.0183(6)
H11A H 0.6439 0.8077 0.0347
C19A C 0.7203(6) 1.1117(6) -0.0345(6)
H12A H 0.7404 1.1900 -0.0543
O1A O 0.0836(3) 0.1549(3) 0.4496(3)
O2A O 0.0437(3) 0.3672(3) 0.4115(3)
O3A O 0.0436(3) -0.0778(3) 0.6883(3)
O4A O 0.0521(4) -0.1043(3) 0.8835(3)
N1A N -0.0032(3) 0.3240(4) 0.6505(4)
N4A N -0.0234(4) 0.2829(4) 0.7735(4)
C2A C 0.0233(4) 0.2205(5) 0.6195(5)
N5A N -0.0093(4) 0.1537(4) 0.8225(4)
C3A C 0.0396(4) -0.0332(5) 0.7666(4)
C8A C 0.0515(4) 0.2476(5) 0.4839(4)
C9A C 0.0196(4) 0.1113(5) 0.7298(4)
N2A N -0.1732(3) 1.1242(4) 0.5251(4)
N3A N -0.7996(4) 1.4559(4) 0.5172(4)
C1A C -0.2492(4) 1.0806(5) 0.6223(5)
H1A H -0.2202 0.9993 0.6880
C4A C -0.5467(4) 1.3437(5) 0.5275(5)
C5A C -0.3343(4) 1.3196(5) 0.4330(5)
H2A H -0.3599 1.4019 0.3674
C6A C -0.3687(4) 1.1506(5) 0.6298(5)
H3A H -0.4181 1.1171 0.6996
C7A C -0.7442(4) 1.3842(5) 0.6266(5)
H4A H -0.7916 1.3722 0.6998
C10A C -0.4146(4) 1.2724(5) 0.5314(5)
C11A C -0.2160(4) 1.2433(5) 0.4331(5)
H5A H -0.1636 1.2762 0.3662
C12A C -0.6188(5) 1.3264(5) 0.6366(5)
H6A H -0.5837 1.2771 0.7148
C13A C -0.6037(4) 1.4239(5) 0.4139(5)
H7A H -0.5583 1.4419 0.3391
C14A C -0.7291(5) 1.4769(5) 0.4132(5)
H8A H -0.7662 1.5298 0.3363
Zn1_2 Zn 0.0000 0.0000 0.5000
Zn2_2 Zn -1.0000 1.5000 0.5000
Zn2_3 Zn 1.0000 0.5000 0.5000
Zn3_2 Zn 0.0000 0.0000 1.0000
Zn3_3 Zn 1.0000 1.0000 0.0000
O1A_2 O 0.0836(3) 1.1549(3) 0.4496(3)
O3A_2 O 0.0436(3) 0.9222(3) 0.6883(3)
O4A_2 O 0.0521(4) 0.8957(3) -0.1165(3)
N3_2 N -0.2004(4) 0.5441(4) 0.4828(4)
N3A_2 N 0.2004(4) 0.4559(4) 0.5172(4)
N5A_2 N -0.0093(4) 1.1537(4) -0.1775(4)
N6A_2 N -0.1887(4) 1.0014(4) -0.0102(4)
O5 O 0.6300(8) 0.5684(6) 0.1458(5)
C20 C 0.4934(7) 0.9526(8) 0.5618(8)
N7 N 0.4533(8) 0.7656(9) 0.8098(9)
C21 C 0.5819(10) 0.8551(10) 0.6415(11)
H13 H 0.6626 0.8475 0.6119
C22 C 0.3789(10) 0.9555(12) 0.6194(11)
H14 H 0.3116 1.0220 0.5781
C23 C 0.5632(12) 0.7746(13) 0.7518(13)
H15 H 0.6319 0.7160 0.7973
C24 C 0.3627(12) 0.8594(13) 0.7393(12)
H16 H 0.2833 0.8616 0.7716
C20A C 0.5066(7) 1.0474(8) 0.4382(8)
N7A N 0.5467(8) 1.2344(9) 0.1902(9)
C21A C 0.4181(10) 1.1449(10) 0.3585(11)
H13A H 0.3374 1.1525 0.3881
C22A C 0.6211(10) 1.0445(12) 0.3806(11)
H14A H 0.6884 0.9780 0.4219
C23A C 0.4368(12) 1.2254(13) 0.2482(13)
H15A H 0.3681 1.2840 0.2027
C24A C 0.6373(12) 1.1406(13) 0.2607(12)
H16A H 0.7167 1.1384 0.2284
O6 O 0.3969(14) 0.5861(10) 0.0614(13)
O7 O 0.9114(17) 0.5015(13) 0.1747(12)
O8 O 0.9149(18) 0.3655(9) 0.0639(15)
O9 O 0.1757(16) 0.5353(18) 0.1190(17)
O10 O 0.1378(14) 0.2684(16) 0.1859(15)
O11? O 0.1068(17) 0.4059(19) 0.1701(18)
loop_
_geom_bond_atom_site_label_1
_geom_bond_atom_site_label_2
_geom_bond_site_symmetry_1
_geom_bond_site_symmetry_2
Zn1 O1 1_555 1_555
Zn2 O2 1_555 1_555
Zn3 O4 1_555 1_555
O1 C8 1_555 1_555
O2 C8 1_555 1_555
O3 Zn1 1_555 1_555
O4 C3 1_555 1_555
N1 Zn2 1_555 1_555
N2 Zn1 1_555 1_555
N3 C7 1_555 1_555
N4 N1 1_555 1_555
C1 N2 1_555 1_555
H1 C1 1_555 1_555
C2 N1 1_555 1_555
N5 Zn3 1_555 1_555
C3 O3 1_555 1_555
C4 C10 1_555 1_555
C5 H2 1_555 1_555
C6 C1 1_555 1_555
H3 C6 1_555 1_555
C7 H4 1_555 1_555
N6 Zn3 1_555 1_555
C8 C2 1_555 1_555
C9 C2 1_555 1_555
C10 C5 1_555 1_555
C11 N2 1_555 1_555
H5 C11 1_555 1_555
C12 C4 1_555 1_555
H6 C12 1_555 1_555
C13 C4 1_555 1_555
H7 C13 1_555 1_555
C14 N3 1_555 1_555
H8 C14 1_555 1_555
C15 C16 1_555 1_555
C16 H9 1_555 1_555
C17 N6 1_555 1_555
H10 C17 1_555 1_555
C18 C15 1_555 1_555
H11 C18 1_555 1_555
C19 N6 1_555 1_555
H12 C19 1_555 1_555
C20 C21 1_555 1_555
N7 C23 1_555 1_555
C21 H13 1_555 1_555
C22 C20 1_555 1_555
H14 C22 1_555 1_555
C23 C21 1_555 1_555
H15 C23 1_555 1_555
C24 N7 1_555 1_555
H16 C24 1_555 1_555
N6A C17A 1_555 1_555
C15A C15 1_555 1_555
C16A C15A 1_555 1_555
H9A C16A 1_555 1_555
C17A H10A 1_555 1_555
C18A C15A 1_555 1_555
H11A C18A 1_555 1_555
C19A N6A 1_555 1_555
H12A C19A 1_555 1_555
O1A C8A 1_555 1_555
O2A Zn2 1_555 1_555
O3A C3A 1_555 1_555
O4A C3A 1_555 1_555
N1A Zn2 1_555 1_555
N4A N1A 1_555 1_555
C2A N1A 1_555 1_555
N5A N4A 1_555 1_555
C3A C9A 1_555 1_555
C8A O2A 1_555 1_555
C9A C2A 1_555 1_555
N2A Zn1 1_555 1_555
N3A C7A 1_555 1_555
C1A N2A 1_555 1_555
H1A C1A 1_555 1_555
C4A C10A 1_555 1_555
C5A H2A 1_555 1_555
C6A C1A 1_555 1_555
H3A C6A 1_555 1_555
C7A H4A 1_555 1_555
C10A C5A 1_555 1_555
C11A N2A 1_555 1_555
H5A C11A 1_555 1_555
C12A C4A 1_555 1_555
H6A C12A 1_555 1_555
C13A C4A 1_555 1_555
H7A C13A 1_555 1_555
C14A N3A 1_555 1_555
H8A C14A 1_555 1_555
Zn1_2 O1A 1_555 1_555
Zn2_2 N3A 1_555 1_555
Zn2_3 N3 1_555 1_555
Zn3_2 O4A 1_555 1_555
Zn3_3 N6A 1_555 1_555
O1A_2 Zn1 1_555 1_555
O3A_2 Zn1 1_555 1_555
O4A_2 Zn3 1_555 1_555
N3_2 Zn2 1_555 1_555
N3A_2 Zn2 1_555 1_555
N5A_2 Zn3 1_555 1_555
N6A_2 Zn3 1_555 1_555
C20A C20 1_555 1_555
N7A C23A 1_555 1_555
C21A C20A 1_555 1_555
H13A C21A 1_555 1_555
C22A C20A 1_555 1_555
H14A C22A 1_555 1_555
C23A C21A 1_555 1_555
H15A C23A 1_555 1_555
C24A N7A 1_555 1_555
H16A C24A 1_555 1_555
N4 N5 1_555 1_555
N5 C9 1_555 1_555
C3 C9 1_555 1_555
C5 C11 1_555 1_555
C6 C10 1_555 1_555
C7 C12 1_555 1_555
C13 C14 1_555 1_555
C16 C19 1_555 1_555
C17 C18 1_555 1_555
C22 C24 1_555 1_555
C16A C19A 1_555 1_555
C17A C18A 1_555 1_555
O3A Zn1_2 1_555 1_555
C2A C8A 1_555 1_555
N5A C9A 1_555 1_555
N5A Zn3_2 1_555 1_555
C5A C11A 1_555 1_555
C6A C10A 1_555 1_555
C7A C12A 1_555 1_555
C13A C14A 1_555 1_555
C22A C24A 1_555 1_555

#END
