
#######################################################################
#
#                 Cambridge Crystallographic Data Centre
#                                CCDC 
#
#######################################################################
#
# If this CIF has been generated from an entry in the Cambridge 
# Structural Database, then it will include bibliographic, chemical, 
# crystal, experimental, refinement or atomic coordinate data resulting 
# from the CCDC's data processing and validation procedures.
#
#######################################################################

data_RIFTAD
_symmetry_cell_setting           monoclinic
_symmetry_space_group_name_H-M   'C 2/c'
_symmetry_Int_Tables_number      15
_space_group_name_Hall           '-C 2yn'
loop_
_symmetry_equiv_pos_site_id
_symmetry_equiv_pos_as_xyz
1 x,y,z
2 -x,y,1/2-z
3 1/2+x,1/2+y,z
4 1/2-x,1/2+y,1/2-z
5 -x,-y,-z
6 x,-y,1/2+z
7 1/2-x,1/2-y,-z
8 1/2+x,1/2-y,1/2+z
_cell_length_a                   47.189(9)
_cell_length_b                   27.418(5)
_cell_length_c                   40.663(8)
_cell_angle_alpha                90
_cell_angle_beta                 110.347(2)
_cell_angle_gamma                90
_cell_volume                     49328.2
loop_
_atom_site_label
_atom_site_type_symbol
_atom_site_fract_x
_atom_site_fract_y
_atom_site_fract_z
Ru1 Ru 0.210001(7) 0.513592(10) 0.301234(7)
Ru2 Ru 0.208989(7) 0.723883(11) 0.060496(7)
Ru3 Ru 0.418672(7) 0.712085(11) 0.297624(8)
Ru4 Ru 0.412210(6) 0.299804(10) 0.294596(7)
Ru5 Ru 0.413253(7) 0.503141(11) 0.057301(8)
Ru6 Ru 0.198390(7) 0.315046(11) 0.058278(8)
C1 C 0.44164(8) 0.61307(14) 0.28177(10)
H1 H 0.4582 0.6316 0.2804
C2 C 0.44084(9) 0.56330(14) 0.27520(11)
H2 H 0.4567 0.5482 0.2695
C3 C 0.41707(8) 0.53600(14) 0.27693(10)
H3 H 0.4163 0.5018 0.2728
C4 C 0.39404(8) 0.55921(12) 0.28487(9)
C5 C 0.39632(7) 0.60899(12) 0.29104(9)
H4 H 0.3805 0.6248 0.2962
C6 C 0.36718(8) 0.53242(12) 0.28569(9)
C7 C 0.34316(7) 0.46091(12) 0.28519(8)
C8 C 0.32005(7) 0.53260(12) 0.28743(8)
C9 C 0.24156(8) 0.60540(12) 0.28679(10)
H5 H 0.2236 0.6216 0.2863
C10 C 0.26344(9) 0.63204(13) 0.28036(11)
H6 H 0.2605 0.6659 0.2755
C11 C 0.29020(8) 0.60956(13) 0.28091(10)
H7 H 0.3059 0.6276 0.2770
C12 C 0.29290(8) 0.55960(12) 0.28744(9)
C13 C 0.26931(7) 0.53516(12) 0.29344(8)
H8 H 0.2712 0.5010 0.2975
C14 C 0.36908(7) 0.38136(11) 0.29022(8)
H9 H 0.3875 0.3991 0.2970
C15 C 0.34226(7) 0.40740(12) 0.28301(9)
C16 C 0.31545(8) 0.38184(13) 0.27418(10)
H10 H 0.2968 0.3985 0.2696
C17 C 0.31628(8) 0.33133(13) 0.27212(10)
H11 H 0.2981 0.3128 0.2659
C18 C 0.34374(8) 0.30839(13) 0.27926(9)
H12 H 0.3441 0.2738 0.2779
C19 C 0.43769(8) 0.38068(14) 0.26016(9)
H13 H 0.4546 0.3795 0.2813
C20 C 0.43815(9) 0.41417(16) 0.23519(10)
H14 H 0.4552 0.4347 0.2389
C21 C 0.41331(8) 0.41751(14) 0.20452(10)
H15 H 0.4129 0.4408 0.1870
C22 C 0.38930(8) 0.38648(13) 0.19988(9)
C23 C 0.39080(8) 0.35326(12) 0.22630(9)
H16 H 0.3741 0.3320 0.2230
C24 C 0.36197(8) 0.38731(12) 0.16820(9)
C25 C 0.33847(7) 0.41325(12) 0.11295(9)
C26 C 0.31260(8) 0.36905(12) 0.13997(8)
C27 C 0.26046(8) 0.33956(12) 0.10894(9)
H17 H 0.2626 0.3510 0.0879
C28 C 0.28460(8) 0.34519(12) 0.14003(9)
C29 C 0.28224(8) 0.32816(13) 0.17108(9)
H18 H 0.2985 0.3308 0.1928
C30 C 0.25457(9) 0.30678(15) 0.16877(10)
H19 H 0.2516 0.2951 0.1893
C31 C 0.23237(9) 0.30284(14) 0.13765(10)
H20 H 0.2141 0.2878 0.1371
C32 C 0.34455(9) 0.48842(14) 0.02549(10)
H21 H 0.3462 0.5045 0.0055
C33 C 0.31601(9) 0.47654(15) 0.02569(10)
H22 H 0.2986 0.4859 0.0066
C34 C 0.31300(8) 0.45127(13) 0.05343(10)
H23 H 0.2936 0.4419 0.0535
C35 C 0.33907(8) 0.43970(12) 0.08139(9)
C36 C 0.36675(8) 0.45329(12) 0.07977(9)
H24 H 0.3845 0.4448 0.0988
C37 C 0.43719(8) 0.52032(13) 0.13668(10)
H25 H 0.4537 0.5012 0.1358
C38 C 0.43735(9) 0.53498(15) 0.16881(11)
H26 H 0.4535 0.5261 0.1895
C39 C 0.41334(8) 0.56324(14) 0.17060(10)
H27 H 0.4129 0.5742 0.1926
C40 C 0.39029(7) 0.57499(12) 0.14003(9)
C41 C 0.39198(7) 0.55846(12) 0.10788(9)
H28 H 0.3762 0.5668 0.0867
C42 C 0.36455(8) 0.60444(12) 0.14022(9)
C43 C 0.31692(8) 0.63219(13) 0.11368(9)
C44 C 0.34339(7) 0.65588(12) 0.16879(9)
C45 C 0.35038(9) 0.72834(14) 0.26201(10)
H29 H 0.3520 0.7448 0.2831
C46 C 0.32228(10) 0.72432(17) 0.23679(11)
H30 H 0.3051 0.7372 0.2408
C47 C 0.31922(9) 0.70139(16) 0.20555(10)
H31 H 0.3000 0.6986 0.1875
C48 C 0.34508(8) 0.68245(13) 0.20122(9)
C49 C 0.37233(8) 0.68754(12) 0.22802(9)
H32 H 0.3898 0.6743 0.2249
C50 C 0.26681(8) 0.66937(13) 0.08123(9)
H33 H 0.2711 0.6921 0.1000
C51 C 0.28867(8) 0.63401(12) 0.08283(9)
C52 C 0.28271(8) 0.60070(13) 0.05491(9)
H34 H 0.2971 0.5765 0.0547
C53 C 0.25525(8) 0.60441(14) 0.02768(9)
H35 H 0.2504 0.5823 0.0085
C54 C 0.23504(8) 0.63997(13) 0.02837(9)
H36 H 0.2164 0.6418 0.0094
C55 C 0.22621(9) 0.71714(13) 0.14064(10)
H37 H 0.2289 0.7514 0.1398
C56 C 0.23213(10) 0.69598(13) 0.17279(10)
H38 H 0.2381 0.7154 0.1934
C57 C 0.22923(9) 0.64570(13) 0.17489(9)
H39 H 0.2332 0.6300 0.1969
C58 C 0.22033(8) 0.61902(12) 0.14380(9)
C59 C 0.21445(8) 0.64357(12) 0.11247(9)
H40 H 0.2084 0.6251 0.0914
C60 C 0.21824(8) 0.56546(12) 0.14368(9)
C61 C 0.21513(8) 0.49455(12) 0.11534(9)
C62 C 0.21759(8) 0.49466(12) 0.17170(9)
C63 C 0.20681(8) 0.41800(12) 0.08122(8)
H41 H 0.2029 0.4033 0.1004
C64 C 0.21357(8) 0.46708(13) 0.08325(9)
C65 C 0.21936(12) 0.48878(15) 0.05532(11)
H42 H 0.2243 0.5225 0.0560
C66 C 0.21791(13) 0.46096(16) 0.02681(12)
H43 H 0.2214 0.4750 0.0072
C67 C 0.21116(10) 0.41124(15) 0.02739(10)
H44 H 0.2107 0.3918 0.0079
C68 C 0.21348(8) 0.49195(12) 0.23058(9)
H45 H 0.2097 0.5260 0.2281
C69 C 0.21822(8) 0.46733(12) 0.20336(8)
C70 C 0.22305(9) 0.41745(13) 0.20604(9)
H46 H 0.2261 0.3996 0.1875
C71 C 0.22334(11) 0.39417(13) 0.23659(10)
H47 H 0.2266 0.3600 0.2393
C72 C 0.21888(9) 0.42135(13) 0.26258(10)
H48 H 0.2193 0.4051 0.2834
C73 C 0.16525(9) 0.59343(16) 0.29147(11)
H49 H 0.1736 0.6236 0.2849
H50 H 0.1433 0.5983 0.2859
C74 C 0.17985(11) 0.58528(17) 0.32984(12)
H51 H 0.1714 0.5964 0.3466
C75 C 0.22307(11) 0.54430(17) 0.37407(11)
H52 H 0.2095 0.5252 0.3831
H53 H 0.2303 0.5730 0.3895
C76 C 0.24929(10) 0.51375(16) 0.37460(10)
H54 H 0.2579 0.4972 0.3976
H55 H 0.2652 0.5347 0.3714
C77 C 0.22241(11) 0.43380(16) 0.35434(11)
H56 H 0.2277 0.4033 0.3448
H57 H 0.2288 0.4303 0.3801
C78 C 0.18870(12) 0.44124(18) 0.33935(14)
H58 H 0.1788 0.4089 0.3343
H59 H 0.1821 0.4572 0.3573
C79 C 0.14866(11) 0.48190(18) 0.29198(14)
H60 H 0.1410 0.4993 0.3085
H61 H 0.1364 0.4520 0.2840
C80 C 0.14550(10) 0.51396(17) 0.26111(12)
H62 H 0.1461 0.4937 0.2412
H63 H 0.1257 0.5307 0.2538
C81 C 0.22306(10) 0.82601(14) 0.08561(11)
H64 H 0.2283 0.8247 0.1114
H65 H 0.2302 0.8576 0.0797
C82 C 0.18942(10) 0.82329(14) 0.06841(11)
H66 H 0.1797 0.8450 0.0808
H67 H 0.1835 0.8345 0.0438
C83 C 0.14818(9) 0.76092(17) 0.04841(13)
H68 H 0.1429 0.7754 0.0247
H69 H 0.1343 0.7744 0.0596
C84 C 0.14475(10) 0.70689(18) 0.04548(13)
H70 H 0.1243 0.6987 0.0290
H71 H 0.1469 0.6930 0.0687
C85 C 0.16162(11) 0.69287(18) -0.00578(11)
H72 H 0.1664 0.6627 -0.0162
H73 H 0.1398 0.6994 -0.0173
C86 C 0.17892(13) 0.73385(19) -0.01310(12)
H74 H 0.1737 0.7470 -0.0360
C87 C 0.21962(11) 0.79136(16) 0.00966(12)
H75 H 0.2074 0.8216 0.0049
H76 H 0.2266 0.7857 -0.0104
C88 C 0.24656(11) 0.79777(16) 0.04254(12)
H77 H 0.2632 0.7766 0.0415
H78 H 0.2536 0.8320 0.0442
C89 C 0.47500(10) 0.73332(17) 0.28378(13)
H79 H 0.4853 0.7611 0.2772
H80 H 0.4826 0.7029 0.2766
C90 C 0.48300(11) 0.7330(2) 0.32242(13)
H81 H 0.5024 0.7154 0.3330
H82 H 0.4862 0.7670 0.3311
C91 C 0.46202(11) 0.7109(2) 0.36932(13)
H83 H 0.4638 0.7448 0.3783
H84 H 0.4799 0.6923 0.3841
C92 C 0.43401(11) 0.68824(17) 0.37113(12)
H85 H 0.4348 0.6525 0.3679
H86 H 0.4327 0.6943 0.3946
C93 C 0.39856(12) 0.75898(16) 0.35153(12)
H87 H 0.3763 0.7618 0.3430
H88 H 0.4060 0.7641 0.3772
C94 C 0.41102(13) 0.79782(18) 0.33500(15)
H89 H 0.4155 0.8297 0.3446
C95 C 0.42941(13) 0.81500(17) 0.28679(14)
H90 H 0.4499 0.8243 0.3025
H91 H 0.4174 0.8452 0.2793
C96 C 0.43154(11) 0.78907(15) 0.25514(13)
H92 H 0.4458 0.8066 0.2464
H93 H 0.4115 0.7888 0.2363
C97 C 0.47025(9) 0.32933(17) 0.34958(11)
H94 H 0.4807 0.3263 0.3752
H95 H 0.4786 0.3580 0.3414
C98 C 0.47601(10) 0.28405(19) 0.33170(14)
H96 H 0.4951 0.2885 0.3270
H97 H 0.4789 0.2562 0.3480
C99 C 0.45404(10) 0.22928(17) 0.28169(12)
H98 H 0.4557 0.2003 0.2968
H99 H 0.4718 0.2297 0.2740
C100 C 0.42501(9) 0.22630(16) 0.24977(11)
H100 H 0.4265 0.2486 0.2313
H101 H 0.4224 0.1927 0.2403
C101 C 0.38849(11) 0.19926(15) 0.27773(12)
H102 H 0.3940 0.1676 0.2699
H103 H 0.3662 0.2001 0.2710
C102 C 0.40262(11) 0.20270(15) 0.31717(12)
H104 H 0.4081 0.1751 0.3322
C103 C 0.42212(12) 0.26250(18) 0.36502(11)
H105 H 0.4420 0.2460 0.3735
H106 H 0.4102 0.2508 0.3793
C104 C 0.42657(10) 0.31595(17) 0.36952(11)
H107 H 0.4416 0.3229 0.3930
H108 H 0.4073 0.3316 0.3682
C105 C 0.46941(9) 0.44525(15) 0.08663(12)
H109 H 0.4798 0.4170 0.0809
H110 H 0.4769 0.4488 0.1125
C106 C 0.47717(10) 0.49030(18) 0.07070(15)
H111 H 0.4970 0.5025 0.0863
H112 H 0.4791 0.4816 0.0480
C107 C 0.45711(10) 0.57088(17) 0.04660(13)
H113 H 0.4587 0.5626 0.0236
H114 H 0.4751 0.5904 0.0600
C108 C 0.42925(10) 0.59971(17) 0.04121(13)
H115 H 0.4279 0.6259 0.0240
H116 H 0.4305 0.6152 0.0636
C109 C 0.39210(12) 0.5578(2) -0.01014(12)
H117 H 0.3698 0.5570 -0.0205
H118 H 0.3994 0.5840 -0.0219
C110 C 0.40432(12) 0.5106(2) -0.01648(13)
H119 H 0.4085 0.5044 -0.0373
C111 C 0.42392(13) 0.43063(19) 0.01026(13)
H120 H 0.4446 0.4362 0.0099
H121 H 0.4126 0.4113 -0.0107
C112 C 0.42577(11) 0.40293(18) 0.04240(13)
H122 H 0.4401 0.3754 0.0456
H123 H 0.4057 0.3893 0.0397
C113 C 0.15338(11) 0.27352(17) 0.08673(13)
H124 H 0.1312 0.2698 0.0801
H125 H 0.1624 0.2717 0.1126
C114 C 0.16544(13) 0.23240(19) 0.07103(16)
H126 H 0.1683 0.2035 0.0864
H127 H 0.1502 0.2239 0.0480
C115 C 0.20613(12) 0.21033(17) 0.04856(14)
H128 H 0.1911 0.2010 0.0256
H129 H 0.2131 0.1804 0.0626
C116 C 0.23228(11) 0.23552(15) 0.04337(12)
H130 H 0.2493 0.2365 0.0660
H131 H 0.2389 0.2165 0.0266
C117 C 0.20595(10) 0.28728(17) -0.00843(11)
H132 H 0.2118 0.3160 -0.0194
H133 H 0.2102 0.2577 -0.0199
C118 C 0.17333(12) 0.2896(2) -0.01473(12)
H134 H 0.1587 0.2754 -0.0347
C119 C 0.13511(12) 0.3169(2) 0.01079(13)
H135 H 0.1266 0.2837 0.0099
H136 H 0.1222 0.3351 -0.0101
C120 C 0.13519(10) 0.34221(19) 0.04319(12)
H137 H 0.1154 0.3375 0.0462
H138 H 0.1382 0.3776 0.0410
N1 N 0.21390(6) 0.47009(10) 0.26047(7)
N2 N 0.21934(7) 0.54294(10) 0.17363(7)
N3 N 0.21610(7) 0.46808(10) 0.14319(7)
N4 N 0.21565(7) 0.54261(10) 0.11381(7)
N5 N 0.21690(6) 0.69274(10) 0.11022(7)
N6 N 0.20539(7) 0.38966(11) 0.05359(7)
N7 N 0.24399(6) 0.55714(9) 0.29375(7)
N8 N 0.31845(6) 0.48352(9) 0.28687(8)
N9 N 0.34384(6) 0.55859(10) 0.28745(8)
N10 N 0.36784(7) 0.48372(10) 0.28371(8)
N11 N 0.41973(6) 0.63621(10) 0.29009(7)
N12 N 0.37029(6) 0.33290(9) 0.28810(7)
N13 N 0.41502(6) 0.34972(10) 0.25668(7)
N14 N 0.33704(6) 0.36531(10) 0.16954(7)
N15 N 0.31196(6) 0.39274(10) 0.11102(7)
N16 N 0.36361(6) 0.41181(11) 0.14047(7)
N17 N 0.23412(7) 0.31869(10) 0.10698(8)
N18 N 0.36984(6) 0.47809(10) 0.05236(7)
N19 N 0.41529(6) 0.53108(10) 0.10634(8)
N20 N 0.33922(6) 0.60400(10) 0.11172(7)
N21 N 0.31772(7) 0.65801(11) 0.14160(8)
N22 N 0.36767(7) 0.62948(11) 0.16967(8)
N23 N 0.37575(7) 0.71039(10) 0.25871(8)
N24 N 0.24058(7) 0.67307(11) 0.05529(7)
N25 N 0.17897(9) 0.46900(15) 0.30911(10)
H139 H 0.1799 0.4445 0.2937
N26 N 0.17008(7) 0.55092(12) 0.26966(9)
H140 H 0.1724 0.5624 0.2492
N27 N 0.23942(8) 0.47613(12) 0.34569(8)
H141 H 0.2561 0.4645 0.3410
N28 N 0.20670(8) 0.56017(14) 0.33874(9)
N29 N 0.20123(9) 0.75108(13) 0.01262(9)
N30 N 0.23908(8) 0.78521(11) 0.07436(9)
H142 H 0.2566 0.7768 0.0927
N31 N 0.16824(7) 0.68478(13) 0.03262(9)
H143 H 0.1706 0.6517 0.0380
N32 N 0.17916(8) 0.77324(12) 0.06926(10)
H144 H 0.1806 0.7681 0.0924
N33 N 0.41556(10) 0.78455(13) 0.30533(11)
N34 N 0.44227(7) 0.73728(12) 0.26449(9)
H145 H 0.4370 0.7184 0.2443
N35 N 0.40698(8) 0.70833(12) 0.34388(8)
H146 H 0.3907 0.6874 0.3402
N36 N 0.46105(9) 0.71114(16) 0.33383(11)
H147 H 0.4658 0.6786 0.3319
N37 N 0.40661(8) 0.24993(12) 0.32886(9)
N38 N 0.43713(7) 0.33695(12) 0.34202(8)
H148 H 0.4327 0.3701 0.3396
N39 N 0.39833(7) 0.23981(11) 0.25928(9)
H149 H 0.3824 0.2491 0.2393
N40 N 0.45357(8) 0.27262(13) 0.30099(9)
H150 H 0.4588 0.2946 0.2866
N41 N 0.40924(9) 0.47631(16) 0.00913(10)
N42 N 0.43619(7) 0.43550(12) 0.07399(9)
H151 H 0.4308 0.4222 0.0920
N43 N 0.40143(8) 0.56878(13) 0.02829(9)
H152 H 0.3857 0.5840 0.0330
N44 N 0.45619(8) 0.52718(14) 0.06530(11)
H153 H 0.4614 0.5394 0.0880
N45 N 0.16578(9) 0.31363(16) 0.01014(10)
N46 N 0.16006(8) 0.32243(13) 0.07484(9)
H154 H 0.1644 0.3446 0.0932
N47 N 0.22495(8) 0.28613(12) 0.02989(8)
H155 H 0.2425 0.3043 0.0342
N48 N 0.19258(9) 0.24293(13) 0.06642(11)
H156 H 0.2059 0.2395 0.0893
Cl1 Cl 0.25682(8) -0.01757(12) 0.04067(8)
Cl2 Cl 0.24634(6) 0.09187(9) 0.03447(6)
Cl3 Cl 0.5000 0.50528(7) 0.2500
Cl4 Cl 0.44483(4) 0.45352(5) 0.35155(4)
Cl5 Cl 0.25474(4) 0.76324(5) 0.25277(4)
Cl6 Cl 0.34403(4) 0.63232(7) 0.02622(4)
Cl7 Cl 0.27973(6) 0.34476(9) 0.02828(6)
Cl8 Cl 0.34733(6) 0.65934(10) 0.35305(6)
O1 O 0.2968(2) 0.5080(4) 0.1420(3)
C121 C 0.2987(3) 0.5546(5) 0.1904(3)
H157 H 0.2986 0.5888 0.1982
H158 H 0.2867 0.5345 0.2010
C122 C 0.2867(3) 0.5514(5) 0.1528(3)
H159 H 0.2643 0.5517 0.1446
H160 H 0.2935 0.5798 0.1425
C123 C 0.3277(3) 0.5372(6) 0.1994(3)
H161 H 0.3333 0.5184 0.2215
H162 H 0.3421 0.5645 0.2027
C124 C 0.3284(3) 0.5040(6) 0.1690(4)
H163 H 0.3437 0.5155 0.1592
H164 H 0.3331 0.4699 0.1770
loop_
_geom_bond_atom_site_label_1
_geom_bond_atom_site_label_2
_geom_bond_site_symmetry_1
_geom_bond_site_symmetry_2
Ru1 N1 1_555 1_555
Ru2 N5 1_555 1_555
Ru3 N11 1_555 1_555
Ru4 N12 1_555 1_555
Ru5 N18 1_555 1_555
Ru6 N6 1_555 1_555
C1 H1 1_555 1_555
C2 C1 1_555 1_555
H2 C2 1_555 1_555
C3 C2 1_555 1_555
H3 C3 1_555 1_555
C4 C3 1_555 1_555
C5 C4 1_555 1_555
H4 C5 1_555 1_555
C6 C4 1_555 1_555
C7 C15 1_555 1_555
C8 C12 1_555 1_555
C9 H5 1_555 1_555
C10 C9 1_555 1_555
H6 C10 1_555 1_555
C11 C10 1_555 1_555
H7 C11 1_555 1_555
C12 C11 1_555 1_555
C13 C12 1_555 1_555
H8 C13 1_555 1_555
C14 H9 1_555 1_555
C15 C14 1_555 1_555
C16 C15 1_555 1_555
H10 C16 1_555 1_555
C17 C16 1_555 1_555
H11 C17 1_555 1_555
C18 C17 1_555 1_555
H12 C18 1_555 1_555
C19 H13 1_555 1_555
C20 C19 1_555 1_555
H14 C20 1_555 1_555
C21 C20 1_555 1_555
H15 C21 1_555 1_555
C22 C21 1_555 1_555
C23 C22 1_555 1_555
H16 C23 1_555 1_555
C24 C22 1_555 1_555
C25 C35 1_555 1_555
C26 C28 1_555 1_555
C27 H17 1_555 1_555
C28 C27 1_555 1_555
C29 C28 1_555 1_555
H18 C29 1_555 1_555
C30 C29 1_555 1_555
H19 C30 1_555 1_555
C31 C30 1_555 1_555
H20 C31 1_555 1_555
C32 H21 1_555 1_555
C33 C32 1_555 1_555
H22 C33 1_555 1_555
C34 C33 1_555 1_555
H23 C34 1_555 1_555
C35 C34 1_555 1_555
C36 C35 1_555 1_555
H24 C36 1_555 1_555
C37 H25 1_555 1_555
C38 C37 1_555 1_555
H26 C38 1_555 1_555
C39 C38 1_555 1_555
H27 C39 1_555 1_555
C40 C39 1_555 1_555
C41 C40 1_555 1_555
H28 C41 1_555 1_555
C42 C40 1_555 1_555
C43 C51 1_555 1_555
C44 C48 1_555 1_555
C45 H29 1_555 1_555
C46 C45 1_555 1_555
H30 C46 1_555 1_555
C47 C46 1_555 1_555
H31 C47 1_555 1_555
C48 C47 1_555 1_555
C49 C48 1_555 1_555
H32 C49 1_555 1_555
C50 H33 1_555 1_555
C51 C50 1_555 1_555
C52 C51 1_555 1_555
H34 C52 1_555 1_555
C53 C52 1_555 1_555
H35 C53 1_555 1_555
C54 C53 1_555 1_555
H36 C54 1_555 1_555
C55 H37 1_555 1_555
C56 C55 1_555 1_555
H38 C56 1_555 1_555
C57 C56 1_555 1_555
H39 C57 1_555 1_555
C58 C57 1_555 1_555
C59 C58 1_555 1_555
H40 C59 1_555 1_555
C60 C58 1_555 1_555
C61 C64 1_555 1_555
C62 C69 1_555 1_555
C63 H41 1_555 1_555
C64 C63 1_555 1_555
C65 C64 1_555 1_555
H42 C65 1_555 1_555
C66 C65 1_555 1_555
H43 C66 1_555 1_555
C67 C66 1_555 1_555
H44 C67 1_555 1_555
C68 H45 1_555 1_555
C69 C68 1_555 1_555
C70 C69 1_555 1_555
H46 C70 1_555 1_555
C71 C70 1_555 1_555
H47 C71 1_555 1_555
C72 C71 1_555 1_555
H48 C72 1_555 1_555
C73 H49 1_555 1_555
H50 C73 1_555 1_555
C74 C73 1_555 1_555
H51 C74 1_555 1_555
C75 H52 1_555 1_555
H53 C75 1_555 1_555
C76 C75 1_555 1_555
H54 C76 1_555 1_555
H55 C76 1_555 1_555
C77 H56 1_555 1_555
H57 C77 1_555 1_555
C78 C77 1_555 1_555
H58 C78 1_555 1_555
H59 C78 1_555 1_555
C79 H60 1_555 1_555
H61 C79 1_555 1_555
C80 C79 1_555 1_555
H62 C80 1_555 1_555
H63 C80 1_555 1_555
C81 H64 1_555 1_555
H65 C81 1_555 1_555
C82 C81 1_555 1_555
H66 C82 1_555 1_555
H67 C82 1_555 1_555
C83 H68 1_555 1_555
H69 C83 1_555 1_555
C84 C83 1_555 1_555
H70 C84 1_555 1_555
H71 C84 1_555 1_555
C85 H72 1_555 1_555
H73 C85 1_555 1_555
C86 C85 1_555 1_555
H74 C86 1_555 1_555
C87 H75 1_555 1_555
H76 C87 1_555 1_555
C88 C87 1_555 1_555
H77 C88 1_555 1_555
H78 C88 1_555 1_555
C89 H79 1_555 1_555
H80 C89 1_555 1_555
C90 C89 1_555 1_555
H81 C90 1_555 1_555
H82 C90 1_555 1_555
C91 H83 1_555 1_555
H84 C91 1_555 1_555
C92 C91 1_555 1_555
H85 C92 1_555 1_555
H86 C92 1_555 1_555
C93 H87 1_555 1_555
H88 C93 1_555 1_555
C94 C93 1_555 1_555
H89 C94 1_555 1_555
C95 H90 1_555 1_555
H91 C95 1_555 1_555
C96 C95 1_555 1_555
H92 C96 1_555 1_555
H93 C96 1_555 1_555
C97 H94 1_555 1_555
H95 C97 1_555 1_555
C98 C97 1_555 1_555
H96 C98 1_555 1_555
H97 C98 1_555 1_555
C99 H98 1_555 1_555
H99 C99 1_555 1_555
C100 C99 1_555 1_555
H100 C100 1_555 1_555
H101 C100 1_555 1_555
C101 H102 1_555 1_555
H103 C101 1_555 1_555
C102 C101 1_555 1_555
H104 C102 1_555 1_555
C103 H105 1_555 1_555
H106 C103 1_555 1_555
C104 C103 1_555 1_555
H107 C104 1_555 1_555
H108 C104 1_555 1_555
C105 H109 1_555 1_555
H110 C105 1_555 1_555
C106 C105 1_555 1_555
H111 C106 1_555 1_555
H112 C106 1_555 1_555
C107 H113 1_555 1_555
H114 C107 1_555 1_555
C108 C107 1_555 1_555
H115 C108 1_555 1_555
H116 C108 1_555 1_555
C109 H117 1_555 1_555
H118 C109 1_555 1_555
C110 C109 1_555 1_555
H119 C110 1_555 1_555
C111 H120 1_555 1_555
H121 C111 1_555 1_555
C112 C111 1_555 1_555
H122 C112 1_555 1_555
H123 C112 1_555 1_555
C113 H124 1_555 1_555
H125 C113 1_555 1_555
C114 C113 1_555 1_555
H126 C114 1_555 1_555
H127 C114 1_555 1_555
C115 H128 1_555 1_555
H129 C115 1_555 1_555
C116 C115 1_555 1_555
H130 C116 1_555 1_555
H131 C116 1_555 1_555
C117 H132 1_555 1_555
H133 C117 1_555 1_555
C118 C117 1_555 1_555
H134 C118 1_555 1_555
C119 H135 1_555 1_555
H136 C119 1_555 1_555
C120 C119 1_555 1_555
H137 C120 1_555 1_555
H138 C120 1_555 1_555
N1 C68 1_555 1_555
N2 C60 1_555 1_555
N3 C61 1_555 1_555
N4 C60 1_555 1_555
N5 C55 1_555 1_555
N6 C63 1_555 1_555
N7 Ru1 1_555 1_555
N8 C7 1_555 1_555
N9 C6 1_555 1_555
N10 C6 1_555 1_555
N11 C1 1_555 1_555
N12 C14 1_555 1_555
N13 Ru4 1_555 1_555
N14 C24 1_555 1_555
N15 C25 1_555 1_555
N16 C24 1_555 1_555
N17 Ru6 1_555 1_555
N18 C32 1_555 1_555
N19 Ru5 1_555 1_555
N20 C42 1_555 1_555
N21 C43 1_555 1_555
N22 C42 1_555 1_555
N23 Ru3 1_555 1_555
N24 Ru2 1_555 1_555
N25 Ru1 1_555 1_555
H139 N25 1_555 1_555
N26 Ru1 1_555 1_555
H140 N26 1_555 1_555
N27 Ru1 1_555 1_555
H141 N27 1_555 1_555
N28 Ru1 1_555 1_555
N29 Ru2 1_555 1_555
N30 Ru2 1_555 1_555
H142 N30 1_555 1_555
N31 Ru2 1_555 1_555
H143 N31 1_555 1_555
N32 Ru2 1_555 1_555
H144 N32 1_555 1_555
N33 Ru3 1_555 1_555
N34 Ru3 1_555 1_555
H145 N34 1_555 1_555
N35 Ru3 1_555 1_555
H146 N35 1_555 1_555
N36 Ru3 1_555 1_555
H147 N36 1_555 1_555
N37 Ru4 1_555 1_555
N38 Ru4 1_555 1_555
H148 N38 1_555 1_555
N39 Ru4 1_555 1_555
H149 N39 1_555 1_555
N40 Ru4 1_555 1_555
H150 N40 1_555 1_555
N41 Ru5 1_555 1_555
N42 Ru5 1_555 1_555
H151 N42 1_555 1_555
N43 Ru5 1_555 1_555
H152 N43 1_555 1_555
N44 Ru5 1_555 1_555
H153 N44 1_555 1_555
N45 Ru6 1_555 1_555
N46 Ru6 1_555 1_555
H154 N46 1_555 1_555
N47 Ru6 1_555 1_555
H155 N47 1_555 1_555
N48 Ru6 1_555 1_555
H156 N48 1_555 1_555
O1 C122 1_555 1_555
C121 H157 1_555 1_555
H158 C121 1_555 1_555
C122 C121 1_555 1_555
H159 C122 1_555 1_555
H160 C122 1_555 1_555
C123 C121 1_555 1_555
H161 C123 1_555 1_555
H162 C123 1_555 1_555
C124 O1 1_555 1_555
H163 C124 1_555 1_555
H164 C124 1_555 1_555
C5 N11 1_555 1_555
C7 N10 1_555 1_555
C8 N8 1_555 1_555
C8 N9 1_555 1_555
C9 N7 1_555 1_555
C13 N7 1_555 1_555
C18 N12 1_555 1_555
C19 N13 1_555 1_555
C23 N13 1_555 1_555
C25 N16 1_555 1_555
C26 N14 1_555 1_555
C26 N15 1_555 1_555
C27 N17 1_555 1_555
C31 N17 1_555 1_555
C36 N18 1_555 1_555
C37 N19 1_555 1_555
C41 N19 1_555 1_555
C43 N20 1_555 1_555
C44 N21 1_555 1_555
C44 N22 1_555 1_555
C45 N23 1_555 1_555
C49 N23 1_555 1_555
C50 N24 1_555 1_555
C54 N24 1_555 1_555
C59 N5 1_555 1_555
C61 N4 1_555 1_555
C62 N2 1_555 1_555
C62 N3 1_555 1_555
C67 N6 1_555 1_555
C72 N1 1_555 1_555
C73 N26 1_555 1_555
C74 N28 1_555 1_555
C75 N28 1_555 1_555
C76 N27 1_555 1_555
C77 N27 1_555 1_555
C78 N25 1_555 1_555
C79 N25 1_555 1_555
C80 N26 1_555 1_555
C81 N30 1_555 1_555
C82 N32 1_555 1_555
C83 N32 1_555 1_555
C84 N31 1_555 1_555
C85 N31 1_555 1_555
C86 N29 1_555 1_555
C87 N29 1_555 1_555
C88 N30 1_555 1_555
C89 N34 1_555 1_555
C90 N36 1_555 1_555
C91 N36 1_555 1_555
C92 N35 1_555 1_555
C93 N35 1_555 1_555
C94 N33 1_555 1_555
C95 N33 1_555 1_555
C96 N34 1_555 1_555
C97 N38 1_555 1_555
C98 N40 1_555 1_555
C99 N40 1_555 1_555
C100 N39 1_555 1_555
C101 N39 1_555 1_555
C102 N37 1_555 1_555
C103 N37 1_555 1_555
C104 N38 1_555 1_555
C105 N42 1_555 1_555
C106 N44 1_555 1_555
C107 N44 1_555 1_555
C108 N43 1_555 1_555
C109 N43 1_555 1_555
C110 N41 1_555 1_555
C111 N41 1_555 1_555
C112 N42 1_555 1_555
C113 N46 1_555 1_555
C114 N48 1_555 1_555
C115 N48 1_555 1_555
C116 N47 1_555 1_555
C117 N47 1_555 1_555
C118 N45 1_555 1_555
C119 N45 1_555 1_555
C120 N46 1_555 1_555
C123 C124 1_555 1_555

#END
