
#######################################################################
#
#                 Cambridge Crystallographic Data Centre
#                                CCDC 
#
#######################################################################
#
# If this CIF has been generated from an entry in the Cambridge 
# Structural Database, then it will include bibliographic, chemical, 
# crystal, experimental, refinement or atomic coordinate data resulting 
# from the CCDC's data processing and validation procedures.
#
#######################################################################

data_RIPSAM
_symmetry_cell_setting           hexagonal
_symmetry_space_group_name_H-M   'P -6 2 c'
_symmetry_Int_Tables_number      190
_space_group_name_Hall           "P -6c -2'c"
loop_
_symmetry_equiv_pos_site_id
_symmetry_equiv_pos_as_xyz
1 x,y,z
2 -x+y,-x,1/2-z
3 -y,x-y,z
4 x,y,1/2-z
5 -x+y,-x,z
6 -y,x-y,1/2-z
7 y,x,1/2+z
8 x-y,-y,-z
9 -x,-x+y,1/2+z
10 y,x,-z
11 x-y,-y,1/2+z
12 -x,-x+y,-z
_cell_length_a                   14.2705(10)
_cell_length_b                   14.2705(10)
_cell_length_c                   12.5942(9)
_cell_angle_alpha                90
_cell_angle_beta                 90
_cell_angle_gamma                120
_cell_volume                     2221.16
loop_
_atom_site_label
_atom_site_type_symbol
_atom_site_fract_x
_atom_site_fract_y
_atom_site_fract_z
Dy1 Dy 0.3333 0.6667 0.2500
Co1 Co 0.75166(17) 0.75166(17) 0.5000
O1 O 0.9149(16) 0.7849(19) 0.4983(10)
O2 O 0.5833(7) 0.7034(9) 0.4845(6)
O3 O 0.4581(8) 0.6779(9) 0.3666(7)
N1 N 0.7280(8) 0.7383(8) 0.3323(6)
N2 N 0.7875(13) 0.7477(11) 0.2500
C1 C 0.5534(11) 0.6993(11) 0.3886(9)
C2 C 1.0000 0.8518(13) 0.5000
H1 H 1.0000 0.9170 0.5000
C3 C 0.6295(10) 0.7159(11) 0.3034(8)
O1K O 1.0851(16) 0.8700(25) 0.5017(10)
O2C O 0.5833(7) 0.7034(9) 0.0155(6)
O3C O 0.4581(8) 0.6779(9) 0.1334(7)
N1C N 0.7280(8) 0.7383(8) 0.1677(6)
C1C C 0.5534(11) 0.6993(11) 0.1114(9)
C3C C 0.6295(10) 0.7159(11) 0.1966(8)
Co1A Co 0.00000(24) 0.24834(17) 0.0000
O1A O -0.1300(25) 0.0851(16) 0.0017(10)
O2A O 0.1201(11) 0.4167(7) 0.0155(6)
O3A O 0.2198(12) 0.5419(8) 0.1334(7)
N1A N 0.0103(11) 0.2720(8) 0.1677(6)
N2A N -0.0398(17) 0.2125(13) 0.2500
C1A C 0.1459(16) 0.4466(11) 0.1114(9)
C2A C -0.1482(13) 0.0000 0.0000
H1A H -0.0830 0.0000 0.0000
C3A C 0.0864(15) 0.3705(10) 0.1966(8)
O1F O -0.2151(19) -0.0851(16) -0.0017(10)
O2D O 0.1201(11) 0.4167(7) 0.4845(6)
O3D O 0.2198(12) 0.5419(8) 0.3666(7)
N1D N 0.0103(11) 0.2720(8) 0.3323(6)
C1D C 0.1459(16) 0.4466(11) 0.3886(9)
C3D C 0.0864(15) 0.3705(10) 0.3034(8)
Co1B Co 0.24834(17) 1.00000(24) 0.5000
O1B O 0.2151(19) 1.1300(25) 0.4983(10)
O2B O 0.2966(9) 0.8799(11) 0.4845(6)
O3B O 0.3221(9) 0.7802(12) 0.3666(7)
N1B N 0.2617(8) 0.9897(11) 0.3323(6)
N2B N 0.2523(11) 1.0398(17) 0.2500
C1B C 0.3007(11) 0.8541(16) 0.3886(9)
C2B C 0.1482(13) 1.1482(13) 0.5000
H1B H 0.0830 1.0830 0.5000
C3B C 0.2841(11) 0.9136(15) 0.3034(8)
O1G O 0.1300(25) 1.2151(19) 0.5017(10)
O2E O 0.2966(9) 0.8799(11) 0.0155(6)
O3E O 0.3221(9) 0.7802(12) 0.1334(7)
N1E N 0.2617(8) 0.9897(11) 0.1677(6)
C1E C 0.3007(11) 0.8541(16) 0.1114(9)
C3E C 0.2841(11) 0.9136(15) 0.1966(8)
Co1B_2 Co 1.24834(17) 1.00000(24) 0.5000
Co1C Co -0.24834(17) -0.24834(17) 0.0000
Co1C_2 Co 0.75166(17) 0.75166(17) 0.0000
Co1D Co 0.00000(24) 0.24834(17) 0.5000
Co1D_2 Co 0.00000(24) 1.24834(17) 0.5000
Co1E Co 0.24834(17) 1.00000(24) 0.0000
O1I O 0.7849(19) 0.9149(16) 0.5017(10)
O1J O 0.1300(25) 0.2151(19) -0.0017(10)
O1K_2 O 0.0851(16) 0.8700(25) 0.5017(10)
O2I O 0.7034(9) 0.5833(7) 0.5155(6)
O2J O -0.1201(11) 0.2966(9) -0.0155(6)
O2K O 0.4167(7) 1.1201(11) 0.5155(6)
N1I N 0.7383(8) 0.7280(8) 0.6677(6)
N1J N -0.0103(11) 0.2617(8) -0.1677(6)
N1K N 0.2720(8) 1.0103(11) 0.6677(6)
loop_
_geom_bond_atom_site_label_1
_geom_bond_atom_site_label_2
_geom_bond_site_symmetry_1
_geom_bond_site_symmetry_2
Dy1 O3 1_555 1_555
Co1 O1 1_555 1_555
O1 C2 1_555 1_555
O2 Co1 1_555 1_555
O3 C1 1_555 1_555
N1 Co1 1_555 1_555
N2 N1 1_555 1_555
C1 O2 1_555 1_555
C2 H1 1_555 1_555
C3 N1 1_555 1_555
O1K C2 1_555 1_555
O2C C1C 1_555 1_555
O3C Dy1 1_555 1_555
N1C N2 1_555 1_555
C1C O3C 1_555 1_555
C3C C3 1_555 1_555
Co1A O1A 1_555 1_555
O1A C2A 1_555 1_555
O2A Co1A 1_555 1_555
O3A Dy1 1_555 1_555
N1A Co1A 1_555 1_555
N2A N1A 1_555 1_555
C1A O2A 1_555 1_555
C2A H1A 1_555 1_555
C3A N1A 1_555 1_555
O1F C2A 1_555 1_555
O2D C1D 1_555 1_555
O3D Dy1 1_555 1_555
N1D N2A 1_555 1_555
C1D O3D 1_555 1_555
C3D C3A 1_555 1_555
Co1B O1B 1_555 1_555
O1B C2B 1_555 1_555
O2B Co1B 1_555 1_555
O3B Dy1 1_555 1_555
N1B Co1B 1_555 1_555
N2B N1B 1_555 1_555
C1B O2B 1_555 1_555
C2B H1B 1_555 1_555
C3B N1B 1_555 1_555
O1G C2B 1_555 1_555
O2E C1E 1_555 1_555
O3E Dy1 1_555 1_555
N1E N2B 1_555 1_555
C1E O3E 1_555 1_555
C3E C3B 1_555 1_555
Co1B_2 O1K 1_555 1_555
Co1C O1F 1_555 1_555
Co1C_2 O2C 1_555 1_555
Co1D O2D 1_555 1_555
Co1D_2 O1G 1_555 1_555
Co1E O2E 1_555 1_555
O1I Co1 1_555 1_555
O1J Co1A 1_555 1_555
O1K_2 Co1B 1_555 1_555
O2I Co1 1_555 1_555
O2J Co1A 1_555 1_555
O2K Co1B 1_555 1_555
N1I Co1 1_555 1_555
N1J Co1A 1_555 1_555
N1K Co1B 1_555 1_555
C1 C3 1_555 1_555
N1C C3C 1_555 1_555
N1C Co1C_2 1_555 1_555
C1C C3C 1_555 1_555
O3A C1A 1_555 1_555
C1A C3A 1_555 1_555
N1D C3D 1_555 1_555
N1D Co1D 1_555 1_555
C1D C3D 1_555 1_555
O3B C1B 1_555 1_555
C1B C3B 1_555 1_555
N1E C3E 1_555 1_555
N1E Co1E 1_555 1_555
C1E C3E 1_555 1_555

#END
