
#######################################################################
#
#                 Cambridge Crystallographic Data Centre
#                                CCDC 
#
#######################################################################
#
# If this CIF has been generated from an entry in the Cambridge 
# Structural Database, then it will include bibliographic, chemical, 
# crystal, experimental, refinement or atomic coordinate data resulting 
# from the CCDC's data processing and validation procedures.
#
#######################################################################

data_RIPWIY
_symmetry_cell_setting           monoclinic
_symmetry_space_group_name_H-M   'C 2/c'
_symmetry_Int_Tables_number      15
_space_group_name_Hall           '-C 2yn'
loop_
_symmetry_equiv_pos_site_id
_symmetry_equiv_pos_as_xyz
1 x,y,z
2 -x,y,1/2-z
3 1/2+x,1/2+y,z
4 1/2-x,1/2+y,1/2-z
5 -x,-y,-z
6 x,-y,1/2+z
7 1/2-x,1/2-y,-z
8 1/2+x,1/2-y,1/2+z
_cell_length_a                   29.0354(9)
_cell_length_b                   22.1378(6)
_cell_length_c                   24.5583(8)
_cell_angle_alpha                90
_cell_angle_beta                 108.987(3)
_cell_angle_gamma                90
_cell_volume                     14926.7
loop_
_atom_site_label
_atom_site_type_symbol
_atom_site_fract_x
_atom_site_fract_y
_atom_site_fract_z
W1 W 0.80705(3) 0.56855(4) 0.18025(4)
W2 W 0.81473(3) 0.89153(4) 0.18010(4)
W3 W 0.90845(3) 0.46252(3) 0.17974(4)
W4 W 0.97642(3) 0.61123(4) 0.39647(3)
W5 W 0.93827(3) 0.77237(4) 0.39732(4)
W6 W 0.76903(3) 0.73289(4) 0.18193(4)
W7 W 1.03916(3) 0.46173(4) 0.17829(4)
W8 W 0.95712(3) 0.86903(4) 0.10501(4)
W9 W 0.85462(3) 0.76688(4) 0.10476(3)
W10 W 0.89517(3) 0.60670(3) 0.10486(3)
W11 W 0.81223(3) 0.71880(4) 0.32473(4)
W12 W 1.04924(3) 0.98454(4) 0.17803(4)
W13 W 0.85334(3) 0.55558(4) 0.32276(4)
W14 W 1.07942(3) 0.99319(4) 0.32039(4)
W15 W 0.84562(3) 0.88252(4) 0.32288(4)
Sm1 Sm 0.81515(4) 0.44878(5) 0.43628(5)
Sm2 Sm 0.92205(5) 0.90311(6) -0.06554(6)
Cu1 Cu 0.8686(3) 0.2891(3) 0.2552(4)
P1 P 0.88638(18) 0.7733(2) 0.2513(2)
P2 P 0.92963(18) 0.5977(2) 0.2505(2)
P3 P 1.0000 0.8836(3) 0.2500
O1 O 0.8663(10) 0.3212(10) 0.3323(13)
O2 O 0.8296(7) 0.3959(9) 0.3624(10)
O3 O 0.8989(4) 0.7609(5) 0.1975(5)
O4 O 0.8061(5) 0.7303(5) 0.1303(6)
O5 O 0.8346(5) 0.8432(6) 0.1311(6)
O6 O 0.8207(5) 0.7739(6) 0.0334(6)
O7 O 0.9123(4) 0.8084(6) 0.1016(6)
O8 O 0.8823(5) 0.6911(6) 0.1003(6)
O9 O 0.9579(5) 0.6236(6) 0.1004(5)
O10 O 0.8649(4) 0.5906(6) 0.0328(6)
O11 O 0.9311(4) 0.6270(5) 0.1962(5)
O12 O 0.8391(4) 0.5969(5) 0.1291(5)
O13 O 0.9125(5) 0.5254(6) 0.1295(6)
O14 O 0.8871(5) 0.4045(6) 0.1333(7)
O15 O 1.0418(5) 0.9261(6) 0.2497(6)
O16 O 0.9083(5) 0.5972(6) 0.3727(6)
O17 O 0.8758(5) 0.7309(5) 0.3739(5)
O18 O 0.9787(5) 0.4483(5) 0.1845(6)
O19 O 0.9461(5) 0.5295(5) 0.2508(6)
O20 O 0.8264(5) 0.5246(7) 0.3694(6)
O21 O 1.0110(5) 0.9274(6) 0.1289(6)
O22 O 0.8691(4) 0.8406(5) 0.2500(5)
O23 O 0.7821(5) 0.6418(6) 0.1873(6)
O24 O 0.7761(4) 0.8152(6) 0.1851(6)
O25 O 0.9833(4) 1.0125(5) 0.1821(5)
O26 O 1.1138(5) 1.0483(5) 0.3666(6)
O27 O 0.9805(5) 0.5278(5) 0.3705(5)
O28 O 0.8027(4) 0.5388(5) 0.2518(5)
O29 O 1.1057(5) 0.9475(5) 0.1832(6)
O30 O 0.8042(5) 0.9143(5) 0.2506(6)
O31 O 0.9680(4) 0.6954(5) 0.3996(6)
O32 O 1.0799(4) 0.9277(5) 0.3711(5)
O33 O 0.9259(5) 0.4204(6) 0.2517(5)
O34 O 1.0755(5) 1.0304(6) 0.2492(5)
O35 O 0.7571(4) 0.7251(6) 0.2540(6)
O36 O 0.8128(5) 0.8120(6) 0.3195(6)
O37 O 0.8604(5) 0.9503(6) 0.1856(6)
O38 O 0.7096(5) 0.7264(6) 0.1357(6)
O39 O 0.9437(5) 0.7769(6) 0.4690(6)
O40 O 0.9360(5) 0.8900(6) 0.0327(6)
O41 O 0.8933(5) 0.4937(6) 0.3181(6)
O42 O 1.0156(4) 0.8456(5) 0.3040(5)
O43 O 0.9882(5) 0.5956(6) 0.4689(6)
O44 O 0.9032(4) 0.8450(6) 0.3723(5)
O45 O 1.0405(5) 0.4077(6) 0.1291(6)
O46 O 0.8514(4) 0.4928(5) 0.1836(6)
O47 O 1.0031(4) 0.8094(6) 0.0993(5)
O48 O 0.8759(4) 0.5969(6) 0.2525(5)
O49 O 0.7563(5) 0.5337(6) 0.1341(6)
O50 O 0.9628(4) 0.6308(6) 0.3043(5)
O51 O 0.8258(5) 0.9238(6) 0.3708(6)
O52 O 1.0511(5) 1.0448(7) 0.1324(7)
O53 O 0.7792(5) 0.7208(7) 0.3720(6)
O54 O 0.9353(7) 1.0026(9) -0.0279(9)
O55 O 0.7631(5) 0.9253(6) 0.1334(6)
O56 O 0.8195(5) 0.6380(6) 0.3180(7)
O57 O 0.9925(6) 1.0730(8) 0.0188(9)
O58 O 0.8433(4) 0.7336(6) 0.2529(6)
O59 O 0.9312(5) 0.7630(6) 0.3054(6)
O60 O 0.8534(9) 0.181(2) 0.2745(17)
O61 O 0.9404(12) 0.2651(15) 0.299(3)
O62 O 0.7561(7) 0.5408(9) 0.4240(9)
O63 O 0.8052(7) 0.3374(7) 0.4457(8)
O64 O 0.8505(7) 0.5336(8) 0.5000(8)
O65 O 0.7659(7) 0.4409(10) 0.4983(9)
O66 O 0.9030(5) 0.4436(8) 0.4477(7)
O67 O 0.8612(10) 0.8346(11) -0.0542(9)
O68 O 0.8841(9) 0.8560(11) -0.1532(9)
O69 O 0.8488(7) 0.9597(9) -0.0896(12)
O70 O 0.9643(10) 0.8119(14) -0.0515(12)
N1 N 0.7985(9) 0.3353(12) 0.2030(16)
H1 H 0.7999 0.3528 0.1706
H2 H 0.7720 0.3115 0.1957
C1 C 0.9770(13) 1.0248(13) -0.0030(12)
C2 C 0.8317(11) 0.3655(12) 0.3156(12)
C3 C 0.8045(11) 0.3809(15) 0.2541(12)
H3 H 0.8198 0.4168 0.2451
H4 H 0.7719 0.3926 0.2526
O71 O 0.8269(16) 0.2813(19) 0.142(2)
O15A O 0.9582(5) 0.9261(6) 0.2503(6)
O42A O 0.9844(4) 0.8456(5) 0.1960(5)
O54D O 1.0647(7) 0.9974(9) 0.0279(9)
O57D O 1.0075(6) 0.9270(8) -0.0188(9)
C1D C 1.0230(13) 0.9752(13) 0.0030(12)
W1A W 1.19295(3) 0.56855(4) 0.31975(4)
W2A W 1.18527(3) 0.89153(4) 0.31990(4)
W3A W 1.09155(3) 0.46252(3) 0.32026(4)
W4A W 1.02358(3) 0.61123(4) 0.10353(3)
W5A W 1.06173(3) 0.77237(4) 0.10268(4)
W6A W 1.23097(3) 0.73289(4) 0.31807(4)
W7A W 0.96084(3) 0.46173(4) 0.32171(4)
W8A W 1.04288(3) 0.86903(4) 0.39499(4)
W9A W 1.14538(3) 0.76688(4) 0.39524(3)
W10A W 1.10483(3) 0.60670(3) 0.39514(3)
W11A W 1.18777(3) 0.71880(4) 0.17527(4)
W12A W 0.95076(3) 0.98454(4) 0.32197(4)
W13A W 1.14666(3) 0.55558(4) 0.17724(4)
W14A W 0.92058(3) 0.99319(4) 0.17961(4)
W15A W 1.15438(3) 0.88252(4) 0.17712(4)
Sm1A Sm 1.18485(4) 0.44878(5) 0.06372(5)
Sm2A Sm 1.07795(5) 0.90311(6) 0.56554(6)
Cu1A Cu 1.1314(3) 0.2891(3) 0.2448(4)
P1A P 1.11362(18) 0.7733(2) 0.2487(2)
P2A P 1.07037(18) 0.5977(2) 0.2495(2)
O1A O 1.1337(10) 0.3212(10) 0.1677(13)
O2A O 1.1704(7) 0.3959(9) 0.1376(10)
O3A O 1.1011(4) 0.7609(5) 0.3025(5)
O4A O 1.1939(5) 0.7303(5) 0.3697(6)
O5A O 1.1654(5) 0.8432(6) 0.3689(6)
O6A O 1.1793(5) 0.7739(6) 0.4666(6)
O7A O 1.0877(4) 0.8084(6) 0.3984(6)
O8A O 1.1177(5) 0.6911(6) 0.3997(6)
O9A O 1.0421(5) 0.6236(6) 0.3996(5)
O10A O 1.1351(4) 0.5906(6) 0.4672(6)
O11A O 1.0689(4) 0.6270(5) 0.3038(5)
O12A O 1.1609(4) 0.5969(5) 0.3709(5)
O13A O 1.0875(5) 0.5254(6) 0.3705(6)
O14A O 1.1129(5) 0.4045(6) 0.3667(7)
O16A O 1.0917(5) 0.5972(6) 0.1273(6)
O17A O 1.1242(5) 0.7309(5) 0.1261(5)
O18A O 1.0213(5) 0.4483(5) 0.3155(6)
O19A O 1.0539(5) 0.5295(5) 0.2492(6)
O20A O 1.1736(5) 0.5246(7) 0.1306(6)
O21A O 0.9890(5) 0.9274(6) 0.3711(6)
O22A O 1.1309(4) 0.8406(5) 0.2500(5)
O23A O 1.2179(5) 0.6418(6) 0.3127(6)
O24A O 1.2239(4) 0.8152(6) 0.3149(6)
O25A O 1.0167(4) 1.0125(5) 0.3179(5)
O26A O 0.8862(5) 1.0483(5) 0.1334(6)
O27A O 1.0195(5) 0.5278(5) 0.1295(5)
O28A O 1.1973(4) 0.5388(5) 0.2482(5)
O29A O 0.8943(5) 0.9475(5) 0.3168(6)
O30A O 1.1958(5) 0.9143(5) 0.2494(6)
O31A O 1.0320(4) 0.6954(5) 0.1004(6)
O32A O 0.9201(4) 0.9277(5) 0.1289(5)
O33A O 1.0741(5) 0.4204(6) 0.2483(5)
O34A O 0.9245(5) 1.0304(6) 0.2508(5)
O35A O 1.2429(4) 0.7251(6) 0.2460(6)
O36A O 1.1872(5) 0.8120(6) 0.1805(6)
O37A O 1.1396(5) 0.9503(6) 0.3144(6)
O38A O 1.2904(5) 0.7264(6) 0.3643(6)
O39A O 1.0563(5) 0.7769(6) 0.0310(6)
O40A O 1.0640(5) 0.8900(6) 0.4673(6)
O41A O 1.1067(5) 0.4937(6) 0.1819(6)
O43A O 1.0118(5) 0.5956(6) 0.0311(6)
O44A O 1.0968(4) 0.8450(6) 0.1277(5)
O45A O 0.9595(5) 0.4077(6) 0.3709(6)
O46A O 1.1486(4) 0.4928(5) 0.3164(6)
O47A O 0.9969(4) 0.8094(6) 0.4007(5)
O48A O 1.1241(4) 0.5969(6) 0.2475(5)
O49A O 1.2437(5) 0.5337(6) 0.3659(6)
O50A O 1.0372(4) 0.6308(6) 0.1957(5)
O51A O 1.1742(5) 0.9238(6) 0.1292(6)
O52A O 0.9489(5) 1.0448(7) 0.3676(7)
O53A O 1.2208(5) 0.7208(7) 0.1280(6)
O55A O 1.2369(5) 0.9253(6) 0.3666(6)
O56A O 1.1805(5) 0.6380(6) 0.1820(7)
O58A O 1.1567(4) 0.7336(6) 0.2471(6)
O59A O 1.0688(5) 0.7630(6) 0.1946(6)
O60A O 1.1466(9) 0.181(2) 0.2255(17)
O61A O 1.0596(12) 0.2651(15) 0.201(3)
O62A O 1.2439(7) 0.5408(9) 0.0760(9)
O63A O 1.1948(7) 0.3374(7) 0.0543(8)
O64A O 1.1495(7) 0.5336(8) 0.0000(8)
O65A O 1.2341(7) 0.4409(10) 0.0017(9)
O66A O 1.0970(5) 0.4436(8) 0.0523(7)
O67A O 1.1388(10) 0.8346(11) 0.5542(9)
O68A O 1.1159(9) 0.8560(11) 0.6532(9)
O69A O 1.1512(7) 0.9597(9) 0.5896(12)
O70A O 1.0357(10) 0.8119(14) 0.5515(12)
N1A N 1.2015(9) 0.3353(12) 0.2970(16)
H1A H 1.2001 0.3528 0.3294
H2A H 1.2280 0.3115 0.3043
C2A C 1.1683(11) 0.3655(12) 0.1844(12)
C3A C 1.1955(11) 0.3809(15) 0.2459(12)
H3A H 1.1802 0.4168 0.2549
H4A H 1.2281 0.3926 0.2474
O71A O 1.1731(16) 0.2813(19) 0.358(2)
Sm1B Sm 1.31515(4) 0.94878(5) 0.43628(5)
Sm1C Sm 0.68485(4) 0.94878(5) 0.06372(5)
Sm1D Sm 1.18485(4) 0.55122(5) 0.56372(5)
Sm1E Sm 0.81515(4) 0.55122(5) -0.06372(5)
Sm2D Sm 1.07795(5) 1.09689(6) 0.06554(6)
Sm2E Sm 0.92205(5) 1.09689(6) 0.43446(6)
O10D O 1.1351(4) 0.4094(6) -0.0328(6)
O10E O 0.8649(4) 0.4094(6) 0.5328(6)
O52D O 0.9489(5) 0.9552(7) -0.1324(7)
O52E O 1.0511(5) 0.9552(7) 0.6324(7)
O54A O 1.0647(7) 1.0026(9) 0.5279(9)
O55B O 1.2631(5) 0.4253(6) 0.1334(6)
O55C O 0.7369(5) 0.4253(6) 0.3666(6)
O57E O 0.9925(6) 0.9270(8) 0.5188(9)
K1 K 0.76511(18) 0.7181(2) 0.4698(2)
K2 K 0.9555(3) 0.7842(3) 0.5754(3)
O72 O 0.8619(5) 0.8563(6) 0.5763(6)
Na1 Na 0.9838(5) 0.7250(7) 0.1919(9)
Cl1 Cl 1.056(5) 0.7107(19) 0.559(4)
O73 O 0.242(4) 0.4386(18) 0.450(2)
O74 O 0.9492(7) 0.5260(9) 0.5313(10)
Cl2 Cl 0.2526(14) 0.6528(16) 0.4598(13)
loop_
_geom_bond_atom_site_label_1
_geom_bond_atom_site_label_2
_geom_bond_site_symmetry_1
_geom_bond_site_symmetry_2
W1 O12 1_555 1_555
W2 O5 1_555 1_555
W3 O13 1_555 1_555
W4 O16 1_555 1_555
W5 O17 1_555 1_555
W6 O4 1_555 1_555
W7 O18 1_555 1_555
W8 O7 1_555 1_555
W9 O3 1_555 1_555
W10 O8 1_555 1_555
W11 O17 1_555 1_555
W12 O15 1_555 1_555
W13 O16 1_555 1_555
W14 O15 1_555 1_555
W15 O22 1_555 1_555
Sm1 O2 1_555 1_555
Sm2 O40 1_555 1_555
Cu1 O1 1_555 1_555
P1 O3 1_555 1_555
P2 O11 1_555 1_555
P3 O15 1_555 1_555
O1 C2 1_555 1_555
O2 C2 1_555 1_555
O4 W9 1_555 1_555
O5 W9 1_555 1_555
O6 W9 1_555 1_555
O7 W9 1_555 1_555
O8 W9 1_555 1_555
O9 W10 1_555 1_555
O10 W10 1_555 1_555
O11 W10 1_555 1_555
O12 W10 1_555 1_555
O13 W10 1_555 1_555
O14 W3 1_555 1_555
O18 W3 1_555 1_555
O19 W3 1_555 1_555
O20 W13 1_555 1_555
O21 W8 1_555 1_555
O22 W2 1_555 1_555
O23 W1 1_555 1_555
O24 W2 1_555 1_555
O25 W12 1_555 1_555
O26 W14 1_555 1_555
O27 W4 1_555 1_555
O28 W1 1_555 1_555
O29 W12 1_555 1_555
O30 W2 1_555 1_555
O31 W4 1_555 1_555
O32 W14 1_555 1_555
O33 W3 1_555 1_555
O34 W12 1_555 1_555
O35 W6 1_555 1_555
O36 W11 1_555 1_555
O37 W2 1_555 1_555
O38 W6 1_555 1_555
O39 W5 1_555 1_555
O40 W8 1_555 1_555
O41 W13 1_555 1_555
O42 P3 1_555 1_555
O43 W4 1_555 1_555
O44 W5 1_555 1_555
O45 W7 1_555 1_555
O46 W1 1_555 1_555
O47 W8 1_555 1_555
O48 W1 1_555 1_555
O49 W1 1_555 1_555
O50 W4 1_555 1_555
O51 W15 1_555 1_555
O52 W12 1_555 1_555
O53 W11 1_555 1_555
O54 Sm2 1_555 1_555
O55 W2 1_555 1_555
O56 W11 1_555 1_555
O57 C1 1_555 1_555
O58 W6 1_555 1_555
O59 W5 1_555 1_555
O60 Cu1 1_555 1_555
O61 Cu1 1_555 1_555
O62 Sm1 1_555 1_555
O63 Sm1 1_555 1_555
O64 Sm1 1_555 1_555
O65 Sm1 1_555 1_555
O66 Sm1 1_555 1_555
O67 Sm2 1_555 1_555
O68 Sm2 1_555 1_555
O69 Sm2 1_555 1_555
O70 Sm2 1_555 1_555
N1 Cu1 1_555 1_555
H1 N1 1_555 1_555
H2 N1 1_555 1_555
C1 O54 1_555 1_555
C2 C3 1_555 1_555
C3 N1 1_555 1_555
H3 C3 1_555 1_555
H4 C3 1_555 1_555
O71 Cu1 1_555 1_555
O15A P3 1_555 1_555
O42A W8 1_555 1_555
O54D C1D 1_555 1_555
O57D Sm2 1_555 1_555
C1D C1 1_555 1_555
W1A O12A 1_555 1_555
W2A O5A 1_555 1_555
W3A O13A 1_555 1_555
W4A O9 1_555 1_555
W5A O47 1_555 1_555
W6A O4A 1_555 1_555
W7A O19 1_555 1_555
W8A O32 1_555 1_555
W9A O3A 1_555 1_555
W10A O8A 1_555 1_555
W11A O17A 1_555 1_555
W12A O15A 1_555 1_555
W13A O16A 1_555 1_555
W14A O25 1_555 1_555
W15A O29 1_555 1_555
Sm1A O2A 1_555 1_555
Sm2A O40A 1_555 1_555
Cu1A O1A 1_555 1_555
P1A O3A 1_555 1_555
P2A O11A 1_555 1_555
O1A C2A 1_555 1_555
O2A C2A 1_555 1_555
O4A W9A 1_555 1_555
O5A W9A 1_555 1_555
O6A W9A 1_555 1_555
O7A W8A 1_555 1_555
O8A W9A 1_555 1_555
O9A W4 1_555 1_555
O10A W10A 1_555 1_555
O11A W10A 1_555 1_555
O12A W10A 1_555 1_555
O13A W10A 1_555 1_555
O14A W3A 1_555 1_555
O16A W4A 1_555 1_555
O17A W5A 1_555 1_555
O18A W3A 1_555 1_555
O19A W7 1_555 1_555
O20A W13A 1_555 1_555
O21A W8A 1_555 1_555
O22A W2A 1_555 1_555
O23A W1A 1_555 1_555
O24A W2A 1_555 1_555
O25A W14 1_555 1_555
O26A W14A 1_555 1_555
O27A W7 1_555 1_555
O28A W1A 1_555 1_555
O29A W15 1_555 1_555
O30A W2A 1_555 1_555
O31A W4A 1_555 1_555
O32A W8 1_555 1_555
O33A W7 1_555 1_555
O34A W12A 1_555 1_555
O35A W6A 1_555 1_555
O36A W11A 1_555 1_555
O37A W14 1_555 1_555
O38A W6A 1_555 1_555
O39A W5A 1_555 1_555
O40A W8A 1_555 1_555
O41A W7 1_555 1_555
O43A W4A 1_555 1_555
O44A W5A 1_555 1_555
O45A W7A 1_555 1_555
O46A W1A 1_555 1_555
O47A W5 1_555 1_555
O48A W1A 1_555 1_555
O49A W1A 1_555 1_555
O50A W4A 1_555 1_555
O51A W15A 1_555 1_555
O52A W12A 1_555 1_555
O53A W11A 1_555 1_555
O55A W2A 1_555 1_555
O56A W11A 1_555 1_555
O58A W6A 1_555 1_555
O59A W5A 1_555 1_555
O60A Cu1A 1_555 1_555
O61A Cu1A 1_555 1_555
O62A Sm1A 1_555 1_555
O63A Sm1A 1_555 1_555
O64A Sm1A 1_555 1_555
O65A Sm1A 1_555 1_555
O66A Sm1A 1_555 1_555
O67A Sm2A 1_555 1_555
O68A Sm2A 1_555 1_555
O69A Sm2A 1_555 1_555
O70A Sm2A 1_555 1_555
N1A Cu1A 1_555 1_555
H1A N1A 1_555 1_555
H2A N1A 1_555 1_555
C2A C3A 1_555 1_555
C3A N1A 1_555 1_555
H3A C3A 1_555 1_555
H4A C3A 1_555 1_555
O71A Cu1A 1_555 1_555
Sm1B O55A 1_555 1_555
Sm1C O55 1_555 1_555
Sm1D O10A 1_555 1_555
Sm1E O10 1_555 1_555
Sm2D O52 1_555 1_555
Sm2E O52A 1_555 1_555
O10D Sm1A 1_555 1_555
O10E Sm1 1_555 1_555
O52D Sm2 1_555 1_555
O52E Sm2A 1_555 1_555
O54A Sm2A 1_555 1_555
O55B Sm1A 1_555 1_555
O55C Sm1 1_555 1_555
O57E Sm2A 1_555 1_555
W3 O46 1_555 1_555
W5 O31 1_555 1_555
W6 O23 1_555 1_555
W6 O24 1_555 1_555
W11 O35 1_555 1_555
W11 O58 1_555 1_555
W12 O21 1_555 1_555
W13 O28 1_555 1_555
W13 O48 1_555 1_555
W13 O56 1_555 1_555
W14 O34 1_555 1_555
W15 O30 1_555 1_555
W15 O36 1_555 1_555
W15 O44 1_555 1_555
Sm1 O20 1_555 1_555
P1 O22 1_555 1_555
P1 O58 1_555 1_555
P1 O59 1_555 1_555
P2 O19 1_555 1_555
P2 O48 1_555 1_555
P2 O50 1_555 1_555
P3 O42A 1_555 1_555
O27 W7A 1_555 1_555
O33 W7A 1_555 1_555
O37 W14A 1_555 1_555
O41 W7A 1_555 1_555
O42 W8A 1_555 1_555
O57 Sm2D 1_555 1_555
O15A W14A 1_555 1_555
O54D Sm2D 1_555 1_555
O57D C1D 1_555 1_555
W2A O37A 1_555 1_555
W3A O19A 1_555 1_555
W3A O33A 1_555 1_555
W3A O46A 1_555 1_555
W4A O27A 1_555 1_555
W5A O31A 1_555 1_555
W6A O23A 1_555 1_555
W6A O24A 1_555 1_555
W7A O18A 1_555 1_555
W8A O47A 1_555 1_555
W9A O7A 1_555 1_555
W10A O9A 1_555 1_555
W11A O35A 1_555 1_555
W11A O58A 1_555 1_555
W12A O21A 1_555 1_555
W12A O25A 1_555 1_555
W12A O29A 1_555 1_555
W13A O28A 1_555 1_555
W13A O41A 1_555 1_555
W13A O48A 1_555 1_555
W13A O56A 1_555 1_555
W14A O32A 1_555 1_555
W14A O34A 1_555 1_555
W15A O22A 1_555 1_555
W15A O30A 1_555 1_555
W15A O36A 1_555 1_555
W15A O44A 1_555 1_555
Sm1A O20A 1_555 1_555
P1A O22A 1_555 1_555
P1A O58A 1_555 1_555
P1A O59A 1_555 1_555
P2A O19A 1_555 1_555
P2A O48A 1_555 1_555
P2A O50A 1_555 1_555

#END
