
#######################################################################
#
#                 Cambridge Crystallographic Data Centre
#                                CCDC 
#
#######################################################################
#
# If this CIF has been generated from an entry in the Cambridge 
# Structural Database, then it will include bibliographic, chemical, 
# crystal, experimental, refinement or atomic coordinate data resulting 
# from the CCDC's data processing and validation procedures.
#
#######################################################################

data_RIRDAZ
_symmetry_cell_setting           hexagonal
_symmetry_space_group_name_H-M   'P 63/m m c'
_symmetry_Int_Tables_number      194
_space_group_name_Hall           "-P 6c 2'c"
loop_
_symmetry_equiv_pos_site_id
_symmetry_equiv_pos_as_xyz
1 x,y,z
2 x-y,x,1/2+z
3 -y,x-y,z
4 -x,-y,1/2+z
5 -x+y,-x,z
6 y,-x+y,1/2+z
7 x-y,-y,-z
8 -x,-x+y,-z
9 y,x,-z
10 -y,-x,1/2-z
11 -x+y,y,1/2-z
12 x,x-y,1/2-z
13 -x,-y,-z
14 -x+y,-x,1/2-z
15 y,-x+y,-z
16 x,y,1/2-z
17 x-y,x,-z
18 -y,x-y,1/2-z
19 -x+y,y,z
20 x,x-y,z
21 -y,-x,z
22 y,x,1/2+z
23 x-y,-y,1/2+z
24 -x,-x+y,1/2+z
_cell_length_a                   26.674(2)
_cell_length_b                   26.674(2)
_cell_length_c                   18.4694(20)
_cell_angle_alpha                90
_cell_angle_beta                 90
_cell_angle_gamma                120
_cell_volume                     11380.5
loop_
_atom_site_label
_atom_site_type_symbol
_atom_site_fract_x
_atom_site_fract_y
_atom_site_fract_z
C1 C 0.3593(3) 0.3143(3) 0.2844(5)
H1 H 0.3295 0.3123 0.3128
C2 C 0.4377(4) 0.3216(3) 0.2500
C3 C 0.3872(3) 0.3872(3) 0.5000
H2 H 0.4220 0.4220 0.5000
N1 N 0.4908(3) 0.3261(2) 0.2500
C4 C 0.2943(3) 0.2407(3) 0.4623(5)
H3 H 0.3121 0.2227 0.4393
C5 C 0.55122(19) 0.44878(19) 0.4199(6)
C6 C 0.4407(3) 0.22036(14) 0.4149(3)
H4 H 0.4457 0.2229 0.3649
C7 C 0.4236(5) 0.2657(5) 0.5815(3)
H5 H 0.4218 0.2996 0.5803
C8 C 0.3248(3) 0.2985(3) 0.4816(4)
C9 C 0.5597(4) 0.3926(4) 0.4874(4)
H6 H 0.5531 0.3597 0.5128
C10 C 0.4307(3) 0.2408(3) 0.5224(3)
C11 C 0.2357(4) 0.2109(4) 0.4791(7)
H7 H 0.2127 0.1734 0.4619
Co1 Co 0.44102(3) 0.33220(3) 0.41260(5)
N2 N 0.3820(2) 0.34044(18) 0.4677(3)
N3 N 0.5283(2) 0.4717(2) 0.3773(11)
N4 N 0.4080(2) 0.31763(19) 0.3113(3)
N5 N 0.43719(19) 0.26113(19) 0.4502(2)
N6 N 0.5201(3) 0.3957(2) 0.4461(4)
O1 O 0.4766(2) 0.4431(3) 0.3695(4)
O2 O 0.5146(2) 0.3290(2) 0.3093(4)
C12 C 0.4192(7) 0.2355(8) 0.6445(5)
H8 H 0.4161 0.2508 0.6885
C1O C 0.3593(3) 0.3143(3) 0.2156(5)
H1O H 0.3295 0.3123 0.1872
N4O N 0.4080(2) 0.31763(19) 0.1887(3)
O2O O 0.5146(2) 0.3290(2) 0.1907(4)
C4H C 0.2407(3) 0.2943(3) 0.5377(5)
H3H H 0.2227 0.3121 0.5607
C8H C 0.2985(3) 0.3248(3) 0.5184(4)
C11H C 0.2109(4) 0.2357(4) 0.5209(7)
H7H H 0.1734 0.2127 0.5381
N2H N 0.34044(18) 0.3820(2) 0.5323(3)
C9T C 0.6074(4) 0.4403(4) 0.4874(4)
H6T H 0.6403 0.4469 0.5128
N6T N 0.6043(2) 0.4799(3) 0.4461(4)
O1T O 0.5569(3) 0.5234(2) 0.3695(4)
C7S C 0.4236(5) 0.1579(7) 0.5815(3)
H5S H 0.4218 0.1222 0.5803
C10S C 0.4307(3) 0.1899(4) 0.5224(3)
N5S N 0.43719(19) 0.17606(27) 0.4502(2)
C12S C 0.4192(7) 0.1837(11) 0.6445(5)
H8S H 0.4161 0.1653 0.6885
Co1H Co 0.33220(3) 0.44102(3) 0.58740(5)
Co1O Co 0.44102(3) 0.33220(3) 0.08740(5)
Co1S Co 0.44102(3) 0.10882(4) 0.41260(5)
Co1T Co 0.66780(3) 0.55898(3) 0.41260(5)
N4H N 0.31763(19) 0.4080(2) 0.6887(3)
N5H N 0.26113(19) 0.43719(19) 0.5498(2)
N6H N 0.3957(2) 0.5201(3) 0.5539(4)
loop_
_geom_bond_atom_site_label_1
_geom_bond_atom_site_label_2
_geom_bond_site_symmetry_1
_geom_bond_site_symmetry_2
C1 H1 1_555 1_555
C2 N1 1_555 1_555
C3 H2 1_555 1_555
N1 O2 1_555 1_555
C4 H3 1_555 1_555
C5 N3 1_555 1_555
C6 H4 1_555 1_555
C7 H5 1_555 1_555
C8 C4 1_555 1_555
C9 H6 1_555 1_555
C10 C7 1_555 1_555
C11 C4 1_555 1_555
H7 C11 1_555 1_555
Co1 N2 1_555 1_555
N2 C3 1_555 1_555
N3 O1 1_555 1_555
N4 C1 1_555 1_555
N5 C6 1_555 1_555
N6 C5 1_555 1_555
C12 C7 1_555 1_555
H8 C12 1_555 1_555
C1O C1 1_555 1_555
H1O C1O 1_555 1_555
N4O C2 1_555 1_555
O2O N1 1_555 1_555
C4H H3H 1_555 1_555
C8H C8 1_555 1_555
C11H C11 1_555 1_555
H7H C11H 1_555 1_555
N2H C3 1_555 1_555
C9T C9 1_555 1_555
H6T C9T 1_555 1_555
N6T C5 1_555 1_555
O1T N3 1_555 1_555
C7S H5S 1_555 1_555
C10S C10 1_555 1_555
N5S C6 1_555 1_555
C12S C12 1_555 1_555
H8S C12S 1_555 1_555
Co1H N2H 1_555 1_555
Co1O N4O 1_555 1_555
Co1S N5S 1_555 1_555
Co1T N6T 1_555 1_555
N4H Co1H 1_555 1_555
N5H Co1H 1_555 1_555
N6H Co1H 1_555 1_555
C2 N4 1_555 1_555
C8 N2 1_555 1_555
C9 N6 1_555 1_555
C10 N5 1_555 1_555
Co1 N4 1_555 1_555
Co1 N5 1_555 1_555
Co1 N6 1_555 1_555
C1O N4O 1_555 1_555
C4H C8H 1_555 1_555
C4H C11H 1_555 1_555
C8H N2H 1_555 1_555
C9T N6T 1_555 1_555
C7S C10S 1_555 1_555
C7S C12S 1_555 1_555
C10S N5S 1_555 1_555

#END
