
#######################################################################
#
#                 Cambridge Crystallographic Data Centre
#                                CCDC 
#
#######################################################################
#
# If this CIF has been generated from an entry in the Cambridge 
# Structural Database, then it will include bibliographic, chemical, 
# crystal, experimental, refinement or atomic coordinate data resulting 
# from the CCDC's data processing and validation procedures.
#
#######################################################################

data_RIVDEF
_symmetry_cell_setting           hexagonal
_symmetry_space_group_name_H-M   'P 61 2 2'
_symmetry_Int_Tables_number      178
_space_group_name_Hall           "P 61 2' (0,0,5)"
loop_
_symmetry_equiv_pos_site_id
_symmetry_equiv_pos_as_xyz
1 x,y,z
2 x-y,x,1/6+z
3 -y,-x,5/6-z
4 -y,x-y,1/3+z
5 x-y,-y,-z
6 -x,-y,1/2+z
7 x,x-y,1/6-z
8 -x+y,-x,2/3+z
9 y,x,1/3-z
10 y,-x+y,5/6+z
11 -x+y,y,1/2-z
12 -x,-x+y,2/3-z
_cell_length_a                   11.477(3)
_cell_length_b                   11.477(3)
_cell_length_c                   22.585(4)
_cell_angle_alpha                90
_cell_angle_beta                 90
_cell_angle_gamma                120
_cell_volume                     2576.37
loop_
_atom_site_label
_atom_site_type_symbol
_atom_site_fract_x
_atom_site_fract_y
_atom_site_fract_z
C1 C 0.9665(7) 0.4832(4) 0.0833
C2 C 0.8251(7) 0.4125(4) 0.0833
N1 N 0.7114(7) 0.3557(3) 0.0833
C3 C 1.0381(6) 0.5503(6) 0.0318(3)
N2 N 1.0989(6) 0.6076(6) -0.0084(3)
O1 O 0.2938(4) 0.0231(5) 0.0529(2)
O2 O 0.4817(5) 0.1222(4) 0.0013(2)
B1 B 0.3523(9) 0.00000 0.0000
C4 C 0.1718(7) -0.0749(9) 0.0705(4)
C5 C 0.5771(8) 0.1536(7) -0.0446(4)
H1 H 0.1422(7) -0.0432(9) 0.1100(4)
H2 H 0.1760(7) -0.1651(9) 0.0799(4)
H3 H 0.0993(7) -0.0953(9) 0.0359(4)
H4 H 0.6663(8) 0.2486(7) -0.0351(4)
H5 H 0.5345(8) 0.1606(7) -0.0862(4)
H6 H 0.6033(8) 0.0756(7) -0.0474(4)
Cd1 Cd 0.4699(1) 0.23490(1) 0.0833
N2A N 0.4913(8) 0.0989(6) 0.1583(3)
Cd1H Cd 1.23490(1) 0.4699(1) 0.2500
N2F N 1.0989(6) 0.4913(8) 0.1751(3)
C3F C 1.0381(6) 0.4878(8) 0.1349(3)
N2D N 0.4913(8) 0.3924(6) 0.0084(3)
O1F O 0.2938(4) 0.2707(6) 0.1138(2)
O2F O 0.4817(5) 0.3595(6) 0.1654(2)
Cd1D Cd 1.23500(10) 0.76510(1) -0.0833
O1D O 0.2707(6) -0.0231(5) -0.0529(2)
C4D C 0.2467(11) 0.0749(9) -0.0705(4)
H1D H 0.1854(11) 0.0432(9) -0.1100(4)
H2D H 0.3411(11) 0.1651(9) -0.0799(4)
H3D H 0.1946(11) 0.0953(9) -0.0359(4)
Cd1D_2 Cd 0.23500(10) -0.23490(1) -0.0833
O2D O 0.3595(6) -0.1222(4) -0.0013(2)
C5D C 0.4235(11) -0.1536(7) 0.0446(4)
H4D H 0.4177(11) -0.2486(7) 0.0351(4)
H5D H 0.3739(11) -0.1606(7) 0.0862(4)
H6D H 0.5277(11) -0.0756(7) 0.0474(4)
O3 O 0.8228(9) 0.019(1) 0.0558(5)
C6 C 0.784(1) 0.082(1) 0.1039(8)
loop_
_geom_bond_atom_site_label_1
_geom_bond_atom_site_label_2
_geom_bond_site_symmetry_1
_geom_bond_site_symmetry_2
C1 C2 1_555 1_555
C2 N1 1_555 1_555
N1 Cd1 1_555 1_555
C3 C1 1_555 1_555
N2 C3 1_555 1_555
O1 B1 1_555 1_555
O2 B1 1_555 1_555
B1 O1D 1_555 1_555
C4 O1 1_555 1_555
C5 O2 1_555 1_555
O3 C6 1_555 1_555
H1 C4 1_555 1_555
H2 C4 1_555 1_555
H3 C4 1_555 1_555
H4 C5 1_555 1_555
H5 C5 1_555 1_555
H6 C5 1_555 1_555
Cd1 O1 1_555 1_555
N2A Cd1 1_555 1_555
Cd1H N2F 1_555 1_555
N2F C3F 1_555 1_555
C3F C1 1_555 1_555
N2D Cd1 1_555 1_555
O1F Cd1 1_555 1_555
O2F Cd1 1_555 1_555
Cd1D N2 1_555 1_555
O1D C4D 1_555 1_555
C4D H1D 1_555 1_555
H2D C4D 1_555 1_555
H3D C4D 1_555 1_555
Cd1D_2 O1D 1_555 1_555
O2D B1 1_555 1_555
C5D O2D 1_555 1_555
H4D C5D 1_555 1_555
H5D C5D 1_555 1_555
H6D C5D 1_555 1_555
O2 Cd1 1_555 1_555
Cd1D_2 O2D 1_555 1_555

#END
