
#######################################################################
#
#                 Cambridge Crystallographic Data Centre
#                                CCDC 
#
#######################################################################
#
# If this CIF has been generated from an entry in the Cambridge 
# Structural Database, then it will include bibliographic, chemical, 
# crystal, experimental, refinement or atomic coordinate data resulting 
# from the CCDC's data processing and validation procedures.
#
#######################################################################

data_ROBWAH
_symmetry_cell_setting           orthorhombic
_symmetry_space_group_name_H-M   'P n n 2'
_symmetry_Int_Tables_number      34
_space_group_name_Hall           'P 2 -2n'
loop_
_symmetry_equiv_pos_site_id
_symmetry_equiv_pos_as_xyz
1 x,y,z
2 -x,-y,z
3 1/2+x,1/2-y,1/2+z
4 1/2-x,1/2+y,1/2+z
_cell_length_a                   23.458(4)
_cell_length_b                   7.5546(14)
_cell_length_c                   16.518(3)
_cell_angle_alpha                90
_cell_angle_beta                 90
_cell_angle_gamma                90
_cell_volume                     2927.25
loop_
_atom_site_label
_atom_site_type_symbol
_atom_site_fract_x
_atom_site_fract_y
_atom_site_fract_z
Ag1 Ag 0.5000 1.0000 0.93341(9)
Ag2 Ag 0.14263(3) 1.11973(14) 0.56512(5)
S1 S 0.22232(12) 0.6623(5) 1.04066(14)
S2 S 0.15399(14) 0.7911(5) 0.65794(16)
C1 C 0.2399(4) 0.7478(13) 1.1358(6)
C2 C 0.3101(5) 0.8172(16) 1.2204(6)
H1 H 0.3486 0.8327 1.2318
C3 C 0.2718(5) 0.8654(18) 1.2778(7)
H2 H 0.2836 0.9064 1.3282
C4 C 0.2155(4) 0.8516(14) 1.2590(6)
C5 C 0.1674(4) 0.8965(16) 1.3159(6)
C6 C 0.1106(5) 0.8517(16) 1.2949(7)
H3 H 0.1025 0.7991 1.2453
C7 C 0.0684(5) 0.886(2) 1.3478(7)
H4 H 0.0311 0.8556 1.3349
C8 C 0.0796(4) 0.9637(16) 1.4183(7)
H5 H 0.0495 0.9898 1.4529
C9 C 0.1746(5) 0.9692(15) 1.3887(6)
H6 H 0.2116 0.9968 1.4043
C10 C 0.1473(5) 0.6897(17) 1.0419(6)
H7 H 0.1301 0.6070 1.0796
H8 H 0.1375 0.8090 1.0586
C11 C 0.1254(5) 0.6540(18) 0.9543(8)
C12 C 0.1352(5) 0.7632(18) 0.8928(7)
H9 H 0.1567 0.8650 0.9017
C13 C 0.1142(5) 0.7290(19) 0.8152(6)
C14 C 0.0824(5) 0.5916(19) 0.8004(7)
H10 H 0.0651 0.5796 0.7500
C15 C 0.0738(6) 0.4603(19) 0.8602(9)
H11 H 0.0544 0.3562 0.8482
C16 C 0.0945(5) 0.490(2) 0.9356(8)
H12 H 0.0890 0.4057 0.9759
C17 C 0.1240(6) 0.8707(18) 0.7514(7)
H13 H 0.1492 0.9599 0.7737
H14 H 0.0878 0.9275 0.7397
C18 C 0.2286(5) 0.7844(17) 0.6767(7)
C19 C 0.3130(6) 0.7160(16) 0.6267(6)
H15 H 0.3356 0.6745 0.5845
C20 C 0.3395(5) 0.7763(15) 0.6912(6)
H16 H 0.3791 0.7766 0.6945
C21 C 0.3053(5) 0.8410(15) 0.7555(7)
C22 C 0.3290(4) 0.9121(14) 0.8319(6)
C23 C 0.2936(5) 0.9619(15) 0.8908(6)
H17 H 0.2544 0.9607 0.8832
C24 C 0.3172(5) 1.0156(16) 0.9636(7)
H18 H 0.2933 1.0409 1.0071
C25 C 0.3738(5) 1.0316(15) 0.9724(7)
H19 H 0.3879 1.0780 1.0206
C26 C 0.3871(5) 0.9276(18) 0.8478(7)
H20 H 0.4118 0.8946 0.8064
N2 N 0.2963(3) 0.7498(12) 1.1494(5)
N3 N 0.1989(3) 0.7862(11) 1.1870(5)
N4 N 0.1325(3) 1.0054(13) 1.4412(5)
N5 N 0.2574(5) 0.7089(14) 0.6161(6)
N6 N 0.2495(4) 0.8507(12) 0.7471(5)
N7 N 0.4106(4) 0.9843(14) 0.9154(6)
N8 N 0.0205(8) 1.238(2) 0.6112(11)
O4 O -0.0285(5) 1.2929(16) 0.6195(6)
O5 O 0.0417(5) 1.2388(15) 0.5456(7)
O6 O 0.0498(5) 1.2085(15) 0.6698(6)
Ag2A Ag 0.85737(3) 0.88027(14) 0.56512(5)
Ag2C Ag 0.35737(3) 0.61973(14) 1.06512(5)
Ag2_2 Ag 0.14263(3) 1.11973(14) 1.56512(5)
Ag2B Ag 0.64263(3) 1.38027(14) 1.06512(5)
Ag2A_2 Ag 0.85737(3) 0.88027(14) 1.56512(5)
S1A S 0.77768(12) 1.3377(5) 1.04066(14)
S2A S 0.84601(14) 1.2089(5) 0.65794(16)
C1A C 0.7601(4) 1.2522(13) 1.1358(6)
C2A C 0.6899(5) 1.1828(16) 1.2204(6)
H1A H 0.6514 1.1673 1.2318
C3A C 0.7282(5) 1.1346(18) 1.2778(7)
H2A H 0.7164 1.0936 1.3282
C4A C 0.7845(4) 1.1484(14) 1.2590(6)
C5A C 0.8326(4) 1.1035(16) 1.3159(6)
C6A C 0.8894(5) 1.1483(16) 1.2949(7)
H3A H 0.8975 1.2009 1.2453
C7A C 0.9316(5) 1.114(2) 1.3478(7)
H4A H 0.9689 1.1444 1.3349
C8A C 0.9204(4) 1.0363(16) 1.4183(7)
H5A H 0.9505 1.0102 1.4529
C9A C 0.8254(5) 1.0308(15) 1.3887(6)
H6A H 0.7884 1.0032 1.4043
C10A C 0.8527(5) 1.3103(17) 1.0419(6)
H7A H 0.8699 1.3930 1.0796
H8A H 0.8625 1.1910 1.0586
C11A C 0.8746(5) 1.3460(18) 0.9543(8)
C12A C 0.8648(5) 1.2368(18) 0.8928(7)
H9A H 0.8433 1.1350 0.9017
C13A C 0.8858(5) 1.2710(19) 0.8152(6)
C14A C 0.9176(5) 1.4084(19) 0.8004(7)
H10A H 0.9349 1.4204 0.7500
C15A C 0.9262(6) 1.5397(19) 0.8602(9)
H11A H 0.9456 1.6438 0.8482
C16A C 0.9055(5) 1.510(2) 0.9356(8)
H12A H 0.9110 1.5943 0.9759
C17A C 0.8760(6) 1.1293(18) 0.7514(7)
H13A H 0.8508 1.0401 0.7737
H14A H 0.9122 1.0725 0.7397
C18A C 0.7714(5) 1.2156(17) 0.6767(7)
C19A C 0.6870(6) 1.2840(16) 0.6267(6)
H15A H 0.6644 1.3255 0.5845
C20A C 0.6605(5) 1.2237(15) 0.6912(6)
H16A H 0.6209 1.2234 0.6945
C21A C 0.6947(5) 1.1590(15) 0.7555(7)
C22A C 0.6710(4) 1.0879(14) 0.8319(6)
C23A C 0.7064(5) 1.0381(15) 0.8908(6)
H17A H 0.7456 1.0393 0.8832
C24A C 0.6828(5) 0.9844(16) 0.9636(7)
H18A H 0.7067 0.9591 1.0071
C25A C 0.6262(5) 0.9684(15) 0.9724(7)
H19A H 0.6121 0.9220 1.0206
C26A C 0.6129(5) 1.0724(18) 0.8478(7)
H20A H 0.5882 1.1054 0.8064
N2A N 0.7037(3) 1.2502(12) 1.1494(5)
N2C N 0.2037(3) 1.2498(12) 0.6494(5)
N2B N 0.7963(3) 0.7502(12) 0.6494(5)
N3A N 0.8011(3) 1.2138(11) 1.1870(5)
N4A N 0.8675(3) 0.9946(13) 1.4412(5)
N4_2 N 0.1325(3) 1.0054(13) 0.4412(5)
N4A_2 N 0.8675(3) 0.9946(13) 0.4412(5)
N5A N 0.7426(5) 1.2911(14) 0.6161(6)
N6A N 0.7505(4) 1.1493(12) 0.7471(5)
N7A N 0.5894(4) 1.0157(14) 0.9154(6)
N8A N 0.9795(8) 0.762(2) 0.6112(11)
O4A O 1.0285(5) 0.7071(16) 0.6195(6)
O5A O 0.9583(5) 0.7612(15) 0.5456(7)
O6A O 0.9502(5) 0.7915(15) 0.6698(6)
N1 N 0.5000 1.0000 0.6950(14)
O1 O 0.5422(10) 1.002(4) 0.6473(15)
O2 O 0.4890(13) 0.834(2) 0.7011(18)
O3 O 0.4870(13) 1.105(3) 0.7410(16)
O1A O 0.4578(10) 0.998(4) 0.6473(15)
O2A O 0.5110(13) 1.166(2) 0.7011(18)
O3A O 0.5130(13) 0.895(3) 0.7410(16)
loop_
_geom_bond_atom_site_label_1
_geom_bond_atom_site_label_2
_geom_bond_site_symmetry_1
_geom_bond_site_symmetry_2
N1 O1 1_555 1_555
O1 O2A 1_555 1_555
O2 N1 1_555 1_555
O3 N1 1_555 1_555
Ag1 N7 1_555 1_555
Ag2 S2 1_555 1_555
S1 C1 1_555 1_555
S2 C17 1_555 1_555
C1 N2 1_555 1_555
C2 H1 1_555 1_555
C3 C2 1_555 1_555
H2 C3 1_555 1_555
C4 C3 1_555 1_555
C5 C4 1_555 1_555
C6 C5 1_555 1_555
H3 C6 1_555 1_555
C7 C6 1_555 1_555
H4 C7 1_555 1_555
C8 C7 1_555 1_555
H5 C8 1_555 1_555
C9 C5 1_555 1_555
H6 C9 1_555 1_555
C10 S1 1_555 1_555
H7 C10 1_555 1_555
H8 C10 1_555 1_555
C11 C10 1_555 1_555
C12 C11 1_555 1_555
H9 C12 1_555 1_555
C13 C12 1_555 1_555
C14 C13 1_555 1_555
H10 C14 1_555 1_555
C15 C14 1_555 1_555
H11 C15 1_555 1_555
C16 C11 1_555 1_555
H12 C16 1_555 1_555
C17 C13 1_555 1_555
H13 C17 1_555 1_555
H14 C17 1_555 1_555
C18 S2 1_555 1_555
C19 H15 1_555 1_555
C20 C19 1_555 1_555
H16 C20 1_555 1_555
C21 C20 1_555 1_555
C22 C21 1_555 1_555
C23 C22 1_555 1_555
H17 C23 1_555 1_555
C24 C23 1_555 1_555
H18 C24 1_555 1_555
C25 C24 1_555 1_555
H19 C25 1_555 1_555
C26 C22 1_555 1_555
H20 C26 1_555 1_555
N2 C2 1_555 1_555
N3 C1 1_555 1_555
N4 C8 1_555 1_555
N5 C18 1_555 1_555
N6 C18 1_555 1_555
N7 C25 1_555 1_555
N8 O4 1_555 1_555
O5 Ag2 1_555 1_555
O6 N8 1_555 1_555
O1A N1 1_555 1_555
O2A N1 1_555 1_555
O3A N1 1_555 1_555
Ag2A S2A 1_555 1_555
Ag2C N2 1_555 1_555
Ag2_2 N4 1_555 1_555
Ag2B N2A 1_555 1_555
Ag2A_2 N4A 1_555 1_555
S1A C1A 1_555 1_555
S2A C17A 1_555 1_555
C1A N2A 1_555 1_555
C2A H1A 1_555 1_555
C3A C2A 1_555 1_555
H2A C3A 1_555 1_555
C4A C3A 1_555 1_555
C5A C4A 1_555 1_555
C6A C5A 1_555 1_555
H3A C6A 1_555 1_555
C7A C6A 1_555 1_555
H4A C7A 1_555 1_555
C8A C7A 1_555 1_555
H5A C8A 1_555 1_555
C9A C5A 1_555 1_555
H6A C9A 1_555 1_555
C10A S1A 1_555 1_555
H7A C10A 1_555 1_555
H8A C10A 1_555 1_555
C11A C10A 1_555 1_555
C12A C11A 1_555 1_555
H9A C12A 1_555 1_555
C13A C12A 1_555 1_555
C14A C13A 1_555 1_555
H10A C14A 1_555 1_555
C15A C14A 1_555 1_555
H11A C15A 1_555 1_555
C16A C11A 1_555 1_555
H12A C16A 1_555 1_555
C17A C13A 1_555 1_555
H13A C17A 1_555 1_555
H14A C17A 1_555 1_555
C18A S2A 1_555 1_555
C19A H15A 1_555 1_555
C20A C19A 1_555 1_555
H16A C20A 1_555 1_555
C21A C20A 1_555 1_555
C22A C21A 1_555 1_555
C23A C22A 1_555 1_555
H17A C23A 1_555 1_555
C24A C23A 1_555 1_555
H18A C24A 1_555 1_555
C25A C24A 1_555 1_555
H19A C25A 1_555 1_555
C26A C22A 1_555 1_555
H20A C26A 1_555 1_555
N2A C2A 1_555 1_555
N2C Ag2 1_555 1_555
N2B Ag2A 1_555 1_555
N3A C1A 1_555 1_555
N4A C8A 1_555 1_555
N4_2 Ag2 1_555 1_555
N4A_2 Ag2A 1_555 1_555
N5A C18A 1_555 1_555
N6A C18A 1_555 1_555
N7A Ag1 1_555 1_555
N8A O4A 1_555 1_555
O5A Ag2A 1_555 1_555
O6A N8A 1_555 1_555
O2 O1A 1_555 1_555
O2 O3A 1_555 1_555
O3 O2A 1_555 1_555
O3 O3A 1_555 1_555
C4 N3 1_555 1_555
C9 N4 1_555 1_555
C15 C16 1_555 1_555
C19 N5 1_555 1_555
C21 N6 1_555 1_555
C26 N7 1_555 1_555
N8 O5 1_555 1_555
C4A N3A 1_555 1_555
C9A N4A 1_555 1_555
C15A C16A 1_555 1_555
C19A N5A 1_555 1_555
C21A N6A 1_555 1_555
C25A N7A 1_555 1_555
C26A N7A 1_555 1_555
N8A O5A 1_555 1_555

#END
