
#######################################################################
#
#                 Cambridge Crystallographic Data Centre
#                                CCDC 
#
#######################################################################
#
# If this CIF has been generated from an entry in the Cambridge 
# Structural Database, then it will include bibliographic, chemical, 
# crystal, experimental, refinement or atomic coordinate data resulting 
# from the CCDC's data processing and validation procedures.
#
#######################################################################

data_ROGSAI
_symmetry_cell_setting           monoclinic
_symmetry_space_group_name_H-M   'P 21/c'
_symmetry_Int_Tables_number      14
_space_group_name_Hall           '-P 2ybc'
loop_
_symmetry_equiv_pos_site_id
_symmetry_equiv_pos_as_xyz
1 x,y,z
2 -x,1/2+y,1/2-z
3 -x,-y,-z
4 x,1/2-y,1/2+z
_cell_length_a                   14.8156(14)
_cell_length_b                   11.0770(11)
_cell_length_c                   13.4336(13)
_cell_angle_alpha                90
_cell_angle_beta                 99.046(2)
_cell_angle_gamma                90
_cell_volume                     2177.2
loop_
_atom_site_label
_atom_site_type_symbol
_atom_site_fract_x
_atom_site_fract_y
_atom_site_fract_z
Ni1 Ni 1.04347(5) 0.00137(7) 0.11175(6)
Ni2 Ni 1.13512(5) -0.14819(7) -0.09248(6)
O1 O 1.1757(3) 0.0442(5) 0.1823(4)
H1 H 1.1826(19) 0.113(3) 0.157(4)
H2 H 1.1671(14) 0.052(6) 0.2429(10)
O2 O 1.1710(3) -0.3003(5) -0.1720(4)
H3 H 1.124(2) -0.307(3) -0.216(3)
H4 H 1.173(4) -0.3535(14) -0.1267(16)
O3 O 1.0411(3) -0.1857(4) 0.1268(3)
O4 O 1.1446(3) -0.2560(4) 0.0378(3)
O5 O 0.9935(3) -0.1865(4) -0.1130(3)
O6 O 0.8612(3) -0.2820(5) -0.1410(5)
O7 O 1.1272(3) -0.4259(4) 0.2655(3)
O8 O 0.9895(3) -0.5094(4) 0.2483(3)
O9 O 0.9150(3) 0.0016(4) 0.0275(3)
H5 H 0.8857 -0.0621 0.0375
N1 N 1.2703(4) -0.0972(6) -0.0586(4)
C1 C 1.0115(4) -0.3782(5) 0.0490(4)
H6 H 0.9529 -0.3660 0.0726
C2 C 0.9937(4) -0.3938(5) -0.0667(4)
H7 H 1.0531 -0.3975 -0.0900
C3 C 1.0590(4) -0.4915(5) 0.1019(4)
H8 H 1.1219 -0.4973 0.0882
C4 C 1.0710(4) -0.2644(6) 0.0739(4)
C5 C 0.9444(4) -0.2808(6) -0.1113(4)
C6 C 1.0591(4) -0.4755(5) 0.2150(4)
C7 C 1.3240(7) -0.0876(13) -0.1264(8)
H9 H 1.2995 -0.1043 -0.1931
C8 C 1.4136(8) -0.0546(15) -0.1061(9)
H10 H 1.4490 -0.0555 -0.1574
C9 C 1.4517(5) -0.0205(8) -0.0118(6)
C10 C 1.3963(7) -0.0289(12) 0.0571(8)
H11 H 1.4180 -0.0087 0.1237
C11 C 1.3068(7) -0.0673(12) 0.0309(7)
H12 H 1.2708 -0.0717 0.0816
Ni1B Ni 0.95653(5) -1.00137(7) -0.11175(6)
Ni1B_2 Ni 0.95653(5) -0.00137(7) -0.11175(6)
Ni1A Ni 0.95653(5) -0.49863(7) 0.38825(6)
Ni1_2 Ni 1.04347(5) -0.99863(7) 0.11175(6)
Ni1C Ni 1.04347(5) -0.50137(7) -0.38825(6)
Ni2B Ni 0.86488(5) -0.85181(7) 0.09248(6)
Ni2C Ni 1.13512(5) -0.35181(7) 0.40752(6)
Ni2B_2 Ni 0.86488(5) 0.14819(7) 0.09248(6)
Ni2A Ni 0.86488(5) -0.64819(7) -0.40752(6)
Ni2B_3 Ni 1.86488(5) 0.14819(7) 0.09248(6)
O1B O 0.8243(3) -1.0442(5) -0.1823(4)
H1B H 0.8174(19) -1.113(3) -0.157(4)
H2B H 0.8329(14) -1.052(6) -0.2429(10)
O2B O 0.8290(3) -0.6997(5) 0.1720(4)
H3B H 0.876(2) -0.693(3) 0.216(3)
H4B H 0.827(4) -0.6465(14) 0.1267(16)
O3B O 0.9589(3) -0.8143(4) -0.1268(3)
O4B O 0.8554(3) -0.7440(4) -0.0378(3)
O5B O 1.0065(3) -0.8135(4) 0.1130(3)
O5B_2 O 1.0065(3) 0.1865(4) 0.1130(3)
O5_2 O 0.9935(3) -1.1865(4) -0.1130(3)
O6B O 1.1388(3) -0.7180(5) 0.1410(5)
O7B O 0.8728(3) -0.5741(4) -0.2655(3)
O7C O 1.1272(3) -0.0741(4) -0.2345(3)
O7A O 0.8728(3) -0.9259(4) 0.2345(3)
O8B O 1.0105(3) -0.4906(4) -0.2483(3)
O8A O 1.0105(3) -0.0094(4) 0.2517(3)
O8C O 0.9895(3) -0.9906(4) -0.2517(3)
O9B O 1.0850(3) -0.0016(4) -0.0275(3)
O9_2 O 0.9150(3) -0.9984(4) 0.0275(3)
O9B_2 O 1.0850(3) -1.0016(4) -0.0275(3)
H5B H 1.1143 0.0621 -0.0375
H5_2 H 0.8857 -1.0621 0.0375
H5B_2 H 1.1143 -0.9379 -0.0375
N1B N 1.7297(4) 0.0972(6) 0.0586(4)
N1B_2 N 0.7297(4) -0.9028(6) 0.0586(4)
C1B C 0.9885(4) -0.6218(5) -0.0490(4)
H6B H 1.0471 -0.6340 -0.0726
C2B C 1.0063(4) -0.6062(5) 0.0667(4)
H7B H 0.9469 -0.6025 0.0900
C3B C 0.9410(4) -0.5085(5) -0.1019(4)
H8B H 0.8781 -0.5027 -0.0882
C4B C 0.9290(4) -0.7356(6) -0.0739(4)
C5B C 1.0556(4) -0.7192(6) 0.1113(4)
C6B C 0.9409(4) -0.5245(5) -0.2150(4)
C7B C 1.6760(7) 0.0876(13) 0.1264(8)
H9B H 1.7005 0.1043 0.1931
C8B C 1.5864(8) 0.0546(15) 0.1061(9)
H10B H 1.5510 0.0555 0.1574
C9B C 1.5483(5) 0.0205(8) 0.0118(6)
C10B C 1.6037(7) 0.0289(12) -0.0571(8)
H11B H 1.5820 0.0087 -0.1237
C11B C 1.6932(7) 0.0673(12) -0.0309(7)
H12B H 1.7292 0.0717 -0.0816
O10 O 1.1598(7) 0.2940(9) 0.3700(7)
O11 O 1.3100(12) -0.3726(19) 0.1003(15)
O12 O 1.2340(12) 0.0373(17) 0.3958(12)
O13 O 1.298(2) -0.607(3) 0.153(2)
loop_
_geom_bond_atom_site_label_1
_geom_bond_atom_site_label_2
_geom_bond_site_symmetry_1
_geom_bond_site_symmetry_2
Ni1 O1 1_555 1_555
Ni2 O2 1_555 1_555
O1 H1 1_555 1_555
H2 O1 1_555 1_555
O2 H3 1_555 1_555
H4 O2 1_555 1_555
O3 Ni1 1_555 1_555
O4 Ni2 1_555 1_555
O5 Ni2 1_555 1_555
O6 C5 1_555 1_555
O7 C6 1_555 1_555
O8 C6 1_555 1_555
O9 Ni1 1_555 1_555
H5 O9 1_555 1_555
N1 Ni2 1_555 1_555
C1 H6 1_555 1_555
C2 C1 1_555 1_555
H7 C2 1_555 1_555
C3 C1 1_555 1_555
H8 C3 1_555 1_555
C4 O3 1_555 1_555
C5 O5 1_555 1_555
C6 C3 1_555 1_555
C7 N1 1_555 1_555
H9 C7 1_555 1_555
C8 C7 1_555 1_555
H10 C8 1_555 1_555
C9 C8 1_555 1_555
C10 C9 1_555 1_555
H11 C10 1_555 1_555
C11 N1 1_555 1_555
H12 C11 1_555 1_555
Ni1B O1B 1_555 1_555
Ni1B_2 O5 1_555 1_555
Ni1A O8 1_555 1_555
Ni1_2 O5B 1_555 1_555
Ni1C O8B 1_555 1_555
Ni2B O2B 1_555 1_555
Ni2C O7 1_555 1_555
Ni2B_2 O9 1_555 1_555
Ni2A O7B 1_555 1_555
Ni2B_3 N1B 1_555 1_555
O1B H1B 1_555 1_555
H2B O1B 1_555 1_555
O2B H3B 1_555 1_555
H4B O2B 1_555 1_555
O3B Ni1B 1_555 1_555
O4B Ni2B 1_555 1_555
O5B Ni2B 1_555 1_555
O5B_2 Ni1 1_555 1_555
O5_2 Ni1B 1_555 1_555
O6B C5B 1_555 1_555
O7B C6B 1_555 1_555
O7C Ni2 1_555 1_555
O7A Ni2B 1_555 1_555
O8B C6B 1_555 1_555
O8A Ni1 1_555 1_555
O8C Ni1B 1_555 1_555
O9B Ni1 1_555 1_555
O9_2 Ni1B 1_555 1_555
O9B_2 Ni1B 1_555 1_555
H5B O9B 1_555 1_555
H5_2 O9_2 1_555 1_555
H5B_2 O9B_2 1_555 1_555
N1B C7B 1_555 1_555
N1B_2 Ni2B 1_555 1_555
C1B H6B 1_555 1_555
C2B C3 1_555 1_555
H7B C2B 1_555 1_555
C3B C2 1_555 1_555
H8B C3B 1_555 1_555
C4B O3B 1_555 1_555
C5B O5B 1_555 1_555
C6B C3B 1_555 1_555
C7B H9B 1_555 1_555
C8B C7B 1_555 1_555
H10B C8B 1_555 1_555
C9B C9 1_555 1_555
C10B C9B 1_555 1_555
H11B C10B 1_555 1_555
C11B N1B 1_555 1_555
H12B C11B 1_555 1_555
Ni2 O9B 1_555 1_555
O4 C4 1_555 1_555
O9 Ni1B_2 1_555 1_555
C1 C4 1_555 1_555
C2 C5 1_555 1_555
C10 C11 1_555 1_555
Ni1B_2 O9B 1_555 1_555
Ni1_2 O9_2 1_555 1_555
Ni1_2 O9B_2 1_555 1_555
Ni2B O9_2 1_555 1_555
Ni2B_2 O5B_2 1_555 1_555
O4B C4B 1_555 1_555
C1B C2B 1_555 1_555
C1B C3B 1_555 1_555
C1B C4B 1_555 1_555
C2B C5B 1_555 1_555
C8B C9B 1_555 1_555
C10B C11B 1_555 1_555

#END
