
#######################################################################
#
#                 Cambridge Crystallographic Data Centre
#                                CCDC 
#
#######################################################################
#
# If this CIF has been generated from an entry in the Cambridge 
# Structural Database, then it will include bibliographic, chemical, 
# crystal, experimental, refinement or atomic coordinate data resulting 
# from the CCDC's data processing and validation procedures.
#
#######################################################################

data_ROLZEZ
_symmetry_cell_setting           triclinic
_symmetry_space_group_name_H-M   'P -1'
_symmetry_Int_Tables_number      2
_space_group_name_Hall           '-P 1'
loop_
_symmetry_equiv_pos_site_id
_symmetry_equiv_pos_as_xyz
1 x,y,z
2 -x,-y,-z
_cell_length_a                   9.5782(19)
_cell_length_b                   12.778(3)
_cell_length_c                   18.945(4)
_cell_angle_alpha                107.49(3)
_cell_angle_beta                 99.21(3)
_cell_angle_gamma                97.89(3)
_cell_volume                     2140.25
loop_
_atom_site_label
_atom_site_type_symbol
_atom_site_fract_x
_atom_site_fract_y
_atom_site_fract_z
C1 C 0.8949(7) 0.4037(6) 1.0752(4)
C2 C 0.9692(7) 0.3329(6) 1.1036(3)
C3 C 0.9127(7) 0.2188(6) 1.0800(3)
C4 C 0.7798(7) 0.1743(6) 1.0305(3)
C5 C 0.7021(7) 0.2456(6) 1.0032(3)
C6 C 0.7609(8) 0.3594(6) 1.0239(4)
C7 C 0.6774(10) 0.4338(8) 0.9902(5)
H1 H 0.6662 0.4081 0.9362
H2 H 0.7296 0.5097 1.0107
H3 H 0.5840 0.4300 1.0028
C8 C 1.1133(8) 0.3810(7) 1.1615(5)
H4 H 1.1019 0.3730 1.2092
H5 H 1.1425 0.4588 1.1679
H6 H 1.1855 0.3411 1.1435
C9 C 0.7196(9) 0.0502(7) 1.0066(5)
H7 H 0.7863 0.0152 1.0306
H8 H 0.7053 0.0180 0.9526
H9 H 0.6291 0.0386 1.0216
C10 C 0.9638(9) 0.5237(6) 1.0964(4)
H10 H 0.9203 0.5537 1.0588
H11 H 1.0653 0.5287 1.0951
C11 C 1.0692(8) 0.6626(7) 1.2234(5)
H12 H 1.1590 0.6592 1.2111
C12 C 1.0605(8) 0.7361(7) 1.2918(4)
H13 H 1.1431 0.7823 1.3255
C13 C 0.9257(7) 0.7396(6) 1.3095(4)
C14 C 0.8064(8) 0.6676(6) 1.2594(4)
H14 H 0.7160 0.6689 1.2712
C15 C 0.8192(8) 0.5921(7) 1.1906(4)
H15 H 0.7393 0.5413 1.1577
C16 C 0.9118(8) 0.8236(6) 1.3808(4)
C17 C 0.5556(7) 0.2000(7) 0.9504(3)
H16 H 0.5070 0.1378 0.9623
H17 H 0.4982 0.2578 0.9590
C18 C 0.4401(7) 0.1423(6) 0.8165(4)
H18 H 0.3549 0.1541 0.8324
C19 C 0.4394(7) 0.1062(6) 0.7412(3)
H19 H 0.3539 0.0943 0.7062
C20 C 0.5648(6) 0.0869(5) 0.7161(3)
C21 C 0.6878(7) 0.1042(6) 0.7700(4)
H20 H 0.7730 0.0902 0.7548
C22 C 0.6873(7) 0.1419(6) 0.8457(4)
H21 H 0.7718 0.1542 0.8815
C23 C 0.5689(7) 0.0477(6) 0.6330(3)
C24 C 1.0012(8) 0.1447(6) 1.1053(4)
H22 H 1.1007 0.1695 1.1039
H23 H 0.9689 0.0693 1.0696
C25 C 0.8698(7) 0.1385(7) 1.2071(4)
H24 H 0.7888 0.1467 1.1764
C26 C 0.8589(7) 0.1242(6) 1.2746(4)
H25 H 0.7710 0.1216 1.2896
C27 C 0.9801(7) 0.1135(6) 1.3207(4)
C28 C 1.1087(7) 0.1196(7) 1.2965(4)
H26 H 1.1926 0.1165 1.3275
C29 C 1.1131(8) 0.1301(7) 1.2268(4)
H27 H 1.1987 0.1296 1.2096
C30 C 0.9775(8) 0.0957(6) 1.3959(4)
Eu1 Eu 0.23569(3) 0.01276(3) 0.502495(17)
N1 N 0.9506(7) 0.5956(5) 1.1739(3)
N2 N 0.5631(5) 0.1611(4) 0.8681(3)
N3 N 0.9956(6) 0.1411(5) 1.1840(3)
O1 O 0.7890(5) 0.8299(4) 1.3924(2)
O2 O 1.0264(5) 0.8853(4) 1.4238(3)
O3 O 0.4532(5) 0.0345(4) 0.5870(2)
O4 O 0.6856(5) 0.0307(4) 0.6157(2)
O5 O 0.8558(5) 0.0646(4) 1.4069(3)
O6 O 1.0964(5) 0.1097(4) 1.4380(3)
O7 O 0.4002(5) 0.1839(5) 0.5067(3)
H28 H 0.4620 0.2478 0.5084
O8 O 0.2946(5) -0.1732(4) 0.4799(3)
H29 H 0.3170 -0.2439 0.4713
Eu1_2 Eu 1.23569(3) 0.01276(3) 1.502495(17)
Eu1_3 Eu 1.23569(3) 1.01276(3) 1.502495(17)
Eu1A Eu 0.76431(3) -0.01276(3) 0.497505(17)
Eu1A_2 Eu 0.76431(3) -0.01276(3) 1.497505(17)
Eu1A_3 Eu 0.76431(3) 0.98724(3) 1.497505(17)
O1A O 0.2110(5) 0.1701(4) 0.6076(2)
O2_2 O 0.0264(5) -0.1147(4) 0.4238(3)
O4A O 0.3144(5) -0.0307(4) 0.3843(2)
O5A O 0.1442(5) -0.0646(4) 0.5931(3)
O6_2 O 0.0964(5) 0.1097(4) 0.4380(3)
N4 N 0.4829(8) 0.1675(8) 0.1698(5)
O9 O 0.5038(13) 0.1078(11) 0.1896(9)
O10 O 0.3813(10) 0.2062(10) 0.1626(7)
O11 O 0.5752(13) 0.2065(17) 0.1459(10)
loop_
_geom_bond_atom_site_label_1
_geom_bond_atom_site_label_2
_geom_bond_site_symmetry_1
_geom_bond_site_symmetry_2
C1 C2 1_555 1_555
C2 C3 1_555 1_555
C3 C4 1_555 1_555
C4 C5 1_555 1_555
C5 C6 1_555 1_555
C6 C1 1_555 1_555
C7 C6 1_555 1_555
H1 C7 1_555 1_555
H2 C7 1_555 1_555
H3 C7 1_555 1_555
C8 C2 1_555 1_555
H4 C8 1_555 1_555
H5 C8 1_555 1_555
H6 C8 1_555 1_555
C9 C4 1_555 1_555
H7 C9 1_555 1_555
H8 C9 1_555 1_555
H9 C9 1_555 1_555
C10 C1 1_555 1_555
H10 C10 1_555 1_555
H11 C10 1_555 1_555
C11 H12 1_555 1_555
C12 C11 1_555 1_555
H13 C12 1_555 1_555
C13 C12 1_555 1_555
C14 C13 1_555 1_555
H14 C14 1_555 1_555
C15 C14 1_555 1_555
H15 C15 1_555 1_555
C16 C13 1_555 1_555
C17 C5 1_555 1_555
H16 C17 1_555 1_555
H17 C17 1_555 1_555
C18 H18 1_555 1_555
C19 C18 1_555 1_555
H19 C19 1_555 1_555
C20 C19 1_555 1_555
C21 C20 1_555 1_555
H20 C21 1_555 1_555
C22 C21 1_555 1_555
H21 C22 1_555 1_555
C23 C20 1_555 1_555
C24 C3 1_555 1_555
H22 C24 1_555 1_555
H23 C24 1_555 1_555
C25 H24 1_555 1_555
C26 C25 1_555 1_555
H25 C26 1_555 1_555
C27 C26 1_555 1_555
C28 C27 1_555 1_555
H26 C28 1_555 1_555
C29 C28 1_555 1_555
H27 C29 1_555 1_555
C30 C27 1_555 1_555
Eu1 O3 1_555 1_555
N1 C10 1_555 1_555
N2 C17 1_555 1_555
N3 C24 1_555 1_555
O1 C16 1_555 1_555
O2 C16 1_555 1_555
O3 C23 1_555 1_555
O4 C23 1_555 1_555
O5 C30 1_555 1_555
O6 C30 1_555 1_555
O7 Eu1 1_555 1_555
H28 O7 1_555 1_555
O8 Eu1 1_555 1_555
H29 O8 1_555 1_555
N4 O9 1_555 1_555
O10 N4 1_555 1_555
O11 N4 1_555 1_555
Eu1_2 O6 1_555 1_555
Eu1_3 O2 1_555 1_555
Eu1A O4 1_555 1_555
Eu1A_2 O5 1_555 1_555
Eu1A_3 O1 1_555 1_555
O1A Eu1 1_555 1_555
O2_2 Eu1 1_555 1_555
O4A Eu1 1_555 1_555
O5A Eu1 1_555 1_555
O6_2 Eu1 1_555 1_555
C11 N1 1_555 1_555
C15 N1 1_555 1_555
C18 N2 1_555 1_555
C22 N2 1_555 1_555
C25 N3 1_555 1_555
C29 N3 1_555 1_555

#END
