
#######################################################################
#
#                 Cambridge Crystallographic Data Centre
#                                CCDC 
#
#######################################################################
#
# If this CIF has been generated from an entry in the Cambridge 
# Structural Database, then it will include bibliographic, chemical, 
# crystal, experimental, refinement or atomic coordinate data resulting 
# from the CCDC's data processing and validation procedures.
#
#######################################################################

data_ROMQAN
_symmetry_cell_setting           monoclinic
_symmetry_space_group_name_H-M   'P 21/c'
_symmetry_Int_Tables_number      14
_space_group_name_Hall           '-P 2ybc'
loop_
_symmetry_equiv_pos_site_id
_symmetry_equiv_pos_as_xyz
1 x,y,z
2 -x,1/2+y,1/2-z
3 -x,-y,-z
4 x,1/2-y,1/2+z
_cell_length_a                   7.8080(16)
_cell_length_b                   17.456(3)
_cell_length_c                   18.918(5)
_cell_angle_alpha                90
_cell_angle_beta                 106.42(3)
_cell_angle_gamma                90
_cell_volume                     2473.29
loop_
_atom_site_label
_atom_site_type_symbol
_atom_site_fract_x
_atom_site_fract_y
_atom_site_fract_z
Zn1 Zn 1.79084(12) 0.79801(5) 0.78017(4)
Zn2 Zn 1.54075(12) 0.87996(5) 0.88647(5)
O1 O 1.4334(8) 0.7847(3) 0.8400(3)
O2 O 1.5874(8) 0.7294(3) 0.7690(3)
O3 O 1.3622(9) 0.4694(3) 0.6539(3)
O4 O 1.3043(9) 0.4012(3) 0.7430(3)
O5 O 0.9683(10) 0.6022(4) 0.8519(5)
O6 O 0.4567(8) 0.6566(4) 1.0697(3)
O7 O 0.0603(8) 0.6485(4) 1.2370(3)
O8 O -0.1281(7) 0.7441(3) 1.1991(3)
O9 O -0.2237(8) 0.8332(4) 0.9457(3)
O10 O -0.0456(8) 0.7940(3) 0.8793(3)
O11 O 1.5053(10) 0.9028(5) 0.9868(4)
O12 O 1.2797(11) 0.9290(4) 0.8470(5)
C1 C 1.3139(11) 0.4627(4) 0.7128(4)
C2 C 1.2699(10) 0.5348(4) 0.7469(4)
C3 C 1.3698(10) 0.6001(4) 0.7485(4)
H1 H 1.4583 0.6014 0.7243
C4 C 1.3370(9) 0.6643(4) 0.7864(4)
C5 C 1.1975(10) 0.6630(4) 0.8180(4)
H2 H 1.1698 0.7069 0.8405
C6 C 1.0990(11) 0.5969(5) 0.8165(5)
C7 C 1.1354(11) 0.5321(4) 0.7822(4)
H3 H 1.0715 0.4871 0.7825
C8 C 1.4612(11) 0.7317(4) 0.7986(4)
C9 C 0.8840(16) 0.5348(8) 0.8652(6)
H4 H 0.9672 0.4926 0.8702
H5 H 0.7833 0.5245 0.8227
C10 C 0.822(3) 0.5371(13) 0.9291(14)
H6 H 0.7564 0.4900 0.9295
H7 H 0.9266 0.5351 0.9714
C11 C 0.721(3) 0.5938(13) 0.9410(14)
H8 H 0.6137 0.5955 0.8997
H9 H 0.7846 0.6414 0.9407
C12 C 0.6581(16) 0.5912(8) 1.0182(6)
H10 H 0.6211 0.5400 1.0275
H11 H 0.7544 0.6076 1.0602
C13 C 0.5043(15) 0.6461(7) 1.0034(6)
H12 H 0.5382 0.6948 0.9865
H13 H 0.4036 0.6258 0.9654
C14 C 0.2968(10) 0.6921(5) 1.0661(4)
C15 C 0.2347(10) 0.6837(5) 1.1274(4)
H14 H 0.3027 0.6565 1.1680
C16 C 0.0742(10) 0.7148(4) 1.1293(4)
C17 C -0.0265(10) 0.7556(4) 1.0684(4)
H15 H -0.1344 0.7774 1.0694
C18 C 0.0334(10) 0.7639(4) 1.0062(4)
C19 C 0.1980(10) 0.7328(5) 1.0053(4)
H16 H 0.2405 0.7394 0.9645
C20 C -0.0004(11) 0.7010(5) 1.1931(4)
C21 C -0.0890(10) 0.8004(4) 0.9386(4)
Zn1_2 Zn -0.20916(12) 0.79801(5) 0.78017(4)
Zn1A Zn 1.20916(12) 0.29801(5) 0.71983(4)
Zn1C Zn -0.20916(12) 0.70199(5) 1.28017(4)
Zn2_2 Zn -0.45925(12) 0.87996(5) 0.88647(5)
Zn2A Zn 1.45925(12) 0.37996(5) 0.61353(5)
O3A O 1.6378(9) 0.9694(3) 0.8461(3)
O4A O 1.6957(9) 0.9012(3) 0.7570(3)
O8C O 1.8719(7) 0.7559(3) 0.6991(3)
O9_2 O 1.7763(8) 0.8332(4) 0.9457(3)
O10_2 O 1.9544(8) 0.7940(3) 0.8793(3)
O13 O 0.7284(19) 0.6076(8) 0.6316(6)
O14 O 1.194(3) 0.5492(16) 0.512(2)
loop_
_geom_bond_atom_site_label_1
_geom_bond_atom_site_label_2
_geom_bond_site_symmetry_1
_geom_bond_site_symmetry_2
Zn1 O2 1_555 1_555
Zn2 O1 1_555 1_555
O1 C8 1_555 1_555
O2 C8 1_555 1_555
O3 C1 1_555 1_555
O4 C1 1_555 1_555
O5 C6 1_555 1_555
O6 C13 1_555 1_555
O7 C20 1_555 1_555
O8 C20 1_555 1_555
O9 C21 1_555 1_555
O10 C21 1_555 1_555
O11 Zn2 1_555 1_555
O12 Zn2 1_555 1_555
C1 C2 1_555 1_555
C2 C3 1_555 1_555
C3 H1 1_555 1_555
C4 C3 1_555 1_555
C5 C4 1_555 1_555
H2 C5 1_555 1_555
C6 C5 1_555 1_555
C7 C2 1_555 1_555
H3 C7 1_555 1_555
C8 C4 1_555 1_555
C9 O5 1_555 1_555
H4 C9 1_555 1_555
H5 C9 1_555 1_555
C10 C9 1_555 1_555
H6 C10 1_555 1_555
H7 C10 1_555 1_555
C11 C10 1_555 1_555
H8 C11 1_555 1_555
H9 C11 1_555 1_555
C12 C11 1_555 1_555
H10 C12 1_555 1_555
H11 C12 1_555 1_555
C13 C12 1_555 1_555
H12 C13 1_555 1_555
H13 C13 1_555 1_555
C14 O6 1_555 1_555
C15 C14 1_555 1_555
H14 C15 1_555 1_555
C16 C15 1_555 1_555
C17 C16 1_555 1_555
H15 C17 1_555 1_555
C18 C17 1_555 1_555
C19 C14 1_555 1_555
H16 C19 1_555 1_555
C20 C16 1_555 1_555
C21 C18 1_555 1_555
Zn1_2 O10 1_555 1_555
Zn1A O4 1_555 1_555
Zn1C O8 1_555 1_555
Zn2_2 O9 1_555 1_555
Zn2A O3 1_555 1_555
O3A Zn2 1_555 1_555
O4A Zn1 1_555 1_555
O8C Zn1 1_555 1_555
O9_2 Zn2 1_555 1_555
O10_2 Zn1 1_555 1_555
C6 C7 1_555 1_555
C18 C19 1_555 1_555

#END
