
#######################################################################
#
#                 Cambridge Crystallographic Data Centre
#                                CCDC 
#
#######################################################################
#
# If this CIF has been generated from an entry in the Cambridge 
# Structural Database, then it will include bibliographic, chemical, 
# crystal, experimental, refinement or atomic coordinate data resulting 
# from the CCDC's data processing and validation procedures.
#
#######################################################################

data_RONSIY
_symmetry_cell_setting           monoclinic
_symmetry_space_group_name_H-M   'P 21/c'
_symmetry_Int_Tables_number      14
_space_group_name_Hall           '-P 2ybc'
loop_
_symmetry_equiv_pos_site_id
_symmetry_equiv_pos_as_xyz
1 x,y,z
2 -x,1/2+y,1/2-z
3 -x,-y,-z
4 x,1/2-y,1/2+z
_cell_length_a                   13.7894(11)
_cell_length_b                   17.4839(14)
_cell_length_c                   10.8445(9)
_cell_angle_alpha                90
_cell_angle_beta                 100.4290(10)
_cell_angle_gamma                90
_cell_volume                     2571.34
loop_
_atom_site_label
_atom_site_type_symbol
_atom_site_fract_x
_atom_site_fract_y
_atom_site_fract_z
Cu1 Cu 0.74734(2) 0.24796(2) 0.96023(3)
O1 O 0.63478(11) 0.31388(9) 0.91460(18)
O2 O 0.59855(16) 0.32524(15) 1.1041(2)
O3 O -0.14230(11) 0.31817(8) 0.52030(16)
O4 O -0.07305(15) 0.32721(14) 0.35168(19)
N1 N 0.65559(13) 0.15820(10) 0.97415(18)
N2 N 0.83988(13) 0.34027(10) 0.98126(17)
C1 C 0.58090(18) 0.33643(15) 0.9909(3)
C2 C 0.49074(17) 0.37905(14) 0.9327(2)
C3 C 0.4330(2) 0.4152(2) 1.0050(3)
H1 H 0.4486 0.4110 1.0918
C4 C 0.3520(2) 0.4579(2) 0.9511(3)
H2 H 0.3139 0.4817 1.0025
C5 C 0.32663(17) 0.46569(14) 0.8240(3)
C6 C 0.3839(2) 0.42818(17) 0.7519(3)
H3 H 0.3674 0.4317 0.6651
C7 C 0.46464(19) 0.38557(16) 0.8042(3)
H4 H 0.5019 0.3610 0.7527
C8 C 0.24064(16) 0.51436(15) 0.7635(3)
H5 H 0.2639 0.5526 0.7109
H6 H 0.2138 0.5409 0.8283
C9 C 0.15981(17) 0.46793(14) 0.6849(3)
C10 C 0.09384(19) 0.42722(16) 0.7401(3)
H7 H 0.1000 0.4279 0.8269
C11 C 0.01854(18) 0.38528(15) 0.6694(3)
H8 H -0.0256 0.3589 0.7092
C12 C 0.00829(16) 0.38224(14) 0.5410(2)
C13 C 0.07508(19) 0.42223(16) 0.4850(3)
H9 H 0.0702 0.4205 0.3984
C14 C 0.14912(19) 0.46480(17) 0.5563(3)
H10 H 0.1927 0.4919 0.5166
C15 C -0.07450(17) 0.33955(14) 0.4625(3)
C16 C 0.57389(18) 0.14636(14) 0.8906(3)
H11 H 0.5579 0.1806 0.8244
C17 C 0.51159(18) 0.08527(15) 0.8979(3)
H12 H 0.4554 0.0790 0.8368
C18 C 0.53212(16) 0.03352(12) 0.9950(2)
C19 C 0.61753(18) 0.04688(14) 1.0816(2)
H13 H 0.6354 0.0138 1.1490
C20 C 0.67580(17) 0.10883(13) 1.0677(2)
H14 H 0.7325 0.1165 1.1274
C21 C 0.81831(16) 0.40031(13) 0.9061(2)
H15 H 0.7597 0.3997 0.8481
C22 C 0.87849(17) 0.46329(13) 0.9099(2)
H16 H 0.8605 0.5037 0.8548
C23 C 0.96631(15) 0.46651(12) 0.9960(2)
C24 C 0.98724(17) 0.40413(13) 1.0747(2)
H17 H 1.0448 0.4034 1.1346
C25 C 0.92346(17) 0.34323(13) 1.0647(2)
H18 H 0.9394 0.3021 1.1189
O5 O 0.75566(11) 0.24212(9) 0.74861(18)
H19 H 0.7120 0.2149 0.7055
H20 H 0.8048 0.2145 0.7756
N1B N 0.34441(13) -0.15820(10) 1.02585(18)
C16B C 0.42611(18) -0.14636(14) 1.1094(3)
H11B H 0.4421 -0.1806 1.1756
C17B C 0.48841(18) -0.08527(15) 1.1021(3)
H12B H 0.5446 -0.0790 1.1632
C18B C 0.46788(16) -0.03352(12) 1.0050(2)
C19B C 0.38247(18) -0.04688(14) 0.9184(2)
H13B H 0.3646 -0.0138 0.8510
C20B C 0.32420(17) -0.10883(13) 0.9323(2)
H14B H 0.2675 -0.1165 0.8726
N2B N 1.16012(13) 0.65973(10) 1.01874(17)
C21B C 1.18169(16) 0.59969(13) 1.0939(2)
H15B H 1.2403 0.6003 1.1519
C22B C 1.12151(17) 0.53671(13) 1.0901(2)
H16B H 1.1395 0.4963 1.1452
C23B C 1.03369(15) 0.53349(12) 1.0040(2)
C24B C 1.01276(17) 0.59587(13) 0.9253(2)
H17B H 0.9552 0.5966 0.8654
C25B C 1.07654(17) 0.65677(13) 0.9353(2)
H18B H 1.0606 0.6979 0.8811
Cu1B Cu 0.25266(2) -0.24796(2) 1.03977(3)
O1B O 0.36522(11) -0.31388(9) 1.08540(18)
O2B O 0.40145(16) -0.32524(15) 0.8959(2)
O3B O 1.14230(11) -0.31817(8) 1.47970(16)
O4B O 1.07305(15) -0.32721(14) 1.64832(19)
C1B C 0.41910(18) -0.33643(15) 1.0091(3)
C2B C 0.50926(17) -0.37905(14) 1.0673(2)
C3B C 0.5670(2) -0.4152(2) 0.9950(3)
H1B H 0.5514 -0.4110 0.9082
C4B C 0.6480(2) -0.4579(2) 1.0489(3)
H2B H 0.6861 -0.4817 0.9975
C5B C 0.67337(17) -0.46569(14) 1.1760(3)
C6B C 0.6161(2) -0.42818(17) 1.2481(3)
H3B H 0.6326 -0.4317 1.3349
C7B C 0.53536(19) -0.38557(16) 1.1958(3)
H4B H 0.4981 -0.3610 1.2473
C8B C 0.75936(16) -0.51436(15) 1.2365(3)
H5B H 0.7361 -0.5526 1.2891
H6B H 0.7862 -0.5409 1.1717
C9B C 0.84019(17) -0.46793(14) 1.3151(3)
C10B C 0.90616(19) -0.42722(16) 1.2599(3)
H7B H 0.9000 -0.4279 1.1731
C11B C 0.98146(18) -0.38528(15) 1.3306(3)
H8B H 1.0256 -0.3589 1.2908
C12B C 0.99171(16) -0.38224(14) 1.4590(2)
C13B C 0.92492(19) -0.42223(16) 1.5150(3)
H9B H 0.9298 -0.4205 1.6016
C14B C 0.85088(19) -0.46480(17) 1.4437(3)
H10B H 0.8073 -0.4919 1.4834
C15B C 1.07450(17) -0.33955(14) 1.5375(3)
O5B O 0.24434(11) -0.24212(9) 1.25139(18)
H19B H 0.2880 -0.2149 1.2945
H20B H 0.1952 -0.2145 1.2244
Cu1A Cu 1.25266(2) -0.25204(2) 1.53977(3)
Cu1B_2 Cu 1.25266(2) 0.75204(2) 1.03977(3)
Cu1C Cu -0.25266(2) 0.25204(2) 0.46023(3)
O3A O 0.14230(11) -0.18183(8) 0.97970(16)
O3C O 0.85770(11) 0.18183(8) 1.02030(16)
N2B_2 N 0.16012(13) -0.34027(10) 1.01874(17)
loop_
_geom_bond_atom_site_label_1
_geom_bond_atom_site_label_2
_geom_bond_site_symmetry_1
_geom_bond_site_symmetry_2
Cu1 O1 1_555 1_555
O1 C1 1_555 1_555
O2 C1 1_555 1_555
O3 C15 1_555 1_555
O4 C15 1_555 1_555
N1 Cu1 1_555 1_555
N2 Cu1 1_555 1_555
C1 C2 1_555 1_555
C2 C3 1_555 1_555
C3 H1 1_555 1_555
C4 C3 1_555 1_555
H2 C4 1_555 1_555
C5 C4 1_555 1_555
C6 C5 1_555 1_555
H3 C6 1_555 1_555
C7 C2 1_555 1_555
H4 C7 1_555 1_555
C8 C5 1_555 1_555
H5 C8 1_555 1_555
H6 C8 1_555 1_555
C9 C8 1_555 1_555
C10 C9 1_555 1_555
H7 C10 1_555 1_555
C11 C10 1_555 1_555
H8 C11 1_555 1_555
C12 C11 1_555 1_555
C13 C12 1_555 1_555
H9 C13 1_555 1_555
C14 C9 1_555 1_555
H10 C14 1_555 1_555
C15 C12 1_555 1_555
C16 N1 1_555 1_555
H11 C16 1_555 1_555
C17 C16 1_555 1_555
H12 C17 1_555 1_555
C18 C17 1_555 1_555
C19 C18 1_555 1_555
H13 C19 1_555 1_555
C20 N1 1_555 1_555
H14 C20 1_555 1_555
C21 N2 1_555 1_555
H15 C21 1_555 1_555
C22 C21 1_555 1_555
H16 C22 1_555 1_555
C23 C22 1_555 1_555
C24 C23 1_555 1_555
H17 C24 1_555 1_555
C25 N2 1_555 1_555
H18 C25 1_555 1_555
O5 Cu1 1_555 1_555
H19 O5 1_555 1_555
H20 O5 1_555 1_555
N1B C16B 1_555 1_555
C16B H11B 1_555 1_555
C17B C16B 1_555 1_555
H12B C17B 1_555 1_555
C18B C18 1_555 1_555
C19B C18B 1_555 1_555
H13B C19B 1_555 1_555
C20B N1B 1_555 1_555
H14B C20B 1_555 1_555
N2B C21B 1_555 1_555
C21B H15B 1_555 1_555
C22B C21B 1_555 1_555
H16B C22B 1_555 1_555
C23B C23 1_555 1_555
C24B C23B 1_555 1_555
H17B C24B 1_555 1_555
C25B N2B 1_555 1_555
H18B C25B 1_555 1_555
Cu1B N1B 1_555 1_555
O1B Cu1B 1_555 1_555
O2B C1B 1_555 1_555
O3B C15B 1_555 1_555
O4B C15B 1_555 1_555
C1B O1B 1_555 1_555
C2B C1B 1_555 1_555
C3B C2B 1_555 1_555
H1B C3B 1_555 1_555
C4B C3B 1_555 1_555
H2B C4B 1_555 1_555
C5B C4B 1_555 1_555
C6B C5B 1_555 1_555
H3B C6B 1_555 1_555
C7B C2B 1_555 1_555
H4B C7B 1_555 1_555
C8B C5B 1_555 1_555
H5B C8B 1_555 1_555
H6B C8B 1_555 1_555
C9B C8B 1_555 1_555
C10B C9B 1_555 1_555
H7B C10B 1_555 1_555
C11B C10B 1_555 1_555
H8B C11B 1_555 1_555
C12B C11B 1_555 1_555
C13B C12B 1_555 1_555
H9B C13B 1_555 1_555
C14B C9B 1_555 1_555
H10B C14B 1_555 1_555
C15B C12B 1_555 1_555
O5B Cu1B 1_555 1_555
H19B O5B 1_555 1_555
H20B O5B 1_555 1_555
Cu1A O3B 1_555 1_555
Cu1B_2 N2B 1_555 1_555
Cu1C O3 1_555 1_555
O3A Cu1B 1_555 1_555
O3C Cu1 1_555 1_555
N2B_2 Cu1B 1_555 1_555
C6 C7 1_555 1_555
C13 C14 1_555 1_555
C19 C20 1_555 1_555
C24 C25 1_555 1_555
C17B C18B 1_555 1_555
C19B C20B 1_555 1_555
C22B C23B 1_555 1_555
C24B C25B 1_555 1_555
C6B C7B 1_555 1_555
C13B C14B 1_555 1_555

#END
