
#######################################################################
#
#                 Cambridge Crystallographic Data Centre
#                                CCDC 
#
#######################################################################
#
# If this CIF has been generated from an entry in the Cambridge 
# Structural Database, then it will include bibliographic, chemical, 
# crystal, experimental, refinement or atomic coordinate data resulting 
# from the CCDC's data processing and validation procedures.
#
#######################################################################

data_ROPVIB
_symmetry_cell_setting           monoclinic
_symmetry_space_group_name_H-M   'P 21/c'
_symmetry_Int_Tables_number      14
_space_group_name_Hall           '-P 2ybc'
loop_
_symmetry_equiv_pos_site_id
_symmetry_equiv_pos_as_xyz
1 x,y,z
2 x,1/2-y,1/2+z
3 -x,-y,-z
4 -x,1/2+y,1/2-z
_cell_length_a                   12.535(8)
_cell_length_b                   29.517(8)
_cell_length_c                   14.704(6)
_cell_angle_alpha                90
_cell_angle_beta                 93.95(4)
_cell_angle_gamma                90
_cell_volume                     5427.49
loop_
_atom_site_label
_atom_site_type_symbol
_atom_site_fract_x
_atom_site_fract_y
_atom_site_fract_z
B1 B 0.6551(29) 0.7241(11) 0.8649(19)
F1 F 0.6850(15) 0.7132(6) 0.9523(13)
F2 F 0.7069(19) 0.7593(8) 0.8278(16)
F3 F 0.6686(22) 0.6885(10) 0.8083(20)
F4 F 0.5520(26) 0.7375(11) 0.8611(21)
B2 B 0.1637(23) 0.6149(9) 0.0336(18)
F5 F 0.0744(18) 0.5988(8) 0.0685(15)
F6 F 0.1919(14) 0.6525(6) 0.0827(12)
F7 F 0.1452(15) 0.6241(7) -0.0555(14)
F8 F 0.2470(20) 0.5864(9) 0.0467(17)
B3 B 0.2622(23) 0.6996(10) 0.4291(17)
F9 F 0.2434(15) 0.6950(6) 0.3378(13)
F10 F 0.1817(19) 0.6820(8) 0.4741(16)
F11 F 0.3594(21) 0.6850(9) 0.4593(17)
F12 F 0.2651(20) 0.7439(9) 0.4528(17)
B5 B 0.9751(25) 0.5795(11) 0.6491(19)
F17 F 1.0253(16) 0.5830(7) 0.7331(14)
F18 F 1.0142(19) 0.6130(9) 0.5973(16)
F19 F 0.9883(20) 0.5381(9) 0.6133(17)
F20 F 0.8700(23) 0.5859(10) 0.6565(19)
Ag1 Ag 0.4520(2) 0.77237(7) 0.6233(2)
Ag2 Ag -0.0420(2) 0.75394(8) 0.6828(2)
Ag3 Ag 0.7354(2) 0.90557(9) 0.4323(2)
Ag4 Ag 0.7090(2) 0.60371(7) 0.4504(2)
Ag5 Ag 0.2614(2) 0.91356(7) 0.26634(15)
Ag6 Ag 0.2100(2) 0.92768(7) 0.82445(14)
N1 N 0.4557(16) 0.8286(7) 0.5123(14)
C1 C 0.5453(17) 0.8528(8) 0.5126(15)
H1 H 0.5935(17) 0.8507(8) 0.5633(15)
N2 N 0.5696(16) 0.8794(7) 0.4461(14)
C2 C 0.4967(27) 0.8857(12) 0.3782(23)
H2 H 0.5132(27) 0.9049(12) 0.3310(23)
N3 N 0.4017(23) 0.8664(10) 0.3736(20)
C3 C 0.3901(26) 0.8363(11) 0.4376(22)
H3 H 0.3295(26) 0.8181(11) 0.4305(22)
N4 N 0.3106(14) 0.7298(7) 0.6631(12)
C4 C 0.2115(19) 0.7460(9) 0.6585(16)
H4 H 0.2005(19) 0.7755(9) 0.6374(16)
N5 N 0.1287(14) 0.7232(7) 0.6816(12)
C5 C 0.1462(19) 0.6805(8) 0.7086(15)
H5 H 0.0872(19) 0.6638(8) 0.7241(15)
N6 N 0.2403(16) 0.8401(7) 0.2152(13)
C6 C 0.3209(21) 0.6878(9) 0.6918(17)
H6 H 0.3897(21) 0.6759(9) 0.6966(17)
N7 N 0.6065(14) 0.7294(6) 0.6036(12)
C7 C 0.6101(21) 0.6929(9) 0.5565(17)
H7 H 0.5456(21) 0.6821(9) 0.5299(17)
N8 N 0.6991(15) 0.6686(7) 0.5420(13)
C8 C 0.7901(20) 0.6884(9) 0.5767(16)
H8 H 0.8543(20) 0.6746(9) 0.5647(16)
N9 N -0.2039(14) 0.7255(7) 0.6258(12)
C9 C 0.7023(19) 0.7462(9) 0.6353(16)
H9 H 0.7033(19) 0.7738(9) 0.6657(16)
N10 N -0.0361(16) 0.8169(7) 0.7782(14)
C10 C -0.1044(21) 0.8255(10) 0.8440(18)
H10 H -0.1588(21) 0.8045(10) 0.8505(18)
N11 N -0.1010(19) 0.8599(9) 0.8985(16)
C11 C -0.0204(22) 0.8870(11) 0.8879(20)
H11 H -0.0148(22) 0.9120(11) 0.9266(20)
N12 N 0.0554(15) 0.8832(7) 0.8281(13)
C12 C 0.0407(20) 0.8492(9) 0.7734(18)
H12 H 0.0867(20) 0.8466(9) 0.7266(18)
N13 N 0.8781(16) 0.8517(7) 0.4420(15)
C13 C 0.9080(20) 0.8296(9) 0.5167(18)
H13 H 0.8852(20) 0.8409(9) 0.5712(18)
N14 N -0.0328(18) 0.7930(8) 0.5212(15)
C14 C -0.0010(25) 0.7777(11) 0.4375(23)
H14 H 0.0450(25) 0.7530(11) 0.4378(23)
N15 N -0.0307(20) 0.7952(9) 0.3609(17)
C15 C 0.9111(25) 0.8342(11) 0.3629(23)
H15 H 0.8934(25) 0.8493(11) 0.3084(23)
N16 N 0.7475(16) 0.5277(7) 0.4456(15)
C16 C 0.7587(19) 0.5057(9) 0.5251(19)
H16 H 0.7609(19) 0.5224(9) 0.5787(19)
N17 N 0.2328(15) 0.9603(7) 0.9694(13)
C17 C 0.2331(20) 0.9387(10) 1.0491(19)
H17 H 0.2224(20) 0.9076(10) 1.0474(19)
N18 N 0.2469(15) 0.9576(7) 0.1295(13)
C18 C 0.7426(21) 0.5023(10) 0.3701(20)
H18 H 0.7312(21) 0.5168(10) 0.3142(20)
N19 N 0.1374(16) 0.9785(7) 0.7200(14)
C19 C 0.1954(22) 1.0093(9) 0.6798(17)
H19 H 0.2679(22) 1.0100(9) 0.6977(17)
N20 N 0.8386(17) 0.9614(7) 0.3824(14)
C20 C 0.9370(22) 0.9652(10) 0.4085(18)
H20 H 0.9626(22) 0.9458(10) 0.4549(18)
N21 N 1.0073(17) 0.9939(8) 0.3764(15)
C21 C 0.0366(20) 0.9790(9) 0.6872(17)
H21 H -0.0085(20) 0.9578(9) 0.7116(17)
N22 N 0.3755(15) 0.8981(7) 0.8003(13)
C22 C 0.3854(18) 0.8645(8) 0.7387(16)
H22 H 0.3297(18) 0.8606(8) 0.6942(16)
N23 N 0.4670(15) 0.8372(7) 0.7372(13)
C23 C 0.5443(19) 0.8455(8) 0.7990(16)
H23 H 0.6033(19) 0.8263(8) 0.8006(16)
N24 N 0.5464(15) 0.6218(7) 0.3586(13)
C24 C 0.4582(18) 0.9037(8) 0.8573(16)
H24 H 0.4560(18) 0.9269(8) 0.8999(16)
O1 O 0.2348(34) 0.9742(14) 0.3690(26)
B4 B 0.7500(22) 0.9001(8) 0.6824(19)
F13 F 0.7418(13) 0.8548(6) 0.6784(11)
F14 F 0.6538(19) 0.9202(8) 0.6871(16)
F15 F 0.8114(18) 0.9140(8) 0.7562(16)
F16 F 0.7962(20) 0.9151(9) 0.6087(17)
B6 B 0.5329(28) 0.5614(13) 0.6358(26)
F21 F 0.4695(19) 0.5954(8) 0.6628(16)
F25 F 0.5686(46) 0.5755(19) 0.5566(32)
F26 F 0.5030(56) 0.5192(17) 0.6120(55)
F27 F 0.6184(33) 0.5532(17) 0.6945(31)
N6A N 0.2403(16) 0.6599(7) 0.7152(13)
C5A C 0.1462(19) 0.8195(8) 0.2086(15)
C6A C 0.3209(21) 0.8122(9) 0.1918(17)
N9_2 N 0.7961(14) 0.7255(7) 0.6258(12)
C8_2 C -0.2099(20) 0.6884(9) 0.5767(16)
C9_2 C -0.2977(19) 0.7462(9) 0.6353(16)
N14_2 N 0.9672(18) 0.7930(8) 0.5212(15)
C13_2 C -0.0920(20) 0.8296(9) 0.5167(18)
C15_2 C -0.0889(25) 0.8342(11) 0.3629(23)
N15_2 N 0.9693(20) 0.7952(9) 0.3609(17)
N17C N 0.7672(15) 0.4603(7) 0.5306(13)
C16C C 0.2413(19) 1.0057(9) 0.9749(19)
N18_2 N 0.2469(15) 0.9576(7) 1.1295(13)
C17_2 C 0.2331(20) 0.9387(10) 0.0491(19)
C18C C 0.2574(21) 1.0023(10) 0.1299(20)
N18C N 0.7531(15) 0.4576(7) 0.3705(13)
N20B N 0.1614(17) 1.0386(7) 0.6176(14)
C19B C 0.8046(22) 0.9907(9) 0.3202(17)
C21B C 0.9634(20) 1.0210(9) 0.3128(17)
N21B N -0.0073(17) 1.0061(8) 0.6236(15)
N24A N 0.5464(15) 0.8782(7) 0.8586(13)
C23A C 0.5443(19) 0.6545(8) 0.2990(16)
C24A C 0.4582(18) 0.5963(8) 0.3573(16)
O2? O 0.6707(53) 0.4765(21) 0.1260(41)
F22? F 0.5035(50) 0.5331(20) 0.7024(39)
F23? F 0.4824(37) 0.5470(19) 0.5566(29)
F24? F 0.6345(34) 0.5769(20) 0.6418(44)
loop_
_geom_bond_atom_site_label_1
_geom_bond_atom_site_label_2
_geom_bond_site_symmetry_1
_geom_bond_site_symmetry_2
Ag1 N1 1_555 1_555
Ag2 N5 1_555 1_555
Ag3 N2 1_555 1_555
Ag4 N8 1_555 1_555
Ag5 N3 1_555 1_555
Ag6 N12 1_555 1_555
N1 C1 1_555 1_555
C1 H1 1_555 1_555
N2 C1 1_555 1_555
C2 N2 1_555 1_555
H2 C2 1_555 1_555
N3 C2 1_555 1_555
C3 N1 1_555 1_555
H3 C3 1_555 1_555
N4 Ag1 1_555 1_555
C4 N4 1_555 1_555
H4 C4 1_555 1_555
N5 C4 1_555 1_555
C5 N5 1_555 1_555
H5 C5 1_555 1_555
N6 Ag5 1_555 1_555
C6 N4 1_555 1_555
H6 C6 1_555 1_555
N7 Ag1 1_555 1_555
C7 N7 1_555 1_555
H7 C7 1_555 1_555
N8 C7 1_555 1_555
C8 N8 1_555 1_555
H8 C8 1_555 1_555
N9 Ag2 1_555 1_555
C9 N7 1_555 1_555
H9 C9 1_555 1_555
N10 Ag2 1_555 1_555
C10 N10 1_555 1_555
H10 C10 1_555 1_555
N11 C10 1_555 1_555
C11 N11 1_555 1_555
H11 C11 1_555 1_555
N12 C11 1_555 1_555
C12 N10 1_555 1_555
H12 C12 1_555 1_555
N13 Ag3 1_555 1_555
C13 N13 1_555 1_555
H13 C13 1_555 1_555
N14 Ag2 1_555 1_555
C14 N14 1_555 1_555
H14 C14 1_555 1_555
N15 C14 1_555 1_555
C15 N13 1_555 1_555
H15 C15 1_555 1_555
N16 Ag4 1_555 1_555
C16 N16 1_555 1_555
H16 C16 1_555 1_555
N17 Ag6 1_555 1_555
C17 N17 1_555 1_555
H17 C17 1_555 1_555
N18 Ag5 1_555 1_555
C18 N16 1_555 1_555
H18 C18 1_555 1_555
N19 Ag6 1_555 1_555
C19 N19 1_555 1_555
H19 C19 1_555 1_555
N20 Ag3 1_555 1_555
C20 N20 1_555 1_555
H20 C20 1_555 1_555
N21 C20 1_555 1_555
C21 N19 1_555 1_555
H21 C21 1_555 1_555
N22 Ag6 1_555 1_555
C22 N22 1_555 1_555
H22 C22 1_555 1_555
N23 Ag1 1_555 1_555
C23 N23 1_555 1_555
H23 C23 1_555 1_555
N24 Ag4 1_555 1_555
C24 N22 1_555 1_555
H24 C24 1_555 1_555
O1 Ag5 1_555 1_555
B1 F1 1_555 1_555
F2 B1 1_555 1_555
F3 B1 1_555 1_555
F4 B1 1_555 1_555
B2 F5 1_555 1_555
F6 B2 1_555 1_555
F7 B2 1_555 1_555
F8 B2 1_555 1_555
B3 F9 1_555 1_555
F10 B3 1_555 1_555
F11 B3 1_555 1_555
F12 B3 1_555 1_555
B4 F13 1_555 1_555
F14 B4 1_555 1_555
F15 B4 1_555 1_555
F16 Ag3 1_555 1_555
B5 F17 1_555 1_555
F18 B5 1_555 1_555
F19 B5 1_555 1_555
F20 B5 1_555 1_555
B6 F21 1_555 1_555
F25 Ag4 1_555 1_555
F26 B6 1_555 1_555
F27 B6 1_555 1_555
N6A C5 1_555 1_555
C5A N6 1_555 1_555
C6A N6 1_555 1_555
N9_2 C8 1_555 1_555
C8_2 N9 1_555 1_555
C9_2 N9 1_555 1_555
N14_2 C13 1_555 1_555
C13_2 N14 1_555 1_555
C15_2 N15 1_555 1_555
N15_2 C15 1_555 1_555
N17C C16 1_555 1_555
C16C N17 1_555 1_555
N18_2 C17 1_555 1_555
C17_2 N18 1_555 1_555
C18C N18 1_555 1_555
N18C C18 1_555 1_555
N20B C19 1_555 1_555
C19B N20 1_555 1_555
C21B N21 1_555 1_555
N21B C21 1_555 1_555
N24A C23 1_555 1_555
C23A N24 1_555 1_555
C24A N24 1_555 1_555
N3 C3 1_555 1_555
C6 N6A 1_555 1_555
C9 N9_2 1_555 1_555
N12 C12 1_555 1_555
C22 N23 1_555 1_555
C24 N24A 1_555 1_555
B4 F16 1_555 1_555
B6 F25 1_555 1_555

#END
