
#######################################################################
#
#                 Cambridge Crystallographic Data Centre
#                                CCDC 
#
#######################################################################
#
# If this CIF has been generated from an entry in the Cambridge 
# Structural Database, then it will include bibliographic, chemical, 
# crystal, experimental, refinement or atomic coordinate data resulting 
# from the CCDC's data processing and validation procedures.
#
#######################################################################

data_RORTAV
_symmetry_cell_setting           cubic
_symmetry_space_group_name_H-M   'I m -3'
_symmetry_Int_Tables_number      204
_space_group_name_Hall           '-I 2 2 3'
loop_
_symmetry_equiv_pos_site_id
_symmetry_equiv_pos_as_xyz
1 x,y,z
2 -x,-y,z
3 -x,y,-z
4 x,-y,-z
5 z,x,y
6 z,-x,-y
7 -z,-x,y
8 -z,x,-y
9 y,z,x
10 -y,z,-x
11 y,-z,-x
12 -y,-z,x
13 1/2+x,1/2+y,1/2+z
14 1/2-x,1/2-y,1/2+z
15 1/2-x,1/2+y,1/2-z
16 1/2+x,1/2-y,1/2-z
17 1/2+z,1/2+x,1/2+y
18 1/2+z,1/2-x,1/2-y
19 1/2-z,1/2-x,1/2+y
20 1/2-z,1/2+x,1/2-y
21 1/2+y,1/2+z,1/2+x
22 1/2-y,1/2+z,1/2-x
23 1/2+y,1/2-z,1/2-x
24 1/2-y,1/2-z,1/2+x
25 -x,-y,-z
26 x,y,-z
27 x,-y,z
28 -x,y,z
29 -z,-x,-y
30 -z,x,y
31 z,x,-y
32 z,-x,y
33 -y,-z,-x
34 y,-z,x
35 -y,z,x
36 y,z,-x
37 1/2-x,1/2-y,1/2-z
38 1/2+x,1/2+y,1/2-z
39 1/2+x,1/2-y,1/2+z
40 1/2-x,1/2+y,1/2+z
41 1/2-z,1/2-x,1/2-y
42 1/2-z,1/2+x,1/2+y
43 1/2+z,1/2+x,1/2-y
44 1/2+z,1/2-x,1/2+y
45 1/2-y,1/2-z,1/2-x
46 1/2+y,1/2-z,1/2+x
47 1/2-y,1/2+z,1/2+x
48 1/2+y,1/2+z,1/2-x
_cell_length_a                   23.1885(2)
_cell_length_b                   23.1885(2)
_cell_length_c                   23.1885(2)
_cell_angle_alpha                90
_cell_angle_beta                 90
_cell_angle_gamma                90
_cell_volume                     12468.6
loop_
_atom_site_label
_atom_site_type_symbol
_atom_site_fract_x
_atom_site_fract_y
_atom_site_fract_z
Cu1 Cu 0.2500 0.2500 0.2500
O9 O 0.3240(3) 0.2232(3) 0.2919(3)
N1 N 0.3240(4) 0.2210(4) 0.3492(4)
C1 C 0.3620(5) 0.2528(5) 0.3781(5)
H1 H 0.3876 0.2761 0.3578
C2 C 0.3641(5) 0.2520(5) 0.4359(5)
H2 H 0.3907 0.2751 0.4549
C3 C 0.3267(4) 0.2166(4) 0.4684(4)
C4 C 0.2898(5) 0.1828(4) 0.4369(4)
H3 H 0.2649 0.1582 0.4564
C5 C 0.2881(5) 0.1839(4) 0.3760(4)
H4 H 0.2633 0.1601 0.3554
O9Y O 0.3240(3) 0.2232(3) 0.7081(3)
N1Y N 0.3240(4) 0.2210(4) 0.6508(4)
C1Y C 0.3620(5) 0.2528(5) 0.6219(5)
H1Y H 0.3876 0.2761 0.6422
C2Y C 0.3641(5) 0.2520(5) 0.5641(5)
H2Y H 0.3907 0.2751 0.5451
C3Y C 0.3267(4) 0.2166(4) 0.5316(4)
C4Y C 0.2898(5) 0.1828(4) 0.5631(4)
H3Y H 0.2649 0.1582 0.5436
C5Y C 0.2881(5) 0.1839(4) 0.6240(4)
H4Y H 0.2633 0.1601 0.6446
O9D O 0.2919(3) 0.3240(3) 0.2232(3)
N1D N 0.3492(4) 0.3240(4) 0.2210(4)
C1D C 0.3781(5) 0.3620(5) 0.2528(5)
H1D H 0.3578 0.3876 0.2761
C2D C 0.4359(5) 0.3641(5) 0.2520(5)
H2D H 0.4549 0.3907 0.2751
C3D C 0.4684(4) 0.3267(4) 0.2166(4)
C4D C 0.4369(4) 0.2898(5) 0.1828(4)
H3D H 0.4564 0.2649 0.1582
C5D C 0.3760(4) 0.2881(5) 0.1839(4)
H4D H 0.3554 0.2633 0.1601
O9CA O 0.7081(3) 0.3240(3) 0.2232(3)
N1CA N 0.6508(4) 0.3240(4) 0.2210(4)
C1CA C 0.6219(5) 0.3620(5) 0.2528(5)
H1CA H 0.6422 0.3876 0.2761
C2CA C 0.5641(5) 0.3641(5) 0.2520(5)
H2CA H 0.5451 0.3907 0.2751
C3CA C 0.5316(4) 0.3267(4) 0.2166(4)
C4CA C 0.5631(4) 0.2898(5) 0.1828(4)
H3CA H 0.5436 0.2649 0.1582
C5CA C 0.6240(4) 0.2881(5) 0.1839(4)
H4CA H 0.6446 0.2633 0.1601
O9H O 0.2232(3) 0.2919(3) 0.3240(3)
N1H N 0.2210(4) 0.3492(4) 0.3240(4)
C1H C 0.2528(5) 0.3781(5) 0.3620(5)
H1H H 0.2761 0.3578 0.3876
C2H C 0.2520(5) 0.4359(5) 0.3641(5)
H2H H 0.2751 0.4549 0.3907
C3H C 0.2166(4) 0.4684(4) 0.3267(4)
C4H C 0.1828(4) 0.4369(4) 0.2898(5)
H3H H 0.1582 0.4564 0.2649
C5H C 0.1839(4) 0.3760(4) 0.2881(5)
H4H H 0.1601 0.3554 0.2633
O9GA O 0.2232(3) 0.7081(3) 0.3240(3)
N1GA N 0.2210(4) 0.6508(4) 0.3240(4)
C1GA C 0.2528(5) 0.6219(5) 0.3620(5)
H1GA H 0.2761 0.6422 0.3876
C2GA C 0.2520(5) 0.5641(5) 0.3641(5)
H2GA H 0.2751 0.5451 0.3907
C3GA C 0.2166(4) 0.5316(4) 0.3267(4)
C4GA C 0.1828(4) 0.5631(4) 0.2898(5)
H3GA H 0.1582 0.5436 0.2649
C5GA C 0.1839(4) 0.6240(4) 0.2881(5)
H4GA H 0.1601 0.6446 0.2633
Cu1M Cu 0.2500 0.2500 0.7500
Cu1N Cu 0.2500 0.7500 0.2500
Cu1O Cu 0.7500 0.2500 0.2500
O9JA O 0.1760(3) 0.2768(3) 0.2081(3)
O9NA O 0.2081(3) 0.1760(3) 0.2768(3)
O9RA O 0.2768(3) 0.2081(3) 0.1760(3)
N2 N 0.5000 0.2321(10) 0.3255(10)
C6 C 0.5000 0.1543(10) 0.2472(10)
H5 H 0.5338 0.1306 0.2503
H6 H 0.5000 0.1737 0.2107
C7 C 0.5000 0.1985(10) 0.2897(9)
H5AA H 0.4662 0.1306 0.2503
O10 O 0.3981(6) 0.3981(6) 0.3981(6)
O11 O 0.5000 0.3339(7) 0.3969(11)
O12 O 0.5000 0.5000 0.5000
W1 W 0.423668(18) 0.108446(19) 0.076726(18)
W2 W 0.34700(3) 0.0000 0.0000
W3 W 0.5000 0.0000 0.15383(4)
P1 P 0.5000 0.0000 0.0000
O1 O 0.5000 0.0412(7) 0.0536(7)
O2 O 0.5000 0.0000 0.2263(6)
O3 O 0.4436(4) 0.0563(5) 0.1368(5)
O4 O 0.5000 0.1368(7) 0.0819(7)
O5 O 0.4197(6) 0.1345(6) 0.0000
O6 O 0.3649(4) 0.0571(4) 0.0569(3)
O7 O 0.3884(4) 0.1602(4) 0.1111(4)
O8 O 0.2761(7) 0.0000 0.0000
O1A O 0.5000 -0.0412(7) 0.0536(7)
O1B O 0.5000 0.0412(7) -0.0536(7)
O1C O 0.5000 -0.0412(7) -0.0536(7)
W1A W 0.576332(18) -0.108446(19) 0.076726(18)
W2A W 0.65300(3) 0.0000 0.0000
O3A O 0.5564(4) -0.0563(5) 0.1368(5)
O4A O 0.5000 -0.1368(7) 0.0819(7)
O5A O 0.5803(6) -0.1345(6) 0.0000
O6A O 0.6351(4) -0.0571(4) 0.0569(3)
O7A O 0.6116(4) -0.1602(4) 0.1111(4)
O8A O 0.7239(7) 0.0000 0.0000
W1B W 0.576332(18) 0.108446(19) -0.076726(18)
W3B W 0.5000 0.0000 -0.15383(4)
O2B O 0.5000 0.0000 -0.2263(6)
O3B O 0.5564(4) 0.0563(5) -0.1368(5)
O4B O 0.5000 0.1368(7) -0.0819(7)
O5B O 0.5803(6) 0.1345(6) 0.0000
O6B O 0.6351(4) 0.0571(4) -0.0569(3)
O7B O 0.6116(4) 0.1602(4) -0.1111(4)
W1C W 0.423668(18) -0.108446(19) -0.076726(18)
O3C O 0.4436(4) -0.0563(5) -0.1368(5)
O4C O 0.5000 -0.1368(7) -0.0819(7)
O5C O 0.4197(6) -0.1345(6) 0.0000
O6C O 0.3649(4) -0.0571(4) -0.0569(3)
O7C O 0.3884(4) -0.1602(4) -0.1111(4)
W1X W 0.576332(18) -0.108446(19) -0.076726(18)
O3X O 0.5564(4) -0.0563(5) -0.1368(5)
O6X O 0.6351(4) -0.0571(4) -0.0569(3)
O7X O 0.6116(4) -0.1602(4) -0.1111(4)
W1Y W 0.423668(18) 0.108446(19) -0.076726(18)
O3Y O 0.4436(4) 0.0563(5) -0.1368(5)
O6Y O 0.3649(4) 0.0571(4) -0.0569(3)
O7Y O 0.3884(4) 0.1602(4) -0.1111(4)
W1Z W 0.423668(18) -0.108446(19) 0.076726(18)
O3Z O 0.4436(4) -0.0563(5) 0.1368(5)
O6Z O 0.3649(4) -0.0571(4) 0.0569(3)
O7Z O 0.3884(4) -0.1602(4) 0.1111(4)
W1AA W 0.576332(18) 0.108446(19) 0.076726(18)
O3AA O 0.5564(4) 0.0563(5) 0.1368(5)
O6AA O 0.6351(4) 0.0571(4) 0.0569(3)
O7AA O 0.6116(4) 0.1602(4) 0.1111(4)
O13? O 0.4501(8) 0.0333(7) 0.0000
O14? O 0.463(2) 0.351(2) 0.5000
loop_
_geom_bond_atom_site_label_1
_geom_bond_atom_site_label_2
_geom_bond_site_symmetry_1
_geom_bond_site_symmetry_2
W1 O1 1_555 1_555
W2 O6 1_555 1_555
W3 O1 1_555 1_555
P1 O1 1_555 1_555
O1 W1AA 1_555 1_555
O2 W3 1_555 1_555
O3 W1 1_555 1_555
O4 W1 1_555 1_555
O5 W1 1_555 1_555
O6 W1 1_555 1_555
O7 W1 1_555 1_555
O8 W2 1_555 1_555
Cu1 O9 1_555 1_555
O9 N1 1_555 1_555
N1 C1 1_555 1_555
C1 H1 1_555 1_555
C2 C1 1_555 1_555
H2 C2 1_555 1_555
C3 C2 1_555 1_555
C4 C3 1_555 1_555
H3 C4 1_555 1_555
C5 N1 1_555 1_555
H4 C5 1_555 1_555
N2 C7 1_555 1_555
C6 H5 1_555 1_555
H6 C6 1_555 1_555
C7 C6 1_555 1_555
O1A W3 1_555 1_555
O1B P1 1_555 1_555
O1C P1 1_555 1_555
W1A O1A 1_555 1_555
W2A O6A 1_555 1_555
O3A W3 1_555 1_555
O4A W1A 1_555 1_555
O5A W1A 1_555 1_555
O6A W1A 1_555 1_555
O7A W1A 1_555 1_555
O8A W2A 1_555 1_555
W1B O1B 1_555 1_555
W3B O1B 1_555 1_555
O2B W3B 1_555 1_555
O3B W1B 1_555 1_555
O4B W1B 1_555 1_555
O5B W1B 1_555 1_555
O6B W2A 1_555 1_555
O7B W1B 1_555 1_555
W1C O1C 1_555 1_555
O3C W3B 1_555 1_555
O4C W1C 1_555 1_555
O5C W1C 1_555 1_555
O6C W2 1_555 1_555
O7C W1C 1_555 1_555
W1X O1C 1_555 1_555
O3X W3B 1_555 1_555
O6X W2A 1_555 1_555
O7X W1X 1_555 1_555
W1Y O5 1_555 1_555
O3Y W3B 1_555 1_555
O6Y W2 1_555 1_555
O7Y W1Y 1_555 1_555
W1Z O1A 1_555 1_555
O3Z W3 1_555 1_555
O6Z W2 1_555 1_555
O7Z W1Z 1_555 1_555
W1AA O4 1_555 1_555
O3AA W3 1_555 1_555
O6AA W2A 1_555 1_555
O7AA W1AA 1_555 1_555
O9Y N1Y 1_555 1_555
N1Y C1Y 1_555 1_555
C1Y H1Y 1_555 1_555
C2Y C1Y 1_555 1_555
H2Y C2Y 1_555 1_555
C3Y C3 1_555 1_555
C4Y C3Y 1_555 1_555
H3Y C4Y 1_555 1_555
C5Y N1Y 1_555 1_555
H4Y C5Y 1_555 1_555
O9D Cu1 1_555 1_555
N1D O9D 1_555 1_555
C1D N1D 1_555 1_555
H1D C1D 1_555 1_555
C2D C1D 1_555 1_555
H2D C2D 1_555 1_555
C3D C2D 1_555 1_555
C4D C3D 1_555 1_555
H3D C4D 1_555 1_555
C5D N1D 1_555 1_555
H4D C5D 1_555 1_555
O9CA N1CA 1_555 1_555
N1CA C1CA 1_555 1_555
C1CA H1CA 1_555 1_555
C2CA C1CA 1_555 1_555
H2CA C2CA 1_555 1_555
C3CA C3D 1_555 1_555
C4CA C3CA 1_555 1_555
H3CA C4CA 1_555 1_555
C5CA N1CA 1_555 1_555
H4CA C5CA 1_555 1_555
O9H Cu1 1_555 1_555
N1H O9H 1_555 1_555
C1H N1H 1_555 1_555
H1H C1H 1_555 1_555
C2H C1H 1_555 1_555
H2H C2H 1_555 1_555
C3H C2H 1_555 1_555
C4H C3H 1_555 1_555
H3H C4H 1_555 1_555
C5H N1H 1_555 1_555
H4H C5H 1_555 1_555
O9GA N1GA 1_555 1_555
N1GA C1GA 1_555 1_555
C1GA H1GA 1_555 1_555
C2GA C1GA 1_555 1_555
H2GA C2GA 1_555 1_555
C3GA C3H 1_555 1_555
C4GA C3GA 1_555 1_555
H3GA C4GA 1_555 1_555
C5GA N1GA 1_555 1_555
H4GA C5GA 1_555 1_555
Cu1M O9Y 1_555 1_555
Cu1N O9GA 1_555 1_555
Cu1O O9CA 1_555 1_555
O9JA Cu1 1_555 1_555
O9NA Cu1 1_555 1_555
O9RA Cu1 1_555 1_555
H5AA C6 1_555 1_555
W3 O3 1_555 1_555
P1 O1A 1_555 1_555
C4 C5 1_555 1_555
O1B W1Y 1_555 1_555
O1C W3B 1_555 1_555
W1A O3A 1_555 1_555
O4A W1Z 1_555 1_555
O5A W1X 1_555 1_555
W1B O6B 1_555 1_555
W3B O3B 1_555 1_555
O4B W1Y 1_555 1_555
O5B W1AA 1_555 1_555
W1C O3C 1_555 1_555
W1C O6C 1_555 1_555
O4C W1X 1_555 1_555
O5C W1Z 1_555 1_555
W1X O3X 1_555 1_555
W1X O6X 1_555 1_555
W1Y O3Y 1_555 1_555
W1Y O6Y 1_555 1_555
W1Z O3Z 1_555 1_555
W1Z O6Z 1_555 1_555
W1AA O3AA 1_555 1_555
W1AA O6AA 1_555 1_555
C2Y C3Y 1_555 1_555
C4Y C5Y 1_555 1_555
C4D C5D 1_555 1_555
C2CA C3CA 1_555 1_555
C4CA C5CA 1_555 1_555
C4H C5H 1_555 1_555
C2GA C3GA 1_555 1_555
C4GA C5GA 1_555 1_555

#END
