
#######################################################################
#
#                 Cambridge Crystallographic Data Centre
#                                CCDC 
#
#######################################################################
#
# If this CIF has been generated from an entry in the Cambridge 
# Structural Database, then it will include bibliographic, chemical, 
# crystal, experimental, refinement or atomic coordinate data resulting 
# from the CCDC's data processing and validation procedures.
#
#######################################################################

data_ROYJUM
_symmetry_cell_setting           hexagonal
_symmetry_space_group_name_H-M   'P 63/m m c'
_symmetry_Int_Tables_number      194
_space_group_name_Hall           "-P 6c 2'c"
loop_
_symmetry_equiv_pos_site_id
_symmetry_equiv_pos_as_xyz
1 x,y,z
2 -y,x-y,z
3 -x+y,-x,z
4 -x,-y,1/2+z
5 y,-x+y,1/2+z
6 x-y,x,1/2+z
7 y,x,-z
8 x-y,-y,-z
9 -x,-x+y,-z
10 -y,-x,1/2-z
11 -x+y,y,1/2-z
12 x,x-y,1/2-z
13 -x,-y,-z
14 y,-x+y,-z
15 x-y,x,-z
16 x,y,1/2-z
17 -y,x-y,1/2-z
18 -x+y,-x,1/2-z
19 -y,-x,z
20 -x+y,y,z
21 x,x-y,z
22 y,x,1/2+z
23 x-y,-y,1/2+z
24 -x,-x+y,1/2+z
_cell_length_a                   16.7446(6)
_cell_length_b                   16.7446(6)
_cell_length_c                   15.1964(9)
_cell_angle_alpha                90
_cell_angle_beta                 90
_cell_angle_gamma                120
_cell_volume                     3689.95
loop_
_atom_site_label
_atom_site_type_symbol
_atom_site_fract_x
_atom_site_fract_y
_atom_site_fract_z
Ni1 Ni 0.47055(6) 0.73528(3) 0.2500
O1 O 0.3333 0.6667 0.2500
N1 N 0.6156(4) 0.8078(2) 0.2500
C1 C 0.4265(2) 0.8531(4) 0.3713(4)
O2 O 0.4780(2) 0.8243(2) 0.3460(2)
N2 N 0.9532(3) 1.0468(3) 0.2500
C2 C 0.7591(4) 0.9496(4) 0.2500
H1 H 0.7902 1.0137 0.2500
C3 C 0.9103(6) 0.9551(3) 0.2500
C4 C 0.8069(6) 0.9034(3) 0.2500
C5 C 0.6645(4) 0.9001(4) 0.2500
H2 H 0.6327 0.9324 0.2500
C6 C 0.4642(2) 0.9284(4) 0.4380(4)
C7 C 0.4119(4) 0.9638(3) 0.4698(3)
N3 N 0.3212(7) 0.9306(12) 0.4430(11)
H3 H 0.2964 0.8865 0.4053
H4 H 0.2899 0.9542 0.4641
N1A N 1.1922(2) 0.8078(4) 0.2500
N2A N 0.9532(3) 0.9064(4) 0.2500
C2A C 1.0504(4) 0.8095(6) 0.2500
H1A H 0.9863 0.7765 0.2500
C3A C 1.0449(3) 0.9552(7) 0.2500
C4A C 1.0966(3) 0.9035(7) 0.2500
C5A C 1.0999(4) 0.7644(6) 0.2500
H2A H 1.0676 0.7003 0.2500
N1B N 1.1922(4) 1.3844(4) 0.2500
N2B N 1.0936(4) 1.0468(3) 0.2500
C2B C 1.1905(6) 1.2409(4) 0.2500
H1B H 1.2235 1.2098 0.2500
C3B C 1.0448(7) 1.0897(6) 0.2500
C4B C 1.0965(7) 1.1931(6) 0.2500
C5B C 1.2356(6) 1.3355(4) 0.2500
H2B H 1.2997 1.3673 0.2500
C2I C 1.0504(4) 1.2409(4) 0.2500
H1I H 0.9863 1.2098 0.2500
C5I C 1.0999(4) 1.3355(4) 0.2500
H2I H 1.0676 1.3673 0.2500
C2J C 1.1905(6) 0.9496(4) 0.2500
H1J H 1.2235 1.0137 0.2500
C5J C 1.2356(6) 0.9001(4) 0.2500
H2J H 1.2997 0.9324 0.2500
C2K C 0.7591(4) 0.8095(6) 0.2500
H1K H 0.7902 0.7765 0.2500
C5K C 0.6645(4) 0.7644(6) 0.2500
H2K H 0.6327 0.7003 0.2500
C1G C 0.5734(4) 1.1469(4) 0.6287(4)
O2G O 0.6537(3) 1.1757(2) 0.6540(2)
C6G C 0.5358(4) 1.0716(4) 0.5620(4)
C7G C 0.4481(5) 1.0362(3) 0.5302(3)
N3G N 0.3906(14) 1.0694(12) 0.5570(11)
H3G H 0.4099 1.1135 0.5947
H4G H 0.3357 1.0458 0.5359
O2L O 0.5220(2) 1.1757(2) 0.6540(2)
C7L C 0.5881(4) 1.0362(3) 0.5302(3)
N3L N 0.6788(7) 1.0694(12) 0.5570(11)
H3L H 0.7036 1.1135 0.5947
H4L H 0.7101 1.0458 0.5359
O2S O 0.3463(3) 0.8243(2) 0.3460(2)
C7S C 0.5519(5) 0.9638(3) 0.4698(3)
N3S N 0.6094(14) 0.9306(12) 0.4430(11)
H3S H 0.5901 0.8865 0.4053
H4S H 0.6643 0.9542 0.4641
Ni1A Ni 0.26472(3) 0.73527(7) 0.2500
C1A C 0.1469(4) 0.5734(4) 0.3713(4)
O2A O 0.1757(2) 0.6537(3) 0.3460(2)
C6A C 0.0716(4) 0.5358(4) 0.4380(4)
C7A C 0.0362(3) 0.4481(5) 0.4698(3)
N3A N 0.0694(12) 0.3906(14) 0.4430(11)
H3A H 0.1135 0.4099 0.4053
H4A H 0.0458 0.3357 0.4641
C1F C -0.1469(4) 0.4265(2) 0.6287(4)
O2F O -0.1757(2) 0.4780(2) 0.6540(2)
C6F C -0.0716(4) 0.4642(2) 0.5620(4)
C7F C -0.0362(3) 0.4119(4) 0.5302(3)
N3F N -0.0694(12) 0.3212(7) 0.5570(11)
H3F H -0.1135 0.2964 0.5947
H4F H -0.0458 0.2899 0.5359
O2M O -0.1757(2) 0.3463(3) 0.6540(2)
C7M C -0.0362(3) 0.5519(5) 0.5302(3)
N3M N -0.0694(12) 0.6094(14) 0.5570(11)
H3M H -0.1135 0.5901 0.5947
H4M H -0.0458 0.6643 0.5359
O2R O 0.1757(2) 0.5220(2) 0.3460(2)
C7R C 0.0362(3) 0.5881(4) 0.4698(3)
N3R N 0.0694(12) 0.6788(7) 0.4430(11)
H3R H 0.1135 0.7036 0.4053
H4R H 0.0458 0.7101 0.4641
Ni1B Ni 0.26473(7) 0.52945(6) 0.2500
C1B C 0.4266(4) 0.5735(2) 0.3713(4)
O2B O 0.3463(3) 0.5220(2) 0.3460(2)
C6B C 0.4642(4) 0.5358(2) 0.4380(4)
C7B C 0.5519(5) 0.5881(4) 0.4698(3)
N3B N 0.6094(14) 0.6788(7) 0.4430(11)
H3B H 0.5901 0.7036 0.4053
H4B H 0.6643 0.7101 0.4641
C1H C 0.5735(2) 0.4266(4) 0.6287(4)
O2H O 0.5220(2) 0.3463(3) 0.6540(2)
C6H C 0.5358(2) 0.4642(4) 0.5620(4)
C7H C 0.5881(4) 0.5519(5) 0.5302(3)
N3H N 0.6788(7) 0.6094(14) 0.5570(11)
H3H H 0.7036 0.5901 0.5947
H4H H 0.7101 0.6643 0.5359
O2N O 0.6537(3) 0.4780(2) 0.6540(2)
C7N C 0.4481(5) 0.4119(4) 0.5302(3)
N3N N 0.3906(14) 0.3212(7) 0.5570(11)
H3N H 0.4099 0.2964 0.5947
H4N H 0.3357 0.2899 0.5359
O2T O 0.4780(2) 0.6537(3) 0.3460(2)
C7T C 0.4119(4) 0.4481(5) 0.4698(3)
N3T N 0.3212(7) 0.3906(14) 0.4430(11)
H3T H 0.2964 0.4099 0.4053
H4T H 0.2899 0.3357 0.4641
Ni1A_2 Ni 1.26472(3) 0.73527(7) 0.2500
Ni1B_2 Ni 1.26473(7) 1.52945(6) 0.2500
Ni1C Ni 0.52945(6) 0.26472(3) 0.7500
Ni1C_2 Ni 0.52945(6) 1.26472(3) 0.7500
Ni1D Ni -0.26472(3) 0.26473(7) 0.7500
Ni1D_2 Ni 0.73528(3) 1.26473(7) 0.7500
Ni1E Ni -0.26473(7) 0.47055(6) 0.7500
Ni1E_2 Ni 0.73527(7) 0.47055(6) 0.7500
N1A_2 N 0.1922(2) 0.8078(4) 0.2500
N1B_2 N 0.1922(4) 0.3844(4) 0.2500
O2I O 0.1757(2) 0.5220(2) 0.1540(2)
O2J O 0.3463(3) 0.8243(2) 0.1540(2)
O2K O 0.4780(2) 0.6537(3) 0.1540(2)
O2O O 0.4780(2) 0.8243(2) 0.1540(2)
O2P O 0.1757(2) 0.6537(3) 0.1540(2)
O2Q O 0.3463(3) 0.5220(2) 0.1540(2)
loop_
_geom_bond_atom_site_label_1
_geom_bond_atom_site_label_2
_geom_bond_site_symmetry_1
_geom_bond_site_symmetry_2
Ni1 O1 1_555 1_555
O1 Ni1A 1_555 1_555
N1 Ni1 1_555 1_555
C1 O2 1_555 1_555
O2 Ni1 1_555 1_555
N2 C3 1_555 1_555
C2 H1 1_555 1_555
C3 C4 1_555 1_555
C4 C2 1_555 1_555
C5 N1 1_555 1_555
H2 C5 1_555 1_555
C6 C1 1_555 1_555
C7 C6 1_555 1_555
N3 C7 1_555 1_555
H3 N3 1_555 1_555
H4 N3 1_555 1_555
N1A C5A 1_555 1_555
N2A C3 1_555 1_555
C2A H1A 1_555 1_555
C3A N2A 1_555 1_555
C4A C2A 1_555 1_555
C5A C2A 1_555 1_555
H2A C5A 1_555 1_555
N1B C5B 1_555 1_555
N2B C3A 1_555 1_555
C2B H1B 1_555 1_555
C3B N2 1_555 1_555
C4B C2B 1_555 1_555
C5B C2B 1_555 1_555
H2B C5B 1_555 1_555
C2I C4B 1_555 1_555
H1I C2I 1_555 1_555
C5I N1B 1_555 1_555
H2I C5I 1_555 1_555
C2J C4A 1_555 1_555
H1J C2J 1_555 1_555
C5J N1A 1_555 1_555
H2J C5J 1_555 1_555
C2K C4 1_555 1_555
H1K C2K 1_555 1_555
C5K N1 1_555 1_555
H2K C5K 1_555 1_555
C1G O2G 1_555 1_555
O2G Ni1D_2 1_555 1_555
C6G C1G 1_555 1_555
C7G C7 1_555 1_555
N3G C7G 1_555 1_555
H3G N3G 1_555 1_555
H4G N3G 1_555 1_555
O2L C1G 1_555 1_555
C7L C6G 1_555 1_555
N3L C7L 1_555 1_555
H3L N3L 1_555 1_555
H4L N3L 1_555 1_555
O2S C1 1_555 1_555
C7S C6 1_555 1_555
N3S C7S 1_555 1_555
H3S N3S 1_555 1_555
H4S N3S 1_555 1_555
Ni1A O2S 1_555 1_555
C1A O2A 1_555 1_555
O2A Ni1A 1_555 1_555
C6A C1A 1_555 1_555
C7A C6A 1_555 1_555
N3A C7A 1_555 1_555
H3A N3A 1_555 1_555
H4A N3A 1_555 1_555
C1F O2F 1_555 1_555
O2F Ni1E 1_555 1_555
C6F C1F 1_555 1_555
C7F C7A 1_555 1_555
N3F C7F 1_555 1_555
H3F N3F 1_555 1_555
H4F N3F 1_555 1_555
O2M C1F 1_555 1_555
C7M C6F 1_555 1_555
N3M C7M 1_555 1_555
H3M N3M 1_555 1_555
H4M N3M 1_555 1_555
O2R C1A 1_555 1_555
C7R C6A 1_555 1_555
N3R C7R 1_555 1_555
H3R N3R 1_555 1_555
H4R N3R 1_555 1_555
Ni1B O1 1_555 1_555
C1B O2B 1_555 1_555
O2B Ni1B 1_555 1_555
C6B C1B 1_555 1_555
C7B C6B 1_555 1_555
N3B C7B 1_555 1_555
H3B N3B 1_555 1_555
H4B N3B 1_555 1_555
C1H O2H 1_555 1_555
O2H Ni1C 1_555 1_555
C6H C1H 1_555 1_555
C7H C7B 1_555 1_555
N3H C7H 1_555 1_555
H3H N3H 1_555 1_555
H4H N3H 1_555 1_555
O2N C1H 1_555 1_555
C7N C6H 1_555 1_555
N3N C7N 1_555 1_555
H3N N3N 1_555 1_555
H4N N3N 1_555 1_555
O2T Ni1 1_555 1_555
C7T C6B 1_555 1_555
N3T C7T 1_555 1_555
H3T N3T 1_555 1_555
H4T N3T 1_555 1_555
Ni1A_2 N1A 1_555 1_555
Ni1B_2 N1B 1_555 1_555
Ni1C_2 O2L 1_555 1_555
Ni1D O2M 1_555 1_555
Ni1E_2 O2N 1_555 1_555
N1A_2 Ni1A 1_555 1_555
N1B_2 Ni1B 1_555 1_555
O2I Ni1B 1_555 1_555
O2J Ni1A 1_555 1_555
O2K Ni1 1_555 1_555
O2O Ni1 1_555 1_555
O2P Ni1A 1_555 1_555
O2Q Ni1B 1_555 1_555
C2 C5 1_555 1_555
C3A C4A 1_555 1_555
N2B C3B 1_555 1_555
C3B C4B 1_555 1_555
C2I C5I 1_555 1_555
C2J C5J 1_555 1_555
C2K C5K 1_555 1_555
C6G C7G 1_555 1_555
C7L C7S 1_555 1_555
C6F C7F 1_555 1_555
C7M C7R 1_555 1_555
O2R Ni1B 1_555 1_555
C1B O2T 1_555 1_555
C6H C7H 1_555 1_555
C7N C7T 1_555 1_555

#END
