
#######################################################################
#
#                 Cambridge Crystallographic Data Centre
#                                CCDC 
#
#######################################################################
#
# If this CIF has been generated from an entry in the Cambridge 
# Structural Database, then it will include bibliographic, chemical, 
# crystal, experimental, refinement or atomic coordinate data resulting 
# from the CCDC's data processing and validation procedures.
#
#######################################################################

data_RUBHOM
_symmetry_cell_setting           monoclinic
_symmetry_space_group_name_H-M   'P 21/c'
_symmetry_Int_Tables_number      14
_space_group_name_Hall           '-P 2ybc'
loop_
_symmetry_equiv_pos_site_id
_symmetry_equiv_pos_as_xyz
1 x,y,z
2 -x,1/2+y,1/2-z
3 -x,-y,-z
4 x,1/2-y,1/2+z
_cell_length_a                   9.2864(13)
_cell_length_b                   22.446(4)
_cell_length_c                   9.884(3)
_cell_angle_alpha                90
_cell_angle_beta                 116.564(18)
_cell_angle_gamma                90
_cell_volume                     1842.76
loop_
_atom_site_label
_atom_site_type_symbol
_atom_site_fract_x
_atom_site_fract_y
_atom_site_fract_z
La1 La 0.64023(3) 0.991157(12) 0.88438(3)
Ag1 Ag 0.68221(6) 0.64654(2) 1.02550(8)
C1 C 0.4242(8) 0.7067(3) 1.0913(9)
H1 H 0.4012 0.6681 1.1099
C2 C 0.3423(8) 0.7525(4) 1.1096(10)
H2 H 0.2620 0.7449 1.1392
C3 C 0.3735(8) 0.8108(3) 1.0857(8)
H3 H 0.3181 0.8424 1.1018
C4 C 0.4866(6) 0.8201(2) 1.0386(6)
C5 C 0.5639(6) 0.7716(2) 1.0218(7)
H4 H 0.6427 0.7778 0.9897
C6 C 0.5297(6) 0.8804(2) 1.0030(6)
C7 C 1.1093(7) 1.1355(3) 1.6406(7)
H5 H 1.1890 1.1597 1.7109
C8 C 0.9869(8) 1.1195(3) 1.6675(7)
H6 H 0.9782 1.1303 1.7544
C9 C 0.8739(6) 1.0851(3) 1.5542(6)
H7 H 0.7834 1.0731 1.5643
C10 C 0.8879(6) 1.0664(2) 1.4192(6)
C11 C 1.0150(6) 1.0829(3) 1.4039(7)
H8 H 1.0301 1.0708 1.3211
C12 C 0.7619(6) 1.0305(2) 1.2869(5)
C13 C 0.5249(6) 0.9666(2) 0.5019(4)
C14 C 1.0074(4) 0.96648(19) 1.0080(5)
N1 N 0.5360(6) 0.7157(2) 1.0478(7)
N2 N 1.1242(6) 1.1182(2) 1.5135(7)
O1 O 0.4799(5) 0.92663(17) 1.0394(5)
O2 O 0.6163(5) 0.88196(17) 0.9378(6)
O3 O 0.7913(5) 1.00655(18) 1.1826(5)
O4 O 0.6379(4) 1.0290(2) 1.2930(4)
O5 O 0.6182(4) 0.94481(18) 0.6272(4)
O6 O 0.4610(4) 0.94097(16) 0.3645(4)
O7 O 0.8854(4) 0.93585(16) 0.9488(5)
O8 O 1.1407(4) 0.94410(17) 1.0781(5)
La1B La 0.35977(3) 1.008843(12) 1.11562(3)
La1B_2 La 0.35977(3) 1.008843(12) 0.11562(3)
La1B_3 La 1.35977(3) 1.008843(12) 1.11562(3)
Ag1B Ag 0.31779(6) 1.35346(2) 0.97450(8)
Ag1A Ag 1.31779(6) 1.14654(2) 1.47450(8)
Ag1C Ag 0.68221(6) 0.85346(2) 0.52550(8)
Ag1A_2 Ag 0.31779(6) 1.14654(2) 0.47450(8)
Ag1C_2 Ag -0.31779(6) 0.85346(2) 0.52550(8)
C1B C 0.5758(8) 1.2933(3) 0.9087(9)
H1B H 0.5988 1.3319 0.8901
C2B C 0.6577(8) 1.2475(4) 0.8904(10)
H2B H 0.7380 1.2551 0.8608
C3B C 0.6265(8) 1.1892(3) 0.9143(8)
H3B H 0.6819 1.1576 0.8982
C4B C 0.5134(6) 1.1799(2) 0.9614(6)
C5B C 0.4361(6) 1.2284(2) 0.9782(7)
H4B H 0.3573 1.2222 1.0103
C6B C 0.4703(6) 1.1196(2) 0.9970(6)
C7B C -0.1093(7) 0.8645(3) 0.3594(7)
H5B H -0.1890 0.8403 0.2891
C8B C 0.0131(8) 0.8805(3) 0.3325(7)
H6B H 0.0218 0.8697 0.2456
C9B C 0.1261(6) 0.9149(3) 0.4458(6)
H7B H 0.2166 0.9269 0.4357
C10B C 0.1121(6) 0.9336(2) 0.5808(6)
C11B C -0.0150(6) 0.9171(3) 0.5961(7)
H8B H -0.0301 0.9292 0.6789
C12B C 0.2381(6) 0.9695(2) 0.7131(5)
C13B C 0.4751(6) 1.0334(2) 0.4981(4)
C14B C 0.9926(4) 1.03352(19) 0.9920(5)
N1B N 0.4640(6) 1.2843(2) 0.9522(7)
N2B N -0.1242(6) 0.8818(2) 0.4865(7)
N2A N 0.8758(6) 0.6182(2) 0.9865(7)
N2C N 0.1242(6) 1.3818(2) 1.0135(7)
O1B O 0.5201(5) 1.07337(17) 0.9606(5)
O2B O 0.3837(5) 1.11804(17) 1.0622(6)
O3B O 0.2087(5) 0.99345(18) 0.8174(5)
O4B O 0.3621(4) 0.9710(2) 0.7070(4)
O5B O 0.3818(4) 1.05519(18) 0.3728(4)
O5C O 0.6182(4) 0.55519(18) 1.1272(4)
O5B_2 O 0.3818(4) 1.05519(18) 1.3728(4)
O5A O 0.3818(4) 1.44481(18) 0.8728(4)
O6B O 0.5390(4) 1.05903(16) 0.6355(4)
O6_2 O 0.4610(4) 0.94097(16) 1.3645(4)
O7B O 1.1146(4) 1.06415(16) 1.0512(5)
O7B_2 O 0.1146(4) 1.06415(16) 1.0512(5)
O8B O 0.8593(4) 1.05590(17) 0.9219(5)
O8_2 O 0.1407(4) 0.94410(17) 1.0781(5)
O9 O 0.8865(13) 0.8089(4) 0.9116(13)
H9 H 0.7874 0.7996 0.8722
H10 H 0.9573 0.7822 0.9279
O10 O -0.015(2) 1.2353(8) 0.300(2)
H11 H -0.0769 1.2263 0.2086
H12 H 0.0429 1.2663 0.3205
loop_
_geom_bond_atom_site_label_1
_geom_bond_atom_site_label_2
_geom_bond_site_symmetry_1
_geom_bond_site_symmetry_2
La1 O1 1_555 1_555
Ag1 N1 1_555 1_555
C1 H1 1_555 1_555
C2 C1 1_555 1_555
H2 C2 1_555 1_555
C3 C2 1_555 1_555
H3 C3 1_555 1_555
C4 C3 1_555 1_555
C5 C4 1_555 1_555
H4 C5 1_555 1_555
C6 C4 1_555 1_555
C7 H5 1_555 1_555
C8 C7 1_555 1_555
H6 C8 1_555 1_555
C9 C8 1_555 1_555
H7 C9 1_555 1_555
C10 C9 1_555 1_555
C11 C10 1_555 1_555
H8 C11 1_555 1_555
C12 C10 1_555 1_555
C13 O5 1_555 1_555
C14 O7 1_555 1_555
N1 C1 1_555 1_555
N2 C7 1_555 1_555
O1 C6 1_555 1_555
O2 La1 1_555 1_555
O3 La1 1_555 1_555
O4 C12 1_555 1_555
O5 La1 1_555 1_555
O6 C13 1_555 1_555
O7 La1 1_555 1_555
O8 C14 1_555 1_555
O9 H9 1_555 1_555
H10 O9 1_555 1_555
O10 H11 1_555 1_555
H12 O10 1_555 1_555
La1B O1 1_555 1_555
La1B_2 O6 1_555 1_555
La1B_3 O8 1_555 1_555
Ag1B N1B 1_555 1_555
Ag1A N2 1_555 1_555
Ag1C O5 1_555 1_555
Ag1A_2 O5B 1_555 1_555
Ag1C_2 N2B 1_555 1_555
C1B H1B 1_555 1_555
C2B C1B 1_555 1_555
H2B C2B 1_555 1_555
C3B C2B 1_555 1_555
H3B C3B 1_555 1_555
C4B C3B 1_555 1_555
C5B C4B 1_555 1_555
H4B C5B 1_555 1_555
C6B C4B 1_555 1_555
C7B H5B 1_555 1_555
C8B C7B 1_555 1_555
H6B C8B 1_555 1_555
C9B C8B 1_555 1_555
H7B C9B 1_555 1_555
C10B C9B 1_555 1_555
C11B C10B 1_555 1_555
H8B C11B 1_555 1_555
C12B C10B 1_555 1_555
C13B C13 1_555 1_555
C14B C14 1_555 1_555
N1B C1B 1_555 1_555
N2B C7B 1_555 1_555
N2A Ag1 1_555 1_555
N2C Ag1B 1_555 1_555
O1B La1 1_555 1_555
O2B La1B 1_555 1_555
O3B La1B 1_555 1_555
O4B La1 1_555 1_555
O5B La1B_2 1_555 1_555
O5C Ag1 1_555 1_555
O5B_2 La1B 1_555 1_555
O5A Ag1B 1_555 1_555
O6B La1 1_555 1_555
O6_2 La1B 1_555 1_555
O7B La1B_3 1_555 1_555
O7B_2 La1B 1_555 1_555
O8B La1 1_555 1_555
O8_2 La1B 1_555 1_555
C5 N1 1_555 1_555
C6 O2 1_555 1_555
C11 N2 1_555 1_555
C12 O3 1_555 1_555
O4 La1B 1_555 1_555
La1B O1B 1_555 1_555
C5B N1B 1_555 1_555
C6B O1B 1_555 1_555
C6B O2B 1_555 1_555
C11B N2B 1_555 1_555
C12B O3B 1_555 1_555
C12B O4B 1_555 1_555
C13B O5B 1_555 1_555
C13B O6B 1_555 1_555
C14B O7B 1_555 1_555
C14B O8B 1_555 1_555

#END
