
#######################################################################
#
#                 Cambridge Crystallographic Data Centre
#                                CCDC 
#
#######################################################################
#
# If this CIF has been generated from an entry in the Cambridge 
# Structural Database, then it will include bibliographic, chemical, 
# crystal, experimental, refinement or atomic coordinate data resulting 
# from the CCDC's data processing and validation procedures.
#
#######################################################################

data_RUBHUS
_symmetry_cell_setting           monoclinic
_symmetry_space_group_name_H-M   'P 21/c'
_symmetry_Int_Tables_number      14
_space_group_name_Hall           '-P 2ybc'
loop_
_symmetry_equiv_pos_site_id
_symmetry_equiv_pos_as_xyz
1 x,y,z
2 -x,1/2+y,1/2-z
3 -x,-y,-z
4 x,1/2-y,1/2+z
_cell_length_a                   9.099(2)
_cell_length_b                   22.299(3)
_cell_length_c                   9.6732(13)
_cell_angle_alpha                90
_cell_angle_beta                 117.874(10)
_cell_angle_gamma                90
_cell_volume                     1734.96
loop_
_atom_site_label
_atom_site_type_symbol
_atom_site_fract_x
_atom_site_fract_y
_atom_site_fract_z
Tb1 Tb 0.64412(2) 0.991471(10) 0.88249(3)
Ag1 Ag 0.67947(6) 0.64843(2) 1.01907(9)
C1 C 0.4219(8) 0.7073(3) 1.0868(9)
H1 H 0.4012 0.6680 1.1047
C2 C 0.3334(9) 0.7521(4) 1.1046(10)
H2 H 0.2503 0.7432 1.1316
C3 C 0.3640(7) 0.8106(3) 1.0834(8)
H3 H 0.3060 0.8415 1.1009
C4 C 0.4787(6) 0.8228(2) 1.0370(7)
C5 C 0.5608(7) 0.7749(2) 1.0197(7)
H4 H 0.6409 0.7824 0.9877
C6 C 0.5183(6) 0.8852(2) 1.0078(6)
C7 C 1.1039(7) 1.1370(3) 1.6421(8)
H5 H 1.1834 1.1626 1.7144
C8 C 0.9786(8) 1.1207(3) 1.6650(7)
H6 H 0.9673 1.1325 1.7517
C9 C 0.8646(7) 1.0842(3) 1.5480(7)
H7 H 0.7709 1.0721 1.5556
C10 C 0.8827(6) 1.0642(2) 1.4152(6)
C11 C 1.0148(6) 1.0807(2) 1.4040(7)
H8 H 1.0333 1.0672 1.3225
C12 C 0.7569(6) 1.0268(2) 1.2803(6)
C13 C 0.5199(6) 0.9668(2) 0.4967(6)
C14 C 1.0082(6) 0.9654(2) 1.0078(6)
N1 N 0.5353(6) 0.7179(2) 1.0452(7)
N2 N 1.1235(6) 1.1179(2) 1.5150(7)
O1 O 0.4586(5) 0.92791(17) 1.0451(5)
O2 O 0.6089(5) 0.89091(17) 0.9456(5)
O3 O 0.7891(5) 1.00151(17) 1.1768(5)
O4 O 0.6294(4) 1.0250(2) 1.2822(5)
O5 O 0.6165(5) 0.94352(17) 0.6343(4)
O6 O 0.4573(4) 0.94090(17) 0.3610(4)
O7 O 0.8829(4) 0.93631(16) 0.9516(5)
O8 O 1.1436(4) 0.94409(17) 1.0764(5)
Tb1B Tb 0.35588(2) 1.008529(10) 1.11751(3)
Tb1B_2 Tb 0.35588(2) 1.008529(10) 0.11751(3)
Tb1B_3 Tb 1.35588(2) 1.008529(10) 1.11751(3)
Ag1B Ag 0.32053(6) 1.35157(2) 0.98093(9)
Ag1A Ag 1.32053(6) 1.14843(2) 1.48093(9)
Ag1C Ag 0.67947(6) 0.85157(2) 0.51907(9)
Ag1A_2 Ag 0.32053(6) 1.14843(2) 0.48093(9)
Ag1C_2 Ag -0.32053(6) 0.85157(2) 0.51907(9)
C1B C 0.5781(8) 1.2927(3) 0.9132(9)
H1B H 0.5988 1.3320 0.8953
C2B C 0.6666(9) 1.2479(4) 0.8954(10)
H2B H 0.7497 1.2568 0.8684
C3B C 0.6360(7) 1.1894(3) 0.9166(8)
H3B H 0.6940 1.1585 0.8991
C4B C 0.5213(6) 1.1772(2) 0.9630(7)
C5B C 0.4392(7) 1.2251(2) 0.9803(7)
H4B H 0.3591 1.2176 1.0123
C6B C 0.4817(6) 1.1148(2) 0.9922(6)
C7B C -0.1039(7) 0.8630(3) 0.3579(8)
H5B H -0.1834 0.8374 0.2856
C8B C 0.0214(8) 0.8793(3) 0.3350(7)
H6B H 0.0327 0.8675 0.2483
C9B C 0.1354(7) 0.9158(3) 0.4520(7)
H7B H 0.2291 0.9279 0.4444
C10B C 0.1173(6) 0.9358(2) 0.5848(6)
C11B C -0.0148(6) 0.9193(2) 0.5960(7)
H8B H -0.0333 0.9328 0.6775
C12B C 0.2431(6) 0.9732(2) 0.7197(6)
C13B C 0.4801(6) 1.0332(2) 0.5033(6)
C14B C 0.9918(6) 1.0346(2) 0.9922(6)
N1B N 0.4647(6) 1.2821(2) 0.9548(7)
N2B N -0.1235(6) 0.8821(2) 0.4850(7)
N2A N 0.8765(6) 0.6179(2) 0.9850(7)
N2C N 0.1235(6) 1.3821(2) 1.0150(7)
O1B O 0.5414(5) 1.07209(17) 0.9549(5)
O2B O 0.3911(5) 1.10909(17) 1.0544(5)
O3B O 0.2109(5) 0.99849(17) 0.8232(5)
O4B O 0.3706(4) 0.9750(2) 0.7178(5)
O5B O 0.3835(5) 1.05648(17) 0.3657(4)
O5C O 0.6165(5) 0.55648(17) 1.1343(4)
O5B_2 O 0.3835(5) 1.05648(17) 1.3657(4)
O5A O 0.3835(5) 1.44352(17) 0.8657(4)
O6B O 0.5427(4) 1.05910(17) 0.6390(4)
O6_2 O 0.4573(4) 0.94090(17) 1.3610(4)
O7B O 1.1171(4) 1.06369(16) 1.0484(5)
O7B_2 O 0.1171(4) 1.06369(16) 1.0484(5)
O8B O 0.8564(4) 1.05591(17) 0.9236(5)
O8_2 O 0.1436(4) 0.94409(17) 1.0764(5)
O9 O 0.8857(11) 0.8072(4) 0.9266(12)
H9 H 0.7866 0.7979 0.8872
H10 H 0.9565 0.7805 0.9430
O10 O -0.012(2) 1.2348(8) 0.290(2)
H11 H -0.0732 1.2258 0.1989
H12 H 0.0465 1.2658 0.3109
loop_
_geom_bond_atom_site_label_1
_geom_bond_atom_site_label_2
_geom_bond_site_symmetry_1
_geom_bond_site_symmetry_2
Tb1 O1 1_555 1_555
Ag1 N1 1_555 1_555
C1 H1 1_555 1_555
C2 C1 1_555 1_555
H2 C2 1_555 1_555
C3 C2 1_555 1_555
H3 C3 1_555 1_555
C4 C3 1_555 1_555
C5 C4 1_555 1_555
H4 C5 1_555 1_555
C6 C4 1_555 1_555
C7 H5 1_555 1_555
C8 C7 1_555 1_555
H6 C8 1_555 1_555
C9 C8 1_555 1_555
H7 C9 1_555 1_555
C10 C9 1_555 1_555
C11 C10 1_555 1_555
H8 C11 1_555 1_555
C12 C10 1_555 1_555
C13 O5 1_555 1_555
C14 O7 1_555 1_555
N1 C1 1_555 1_555
N2 C7 1_555 1_555
O1 C6 1_555 1_555
O2 Tb1 1_555 1_555
O3 Tb1 1_555 1_555
O4 C12 1_555 1_555
O5 Tb1 1_555 1_555
O6 C13 1_555 1_555
O7 Tb1 1_555 1_555
O8 C14 1_555 1_555
O9 H9 1_555 1_555
H10 O9 1_555 1_555
O10 H11 1_555 1_555
H12 O10 1_555 1_555
Tb1B O1 1_555 1_555
Tb1B_2 O6 1_555 1_555
Tb1B_3 O8 1_555 1_555
Ag1B N1B 1_555 1_555
Ag1A N2 1_555 1_555
Ag1C O5 1_555 1_555
Ag1A_2 O5B 1_555 1_555
Ag1C_2 N2B 1_555 1_555
C1B H1B 1_555 1_555
C2B C1B 1_555 1_555
H2B C2B 1_555 1_555
C3B C2B 1_555 1_555
H3B C3B 1_555 1_555
C4B C3B 1_555 1_555
C5B C4B 1_555 1_555
H4B C5B 1_555 1_555
C6B C4B 1_555 1_555
C7B H5B 1_555 1_555
C8B C7B 1_555 1_555
H6B C8B 1_555 1_555
C9B C8B 1_555 1_555
H7B C9B 1_555 1_555
C10B C9B 1_555 1_555
C11B C10B 1_555 1_555
H8B C11B 1_555 1_555
C12B C10B 1_555 1_555
C13B C13 1_555 1_555
C14B C14 1_555 1_555
N1B C1B 1_555 1_555
N2B C7B 1_555 1_555
N2A Ag1 1_555 1_555
N2C Ag1B 1_555 1_555
O1B Tb1 1_555 1_555
O2B Tb1B 1_555 1_555
O3B Tb1B 1_555 1_555
O4B Tb1 1_555 1_555
O5B Tb1B_2 1_555 1_555
O5C Ag1 1_555 1_555
O5B_2 Tb1B 1_555 1_555
O5A Ag1B 1_555 1_555
O6B Tb1 1_555 1_555
O6_2 Tb1B 1_555 1_555
O7B Tb1B_3 1_555 1_555
O7B_2 Tb1B 1_555 1_555
O8B Tb1 1_555 1_555
O8_2 Tb1B 1_555 1_555
C5 N1 1_555 1_555
C6 O2 1_555 1_555
C11 N2 1_555 1_555
C12 O3 1_555 1_555
O4 Tb1B 1_555 1_555
Tb1B O1B 1_555 1_555
C5B N1B 1_555 1_555
C6B O1B 1_555 1_555
C6B O2B 1_555 1_555
C11B N2B 1_555 1_555
C12B O3B 1_555 1_555
C12B O4B 1_555 1_555
C13B O5B 1_555 1_555
C13B O6B 1_555 1_555
C14B O7B 1_555 1_555
C14B O8B 1_555 1_555

#END
