
#######################################################################
#
#                 Cambridge Crystallographic Data Centre
#                                CCDC 
#
#######################################################################
#
# If this CIF has been generated from an entry in the Cambridge 
# Structural Database, then it will include bibliographic, chemical, 
# crystal, experimental, refinement or atomic coordinate data resulting 
# from the CCDC's data processing and validation procedures.
#
#######################################################################

data_RUBTAK
_symmetry_cell_setting           cubic
_symmetry_space_group_name_H-M   'F m -3 m'
_symmetry_Int_Tables_number      225
_space_group_name_Hall           '-F 4 2 3'
loop_
_symmetry_equiv_pos_site_id
_symmetry_equiv_pos_as_xyz
1 x,y,z
2 -y,x,z
3 x,-y,-z
4 z,x,y
5 -x,-y,z
6 y,x,-z
7 -x,z,y
8 y,-x,z
9 -x,y,-z
10 -z,-x,y
11 -y,-x,-z
12 x,-z,y
13 z,-x,-y
14 -x,-z,-y
15 -z,x,-y
16 x,z,-y
17 y,z,x
18 z,-y,x
19 -z,y,x
20 z,y,-x
21 y,-z,-x
22 -z,-y,-x
23 -y,z,-x
24 -y,-z,x
25 x,1/2+y,1/2+z
26 -y,1/2+x,1/2+z
27 x,1/2-y,1/2-z
28 z,1/2+x,1/2+y
29 -x,1/2-y,1/2+z
30 y,1/2+x,1/2-z
31 -x,1/2+z,1/2+y
32 y,1/2-x,1/2+z
33 -x,1/2+y,1/2-z
34 -z,1/2-x,1/2+y
35 -y,1/2-x,1/2-z
36 x,1/2-z,1/2+y
37 z,1/2-x,1/2-y
38 -x,1/2-z,1/2-y
39 -z,1/2+x,1/2-y
40 x,1/2+z,1/2-y
41 y,1/2+z,1/2+x
42 z,1/2-y,1/2+x
43 -z,1/2+y,1/2+x
44 z,1/2+y,1/2-x
45 y,1/2-z,1/2-x
46 -z,1/2-y,1/2-x
47 -y,1/2+z,1/2-x
48 -y,1/2-z,1/2+x
49 1/2+x,y,1/2+z
50 1/2-y,x,1/2+z
51 1/2+x,-y,1/2-z
52 1/2+z,x,1/2+y
53 1/2-x,-y,1/2+z
54 1/2+y,x,1/2-z
55 1/2-x,z,1/2+y
56 1/2+y,-x,1/2+z
57 1/2-x,y,1/2-z
58 1/2-z,-x,1/2+y
59 1/2-y,-x,1/2-z
60 1/2+x,-z,1/2+y
61 1/2+z,-x,1/2-y
62 1/2-x,-z,1/2-y
63 1/2-z,x,1/2-y
64 1/2+x,z,1/2-y
65 1/2+y,z,1/2+x
66 1/2+z,-y,1/2+x
67 1/2-z,y,1/2+x
68 1/2+z,y,1/2-x
69 1/2+y,-z,1/2-x
70 1/2-z,-y,1/2-x
71 1/2-y,z,1/2-x
72 1/2-y,-z,1/2+x
73 1/2+x,1/2+y,z
74 1/2-y,1/2+x,z
75 1/2+x,1/2-y,-z
76 1/2+z,1/2+x,y
77 1/2-x,1/2-y,z
78 1/2+y,1/2+x,-z
79 1/2-x,1/2+z,y
80 1/2+y,1/2-x,z
81 1/2-x,1/2+y,-z
82 1/2-z,1/2-x,y
83 1/2-y,1/2-x,-z
84 1/2+x,1/2-z,y
85 1/2+z,1/2-x,-y
86 1/2-x,1/2-z,-y
87 1/2-z,1/2+x,-y
88 1/2+x,1/2+z,-y
89 1/2+y,1/2+z,x
90 1/2+z,1/2-y,x
91 1/2-z,1/2+y,x
92 1/2+z,1/2+y,-x
93 1/2+y,1/2-z,-x
94 1/2-z,1/2-y,-x
95 1/2-y,1/2+z,-x
96 1/2-y,1/2-z,x
97 -x,-y,-z
98 y,-x,-z
99 -x,y,z
100 -z,-x,-y
101 x,y,-z
102 -y,-x,z
103 x,-z,-y
104 -y,x,-z
105 x,-y,z
106 z,x,-y
107 y,x,z
108 -x,z,-y
109 -z,x,y
110 x,z,y
111 z,-x,y
112 -x,-z,y
113 -y,-z,-x
114 -z,y,-x
115 z,-y,-x
116 -z,-y,x
117 -y,z,x
118 z,y,x
119 y,-z,x
120 y,z,-x
121 -x,1/2-y,1/2-z
122 y,1/2-x,1/2-z
123 -x,1/2+y,1/2+z
124 -z,1/2-x,1/2-y
125 x,1/2+y,1/2-z
126 -y,1/2-x,1/2+z
127 x,1/2-z,1/2-y
128 -y,1/2+x,1/2-z
129 x,1/2-y,1/2+z
130 z,1/2+x,1/2-y
131 y,1/2+x,1/2+z
132 -x,1/2+z,1/2-y
133 -z,1/2+x,1/2+y
134 x,1/2+z,1/2+y
135 z,1/2-x,1/2+y
136 -x,1/2-z,1/2+y
137 -y,1/2-z,1/2-x
138 -z,1/2+y,1/2-x
139 z,1/2-y,1/2-x
140 -z,1/2-y,1/2+x
141 -y,1/2+z,1/2+x
142 z,1/2+y,1/2+x
143 y,1/2-z,1/2+x
144 y,1/2+z,1/2-x
145 1/2-x,-y,1/2-z
146 1/2+y,-x,1/2-z
147 1/2-x,y,1/2+z
148 1/2-z,-x,1/2-y
149 1/2+x,y,1/2-z
150 1/2-y,-x,1/2+z
151 1/2+x,-z,1/2-y
152 1/2-y,x,1/2-z
153 1/2+x,-y,1/2+z
154 1/2+z,x,1/2-y
155 1/2+y,x,1/2+z
156 1/2-x,z,1/2-y
157 1/2-z,x,1/2+y
158 1/2+x,z,1/2+y
159 1/2+z,-x,1/2+y
160 1/2-x,-z,1/2+y
161 1/2-y,-z,1/2-x
162 1/2-z,y,1/2-x
163 1/2+z,-y,1/2-x
164 1/2-z,-y,1/2+x
165 1/2-y,z,1/2+x
166 1/2+z,y,1/2+x
167 1/2+y,-z,1/2+x
168 1/2+y,z,1/2-x
169 1/2-x,1/2-y,-z
170 1/2+y,1/2-x,-z
171 1/2-x,1/2+y,z
172 1/2-z,1/2-x,-y
173 1/2+x,1/2+y,-z
174 1/2-y,1/2-x,z
175 1/2+x,1/2-z,-y
176 1/2-y,1/2+x,-z
177 1/2+x,1/2-y,z
178 1/2+z,1/2+x,-y
179 1/2+y,1/2+x,z
180 1/2-x,1/2+z,-y
181 1/2-z,1/2+x,y
182 1/2+x,1/2+z,y
183 1/2+z,1/2-x,y
184 1/2-x,1/2-z,y
185 1/2-y,1/2-z,-x
186 1/2-z,1/2+y,-x
187 1/2+z,1/2-y,-x
188 1/2-z,1/2-y,x
189 1/2-y,1/2+z,x
190 1/2+z,1/2+y,x
191 1/2+y,1/2-z,x
192 1/2+y,1/2+z,-x
_cell_length_a                   20.7004(2)
_cell_length_b                   20.7004(2)
_cell_length_c                   20.7004(2)
_cell_angle_alpha                90
_cell_angle_beta                 90
_cell_angle_gamma                90
_cell_volume                     8870.26
loop_
_atom_site_label
_atom_site_type_symbol
_atom_site_fract_x
_atom_site_fract_y
_atom_site_fract_z
Zr1 Zr 0.11989(5) 0.0000 0.0000
O1 O 0.17047(8) 0.0000 0.0953(1)
O2 O 0.0561(1) -0.0561(1) -0.0561(1)
C1 C 0.1536(1) 0.0000 0.1536(1)
C2 C 0.2050(2) 0.0000 0.2050(2)
C3 C 0.2675(1) 0.0000 0.1844(1)
Zr1P Zr 0.0000 0.0000 0.11989(5)
Zr1OB Zr 0.5000 0.0000 0.38011(5)
Zr1ZA Zr 0.38011(5) 0.0000 0.5000
Zr1S Zr 0.0000 0.0000 -0.11989(5)
Zr1LB Zr 0.5000 0.0000 -0.38011(5)
Zr1G Zr 0.0000 -0.11989(5) 0.0000
Zr1ZA_2 Zr 0.38011(5) 0.0000 -0.5000
Zr1UB Zr 0.5000 -0.38011(5) 0.0000
Zr1XB Zr 0.38011(5) -0.5000 0.0000
Zr1A Zr 0.0000 0.11989(5) 0.0000
Zr1AC Zr 0.5000 0.38011(5) 0.0000
Zr1XB_2 Zr 0.38011(5) 0.5000 0.0000
Zr1D Zr -0.11989(5) 0.0000 0.0000
Zr1VA Zr -0.38011(5) 0.0000 0.5000
Zr1OB_2 Zr -0.5000 0.0000 0.38011(5)
Zr1EA Zr 0.0000 0.38011(5) 0.5000
Zr1QA Zr 0.0000 0.5000 0.38011(5)
Zr1WA Zr 0.5000 0.11989(5) 0.5000
Zr1VA_2 Zr 0.61989(5) 0.0000 0.5000
Zr1CB Zr 0.5000 -0.11989(5) 0.5000
O1Q O 0.0953(1) 0.0000 0.17047(8)
O1QB O 0.4047(1) 0.0000 0.32953(8)
O1DB O 0.32953(8) 0.0000 0.4047(1)
O1B O 0.17047(8) 0.0000 -0.0953(1)
O1S O 0.0953(1) 0.0000 -0.17047(8)
O1NB O 0.4047(1) 0.0000 -0.32953(8)
O1ZA O 0.32953(8) 0.0000 -0.4047(1)
O1K O 0.17047(8) -0.0953(1) 0.0000
O1L O 0.0953(1) -0.17047(8) 0.0000
O1HC O 0.4047(1) -0.32953(8) 0.0000
O1ZB O 0.32953(8) -0.4047(1) 0.0000
O1O O 0.17047(8) 0.0953(1) 0.0000
O1C O 0.0953(1) 0.17047(8) 0.0000
O1CC O 0.4047(1) 0.32953(8) 0.0000
O1GC O 0.32953(8) 0.4047(1) 0.0000
O1R O -0.0953(1) 0.0000 0.17047(8)
O1D O -0.17047(8) 0.0000 0.0953(1)
O1XA O -0.32953(8) 0.0000 0.4047(1)
O1OB O -0.4047(1) 0.0000 0.32953(8)
O1P O 0.0000 0.0953(1) 0.17047(8)
O1A O 0.0000 0.17047(8) 0.0953(1)
O1HA O 0.0000 0.32953(8) 0.4047(1)
O1RA O 0.0000 0.4047(1) 0.32953(8)
O1W O 0.0000 -0.0953(1) 0.17047(8)
O1OB_2 O 0.5953(1) 0.0000 0.32953(8)
O1RB O 0.5000 0.0953(1) 0.32953(8)
O1PB O 0.5000 -0.0953(1) 0.32953(8)
O1ZA_2 O 0.32953(8) 0.0000 0.5953(1)
O1IB O 0.32953(8) -0.0953(1) 0.5000
O1BB O 0.32953(8) 0.0953(1) 0.5000
O1U O -0.0953(1) 0.0000 -0.17047(8)
O1T O 0.0000 -0.0953(1) -0.17047(8)
O1V O 0.0000 0.0953(1) -0.17047(8)
O1MB O 0.5953(1) 0.0000 -0.32953(8)
O1SB O 0.5000 -0.0953(1) -0.32953(8)
O1LB O 0.5000 0.0953(1) -0.32953(8)
O2A O 0.0561(1) 0.0561(1) -0.0561(1)
O2B O 0.0561(1) 0.0561(1) 0.0561(1)
O2J O 0.0561(1) -0.0561(1) 0.0561(1)
O2E O -0.0561(1) 0.0561(1) 0.0561(1)
O2H O -0.0561(1) -0.0561(1) 0.0561(1)
O2WA O 0.5561(1) 0.0561(1) 0.4439(1)
O2VA O 0.5561(1) -0.0561(1) 0.4439(1)
O2BB O 0.4439(1) -0.0561(1) 0.4439(1)
O2YA O 0.4439(1) 0.0561(1) 0.4439(1)
O2DB O 0.4439(1) -0.0561(1) 0.5561(1)
O2AB O 0.4439(1) 0.0561(1) 0.5561(1)
O2F O -0.0561(1) -0.0561(1) -0.0561(1)
O2C O -0.0561(1) 0.0561(1) -0.0561(1)
O2FB O 0.5561(1) -0.0561(1) -0.4439(1)
O2XA O 0.5561(1) 0.0561(1) -0.4439(1)
O2AB_2 O 0.4439(1) 0.0561(1) -0.4439(1)
O2DB_2 O 0.4439(1) -0.0561(1) -0.4439(1)
C1DB C 0.3464(1) 0.0000 0.3464(1)
C1B C 0.1536(1) 0.0000 -0.1536(1)
C1ZA C 0.3464(1) 0.0000 -0.3464(1)
C1K C 0.1536(1) -0.1536(1) 0.0000
C1ZB C 0.3464(1) -0.3464(1) 0.0000
C1C C 0.1536(1) 0.1536(1) 0.0000
C1CC C 0.3464(1) 0.3464(1) 0.0000
C1D C -0.1536(1) 0.0000 0.1536(1)
C1XA C -0.3464(1) 0.0000 0.3464(1)
C1A C 0.0000 0.1536(1) 0.1536(1)
C1HA C 0.0000 0.3464(1) 0.3464(1)
C2DB C 0.2950(2) 0.0000 0.2950(2)
C2B C 0.2050(2) 0.0000 -0.2050(2)
C2ZA C 0.2950(2) 0.0000 -0.2950(2)
C2K C 0.2050(2) -0.2050(2) 0.0000
C2ZB C 0.2950(2) -0.2950(2) 0.0000
C2C C 0.2050(2) 0.2050(2) 0.0000
C2CC C 0.2950(2) 0.2950(2) 0.0000
C2D C -0.2050(2) 0.0000 0.2050(2)
C2XA C -0.2950(2) 0.0000 0.2950(2)
C2A C 0.0000 0.2050(2) 0.2050(2)
C2HA C 0.0000 0.2950(2) 0.2950(2)
C3QB C 0.3156(1) 0.0000 0.2325(1)
C3DB C 0.2325(1) 0.0000 0.3156(1)
C3Q C 0.1844(1) 0.0000 0.2675(1)
C3B C 0.2675(1) 0.0000 -0.1844(1)
C3NB C 0.3156(1) 0.0000 -0.2325(1)
C3ZA C 0.2325(1) 0.0000 -0.3156(1)
C3S C 0.1844(1) 0.0000 -0.2675(1)
C3K C 0.2675(1) -0.1844(1) 0.0000
C3HC C 0.3156(1) -0.2325(1) 0.0000
C3ZB C 0.2325(1) -0.3156(1) 0.0000
C3L C 0.1844(1) -0.2675(1) 0.0000
C3O C 0.2675(1) 0.1844(1) 0.0000
C3CC C 0.3156(1) 0.2325(1) 0.0000
C3GC C 0.2325(1) 0.3156(1) 0.0000
C3C C 0.1844(1) 0.2675(1) 0.0000
C3R C -0.1844(1) 0.0000 0.2675(1)
C3XA C -0.2325(1) 0.0000 0.3156(1)
C3OB C -0.3156(1) 0.0000 0.2325(1)
C3D C -0.2675(1) 0.0000 0.1844(1)
C3P C 0.0000 0.1844(1) 0.2675(1)
C3HA C 0.0000 0.2325(1) 0.3156(1)
C3RA C 0.0000 0.3156(1) 0.2325(1)
C3A C 0.0000 0.2675(1) 0.1844(1)
loop_
_geom_bond_atom_site_label_1
_geom_bond_atom_site_label_2
_geom_bond_site_symmetry_1
_geom_bond_site_symmetry_2
Zr1 O1 1_555 1_555
O1 C1 1_555 1_555
O2 Zr1 1_555 1_555
C1 C2 1_555 1_555
C2 C3 1_555 1_555
C3 C3QB 1_555 1_555
Zr1P O1Q 1_555 1_555
Zr1OB O1QB 1_555 1_555
Zr1ZA O1DB 1_555 1_555
Zr1S O2 1_555 1_555
Zr1LB O1NB 1_555 1_555
Zr1G O2 1_555 1_555
Zr1ZA_2 O1ZA 1_555 1_555
Zr1UB O1HC 1_555 1_555
Zr1XB O1ZB 1_555 1_555
Zr1A O1C 1_555 1_555
Zr1AC O1CC 1_555 1_555
Zr1XB_2 O1GC 1_555 1_555
Zr1D O1D 1_555 1_555
Zr1VA O1XA 1_555 1_555
Zr1OB_2 O1OB 1_555 1_555
Zr1EA O1HA 1_555 1_555
Zr1QA O1RA 1_555 1_555
Zr1WA O2WA 1_555 1_555
Zr1VA_2 O2WA 1_555 1_555
Zr1CB O2VA 1_555 1_555
O1Q C1 1_555 1_555
O1QB C1DB 1_555 1_555
O1DB C1DB 1_555 1_555
O1B Zr1 1_555 1_555
O1S Zr1S 1_555 1_555
O1NB C1ZA 1_555 1_555
O1ZA C1ZA 1_555 1_555
O1K Zr1 1_555 1_555
O1L Zr1G 1_555 1_555
O1HC C1ZB 1_555 1_555
O1ZB C1ZB 1_555 1_555
O1O Zr1 1_555 1_555
O1C C1C 1_555 1_555
O1CC C1CC 1_555 1_555
O1GC C1CC 1_555 1_555
O1R Zr1P 1_555 1_555
O1D C1D 1_555 1_555
O1XA C1XA 1_555 1_555
O1OB C1XA 1_555 1_555
O1P Zr1P 1_555 1_555
O1A Zr1A 1_555 1_555
O1HA C1HA 1_555 1_555
O1RA C1HA 1_555 1_555
O1W Zr1P 1_555 1_555
O1OB_2 Zr1OB 1_555 1_555
O1RB Zr1OB 1_555 1_555
O1PB Zr1OB 1_555 1_555
O1ZA_2 Zr1ZA 1_555 1_555
O1IB Zr1ZA 1_555 1_555
O1BB Zr1ZA 1_555 1_555
O1U Zr1S 1_555 1_555
O1T Zr1S 1_555 1_555
O1V Zr1S 1_555 1_555
O1MB Zr1LB 1_555 1_555
O1SB Zr1LB 1_555 1_555
O1LB Zr1LB 1_555 1_555
O2A Zr1 1_555 1_555
O2B Zr1 1_555 1_555
O2J Zr1 1_555 1_555
O2E Zr1P 1_555 1_555
O2H Zr1P 1_555 1_555
O2WA Zr1OB 1_555 1_555
O2VA Zr1OB 1_555 1_555
O2BB Zr1OB 1_555 1_555
O2YA Zr1OB 1_555 1_555
O2DB Zr1ZA 1_555 1_555
O2AB Zr1ZA 1_555 1_555
O2F Zr1S 1_555 1_555
O2C Zr1S 1_555 1_555
O2FB Zr1LB 1_555 1_555
O2XA Zr1LB 1_555 1_555
O2AB_2 Zr1LB 1_555 1_555
O2DB_2 Zr1LB 1_555 1_555
C1DB C2DB 1_555 1_555
C1B O1B 1_555 1_555
C1ZA C2ZA 1_555 1_555
C1K O1K 1_555 1_555
C1ZB C2ZB 1_555 1_555
C1C O1O 1_555 1_555
C1CC C2CC 1_555 1_555
C1D O1R 1_555 1_555
C1XA C2XA 1_555 1_555
C1A O1P 1_555 1_555
C1HA C2HA 1_555 1_555
C2DB C3QB 1_555 1_555
C2B C1B 1_555 1_555
C2ZA C3NB 1_555 1_555
C2K C1K 1_555 1_555
C2ZB C3HC 1_555 1_555
C2C C1C 1_555 1_555
C2CC C3CC 1_555 1_555
C2D C1D 1_555 1_555
C2XA C3XA 1_555 1_555
C2A C1A 1_555 1_555
C2HA C3HA 1_555 1_555
C3DB C2DB 1_555 1_555
C3Q C2 1_555 1_555
C3B C2B 1_555 1_555
C3NB C3B 1_555 1_555
C3ZA C2ZA 1_555 1_555
C3S C2B 1_555 1_555
C3K C2K 1_555 1_555
C3HC C3K 1_555 1_555
C3ZB C2ZB 1_555 1_555
C3L C2K 1_555 1_555
C3O C2C 1_555 1_555
C3CC C3O 1_555 1_555
C3GC C2CC 1_555 1_555
C3C C2C 1_555 1_555
C3R C2D 1_555 1_555
C3XA C3R 1_555 1_555
C3OB C2XA 1_555 1_555
C3D C2D 1_555 1_555
C3P C2A 1_555 1_555
C3HA C3P 1_555 1_555
C3RA C2HA 1_555 1_555
C3A C2A 1_555 1_555
Zr1P O2B 1_555 1_555
Zr1P O2J 1_555 1_555
Zr1ZA O2BB 1_555 1_555
Zr1ZA O2YA 1_555 1_555
Zr1S O2A 1_555 1_555
Zr1G O2J 1_555 1_555
Zr1G O2H 1_555 1_555
Zr1G O2F 1_555 1_555
Zr1ZA_2 O2AB_2 1_555 1_555
Zr1ZA_2 O2DB_2 1_555 1_555
Zr1A O2A 1_555 1_555
Zr1A O2B 1_555 1_555
Zr1A O2E 1_555 1_555
Zr1A O2C 1_555 1_555
Zr1D O2E 1_555 1_555
Zr1D O2H 1_555 1_555
Zr1D O2F 1_555 1_555
Zr1D O2C 1_555 1_555
Zr1WA O2YA 1_555 1_555
Zr1WA O2AB 1_555 1_555
Zr1VA_2 O2VA 1_555 1_555
Zr1CB O2BB 1_555 1_555
Zr1CB O2DB 1_555 1_555
O1S C1B 1_555 1_555
O1L C1K 1_555 1_555
O1A C1A 1_555 1_555
C3DB C3Q 1_555 1_555
C3ZA C3S 1_555 1_555
C3ZB C3L 1_555 1_555
C3GC C3C 1_555 1_555
C3OB C3D 1_555 1_555
C3RA C3A 1_555 1_555

#END
