
#######################################################################
#
#                 Cambridge Crystallographic Data Centre
#                                CCDC 
#
#######################################################################
#
# If this CIF has been generated from an entry in the Cambridge 
# Structural Database, then it will include bibliographic, chemical, 
# crystal, experimental, refinement or atomic coordinate data resulting 
# from the CCDC's data processing and validation procedures.
#
#######################################################################

data_RUCGOM
_symmetry_cell_setting           hexagonal
_symmetry_space_group_name_H-M   'P 64 2 2'
_symmetry_Int_Tables_number      181
_space_group_name_Hall           "P 64 2' (0,0,2)"
loop_
_symmetry_equiv_pos_site_id
_symmetry_equiv_pos_as_xyz
1 x,y,z
2 -x,-y,z
3 -y,x-y,1/3+z
4 -x+y,-x,2/3+z
5 x-y,x,2/3+z
6 y,-x+y,1/3+z
7 x-y,-y,-z
8 -x,-x+y,2/3-z
9 y,x,1/3-z
10 -y,-x,1/3-z
11 x,x-y,2/3-z
12 -x+y,y,-z
_cell_length_a                   12.458(3)
_cell_length_b                   12.458(3)
_cell_length_c                   24.673(5)
_cell_angle_alpha                90
_cell_angle_beta                 90
_cell_angle_gamma                120
_cell_volume                     3316.27
loop_
_atom_site_label
_atom_site_type_symbol
_atom_site_fract_x
_atom_site_fract_y
_atom_site_fract_z
Au1 Au 0.606893(16) 0.393107(16) 0.1667
Pt1 Pt 0.5000 0.5000 0.261660(15)
Zn1 Zn 1.0000 1.0000 0.3333
S1 S 0.62949(16) 0.41791(15) 0.25890(7)
N1 N 0.6588(5) 0.6694(6) 0.2651(2)
H1 H 0.6478 0.7249 0.2447
H2 H 0.6717 0.6968 0.3004
O1 O 0.8756(4) 0.8476(5) 0.3006(2)
O2 O 0.9812(5) 0.8306(6) 0.2315(2)
C1 C 0.7817(7) 0.5618(6) 0.2708(2)
C2 C 0.7726(6) 0.6690(6) 0.2453(3)
H3 H 0.7670 0.6583 0.2050
C3 C 0.8819(7) 0.5448(8) 0.2445(4)
H4 H 0.8664 0.5321 0.2055
H5 H 0.8815 0.4724 0.2604
H6 H 0.9628 0.6188 0.2508
C4 C 0.7964(7) 0.5733(7) 0.3329(3)
H7 H 0.7929 0.4986 0.3476
H8 H 0.7292 0.5827 0.3485
H9 H 0.8763 0.6459 0.3420
C5 C 0.8876(7) 0.7940(6) 0.2590(3)
Au1A Au 1.393107(16) 1.606893(16) 0.1667
Au1G Au 1.393107(16) 0.786214(23) 0.5000
Au1J Au 0.606893(16) 1.213786(23) 0.5000
Pt1_2 Pt 1.5000 1.5000 0.261660(15)
Pt1G Pt 1.5000 1.0000 0.405007(15)
Pt1G_2 Pt 0.5000 1.0000 0.405007(15)
S1A S 1.37051(16) 1.58209(15) 0.25890(7)
S1G S 1.37051(16) 0.78842(22) 0.40777(7)
S1J S 0.62949(16) 1.21158(22) 0.40777(7)
S1I S 0.58209(15) 0.37051(16) 0.07443(7)
S1A_2 S 0.37051(16) 0.58209(15) 0.25890(7)
S1H S 1.41791(15) 1.62949(16) 0.07443(7)
S1_2 S 1.62949(16) 1.41791(15) 0.25890(7)
N1A N 1.3412(5) 1.3306(6) 0.2651(2)
N1G N 1.3412(5) 1.0106(8) 0.4016(2)
N1J N 0.6588(5) 0.9894(8) 0.4016(2)
N1A_2 N 0.3412(5) 0.3306(6) 0.2651(2)
N1_2 N 1.6588(5) 1.6694(6) 0.2651(2)
H1A H 1.3522 1.2751 0.2447
H1G H 1.3522 1.0771 0.4220
H1J H 0.6478 0.9229 0.4220
H1A_2 H 0.3522 0.2751 0.2447
H1_2 H 1.6478 1.7249 0.2447
H2A H 1.3283 1.3032 0.3004
H2G H 1.3283 1.0251 0.3663
H2J H 0.6717 0.9749 0.3663
H2A_2 H 0.3283 0.3032 0.3004
H2_2 H 1.6717 1.6968 0.3004
O1A O 1.1244(4) 1.1524(5) 0.3006(2)
O1G O 1.1244(4) 0.9720(6) 0.3661(2)
O1J O 0.8756(4) 1.0280(6) 0.3661(2)
O2A O 1.0188(5) 1.1694(6) 0.2315(2)
O2G O 1.0188(5) 0.8494(8) 0.4352(2)
O2J O 0.9812(5) 1.1506(8) 0.4352(2)
C1A C 1.2183(7) 1.4382(6) 0.2708(2)
C1G C 1.2183(7) 0.7801(9) 0.3959(2)
C1J C 0.7817(7) 1.2199(9) 0.3959(2)
C2A C 1.2274(6) 1.3310(6) 0.2453(3)
C2G C 1.2274(6) 0.8964(8) 0.4214(3)
C2J C 0.7726(6) 1.1036(8) 0.4214(3)
H3A H 1.2330 1.3417 0.2050
H3G H 1.2330 0.8913 0.4617
H3J H 0.7670 1.1087 0.4617
C3A C 1.1181(7) 1.4552(8) 0.2445(4)
C3G C 1.1181(7) 0.6629(11) 0.4222(4)
C3J C 0.8819(7) 1.3371(11) 0.4222(4)
H4A H 1.1336 1.4679 0.2055
H4G H 1.1336 0.6657 0.4612
H4J H 0.8664 1.3343 0.4612
H5A H 1.1185 1.5276 0.2604
H5G H 1.1185 0.5909 0.4063
H5J H 0.8815 1.4091 0.4063
H6A H 1.0372 1.3812 0.2508
H6G H 1.0372 0.6560 0.4159
H6J H 0.9628 1.3440 0.4159
C4A C 1.2036(7) 1.4267(7) 0.3329(3)
C4G C 1.2036(7) 0.7769(10) 0.3338(3)
C4J C 0.7964(7) 1.2231(10) 0.3338(3)
H7A H 1.2071 1.5014 0.3476
H7G H 1.2071 0.7057 0.3191
H7J H 0.7929 1.2943 0.3191
H8A H 1.2708 1.4173 0.3485
H8G H 1.2708 0.8535 0.3182
H8J H 0.7292 1.1465 0.3182
H9A H 1.1237 1.3541 0.3420
H9G H 1.1237 0.7696 0.3247
H9J H 0.8763 1.2304 0.3247
C5A C 1.1124(7) 1.2060(6) 0.2590(3)
C5G C 1.1124(7) 0.9064(9) 0.4077(3)
C5J C 0.8876(7) 1.0936(9) 0.4077(3)
O3 O 0.9558(10) 0.7750(8) 0.1229(3)
O4 O 0.8878(10) 0.6052(9) 0.0451(4)
O5 O 1.0000 0.5000 0.1043(14)
loop_
_geom_bond_atom_site_label_1
_geom_bond_atom_site_label_2
_geom_bond_site_symmetry_1
_geom_bond_site_symmetry_2
Au1 S1 1_555 1_555
Pt1 S1 1_555 1_555
Zn1 O1 1_555 1_555
S1 C1 1_555 1_555
N1 Pt1 1_555 1_555
H1 N1 1_555 1_555
H2 N1 1_555 1_555
O1 C5 1_555 1_555
O2 C5 1_555 1_555
C1 C2 1_555 1_555
C2 N1 1_555 1_555
H3 C2 1_555 1_555
C3 C1 1_555 1_555
H4 C3 1_555 1_555
H5 C3 1_555 1_555
H6 C3 1_555 1_555
C4 C1 1_555 1_555
H7 C4 1_555 1_555
H8 C4 1_555 1_555
H9 C4 1_555 1_555
C5 C2 1_555 1_555
Au1A S1A 1_555 1_555
Au1G S1G 1_555 1_555
Au1J S1J 1_555 1_555
Pt1_2 S1A 1_555 1_555
Pt1G S1G 1_555 1_555
Pt1G_2 S1J 1_555 1_555
S1A C1A 1_555 1_555
S1G C1G 1_555 1_555
S1J C1J 1_555 1_555
S1I Au1 1_555 1_555
S1A_2 Pt1 1_555 1_555
S1H Au1A 1_555 1_555
S1_2 Pt1_2 1_555 1_555
N1A Pt1_2 1_555 1_555
N1G Pt1G 1_555 1_555
N1J Pt1G_2 1_555 1_555
N1A_2 Pt1 1_555 1_555
N1_2 Pt1_2 1_555 1_555
H1A N1A 1_555 1_555
H1G N1G 1_555 1_555
H1J N1J 1_555 1_555
H1A_2 N1A_2 1_555 1_555
H1_2 N1_2 1_555 1_555
H2A N1A 1_555 1_555
H2G N1G 1_555 1_555
H2J N1J 1_555 1_555
H2A_2 N1A_2 1_555 1_555
H2_2 N1_2 1_555 1_555
O1A Zn1 1_555 1_555
O1G Zn1 1_555 1_555
O1J Zn1 1_555 1_555
O2A C5A 1_555 1_555
O2G C5G 1_555 1_555
O2J C5J 1_555 1_555
C1A C2A 1_555 1_555
C1G C2G 1_555 1_555
C1J C2J 1_555 1_555
C2A N1A 1_555 1_555
C2G N1G 1_555 1_555
C2J N1J 1_555 1_555
H3A C2A 1_555 1_555
H3G C2G 1_555 1_555
H3J C2J 1_555 1_555
C3A C1A 1_555 1_555
C3G C1G 1_555 1_555
C3J C1J 1_555 1_555
H4A C3A 1_555 1_555
H4G C3G 1_555 1_555
H4J C3J 1_555 1_555
H5A C3A 1_555 1_555
H5G C3G 1_555 1_555
H5J C3J 1_555 1_555
H6A C3A 1_555 1_555
H6G C3G 1_555 1_555
H6J C3J 1_555 1_555
C4A C1A 1_555 1_555
C4G C1G 1_555 1_555
C4J C1J 1_555 1_555
H7A C4A 1_555 1_555
H7G C4G 1_555 1_555
H7J C4J 1_555 1_555
H8A C4A 1_555 1_555
H8G C4G 1_555 1_555
H8J C4J 1_555 1_555
H9A C4A 1_555 1_555
H9G C4G 1_555 1_555
H9J C4J 1_555 1_555
C5A O1A 1_555 1_555
C5G O1G 1_555 1_555
C5J O1J 1_555 1_555
C2A C5A 1_555 1_555
C2G C5G 1_555 1_555
C2J C5J 1_555 1_555

#END
