
#######################################################################
#
#                 Cambridge Crystallographic Data Centre
#                                CCDC 
#
#######################################################################
#
# If this CIF has been generated from an entry in the Cambridge 
# Structural Database, then it will include bibliographic, chemical, 
# crystal, experimental, refinement or atomic coordinate data resulting 
# from the CCDC's data processing and validation procedures.
#
#######################################################################

data_RUFDUT
_symmetry_cell_setting           orthorhombic
_symmetry_space_group_name_H-M   'P b c a'
_symmetry_Int_Tables_number      61
_space_group_name_Hall           '-P 2ac 2ab'
loop_
_symmetry_equiv_pos_site_id
_symmetry_equiv_pos_as_xyz
1 x,y,z
2 1/2-x,-y,1/2+z
3 -x,1/2+y,1/2-z
4 1/2+x,1/2-y,-z
5 -x,-y,-z
6 1/2+x,y,1/2-z
7 x,1/2-y,1/2+z
8 1/2-x,1/2+y,z
_cell_length_a                   18.7958(9)
_cell_length_b                   8.2622(4)
_cell_length_c                   18.8550(8)
_cell_angle_alpha                90
_cell_angle_beta                 90
_cell_angle_gamma                90
_cell_volume                     2928.08
loop_
_atom_site_label
_atom_site_type_symbol
_atom_site_fract_x
_atom_site_fract_y
_atom_site_fract_z
Ni1 Ni 1.06364(4) -0.01364(10) 0.24743(5)
Ni2 Ni 1.0000 0.0000 0.5000
P1 P 0.97321(9) -0.2016(2) 0.36017(9)
P2 P 0.95890(9) 0.1629(2) 0.34609(9)
O1 O 0.9400(3) -0.3601(6) 0.3380(3)
O2 O 0.9641(3) -0.1846(6) 0.4408(3)
O3 O 1.0498(2) -0.1738(6) 0.3360(3)
O4 O 0.9118(3) 0.2985(6) 0.3197(2)
O5 O 1.0345(3) 0.1694(6) 0.3155(3)
O6 O 0.9590(3) 0.1597(6) 0.4267(3)
O7 O 0.94958(11) -0.0460(3) 0.24127(11)
H1 H 0.9393 -0.1373 0.2232
O8 O 1.10260(11) -0.0254(3) 0.45041(11)
H2 H 1.1280 -0.0904 0.4745
H3 H 1.0973 -0.0624 0.4087
N1 N 0.67120(11) 0.0386(3) 0.23347(11)
C1 C 0.92517(11) -0.0369(3) 0.31462(11)
C2 C 0.84451(11) -0.0596(3) 0.32209(11)
H4 H 0.8421 0.0352 0.3514
H5 H 0.8257 -0.1236 0.3603
C3 C 0.79429(11) 0.0189(3) 0.26917(11)
C4 C 0.81403(11) 0.1187(3) 0.21329(11)
H6 H 0.8630 0.1471 0.2059
C5 C 0.76085(11) 0.1769(3) 0.16790(11)
H7 H 0.7734 0.2448 0.1285
C6 C 0.69032(11) 0.1370(3) 0.17971(11)
H8 H 0.6543 0.1803 0.1490
C7 C 0.72272(11) -0.0181(3) 0.27660(11)
H9 H 0.7090 -0.0883 0.3148
Ni1D Ni 0.93636(4) 0.01364(10) 0.75257(5)
P1D P 1.02679(9) 0.2016(2) 0.63983(9)
P2D P 1.04110(9) -0.1629(2) 0.65391(9)
O1D O 1.0600(3) 0.3601(6) 0.6620(3)
O2D O 1.0359(3) 0.1846(6) 0.5592(3)
O3D O 0.9502(2) 0.1738(6) 0.6640(3)
O4D O 1.0882(3) -0.2985(6) 0.6803(2)
O5D O 0.9655(3) -0.1694(6) 0.6845(3)
O6D O 1.0410(3) -0.1597(6) 0.5733(3)
O7D O 1.05042(11) 0.0460(3) 0.75873(11)
H1D H 1.0607 0.1373 0.7768
O8D O 0.89740(11) 0.0254(3) 0.54959(11)
H2D H 0.8720 0.0904 0.5255
H3D H 0.9027 0.0624 0.5913
N1D N 1.32880(11) -0.0386(3) 0.76653(11)
C1D C 1.07483(11) 0.0369(3) 0.68538(11)
C2D C 1.15549(11) 0.0596(3) 0.67791(11)
H4D H 1.1579 -0.0352 0.6486
H5D H 1.1743 0.1236 0.6397
C3D C 1.20571(11) -0.0189(3) 0.73083(11)
C4D C 1.18597(11) -0.1187(3) 0.78671(11)
H6D H 1.1370 -0.1471 0.7941
C5D C 1.23915(11) -0.1769(3) 0.83210(11)
H7D H 1.2266 -0.2448 0.8715
C6D C 1.30968(11) -0.1370(3) 0.82029(11)
H8D H 1.3457 -0.1803 0.8510
C7D C 1.27728(11) 0.0181(3) 0.72340(11)
H9D H 1.2910 0.0883 0.6852
Ni1A Ni 1.43636(4) 0.01364(10) 0.74743(5)
Ni1B Ni 0.93636(4) -0.51364(10) 0.25257(5)
Ni1B_2 Ni 0.93636(4) 0.48636(10) 0.25257(5)
Ni1E Ni 0.56364(4) -0.01364(10) 0.25257(5)
Ni1F Ni 1.06364(4) -0.48636(10) 0.74743(5)
Ni1F_2 Ni 1.06364(4) 0.51364(10) 0.74743(5)
O1B O 1.0600(3) 0.1399(6) 0.1620(3)
O1F O 0.9400(3) -0.1399(6) 0.8380(3)
O4B O 1.0882(3) -0.2015(6) 0.1803(2)
O4F O 0.9118(3) 0.2015(6) 0.8197(2)
N1A N 0.82880(11) -0.0386(3) 0.73347(11)
N1E N 1.17120(11) 0.0386(3) 0.26653(11)
O9 O 0.67926(11) 0.2956(3) 0.49275(11)
H10 H 0.6986 0.2355 0.5238
H11 H 0.6490 0.3574 0.5126
N2 N 0.89470(11) 0.4894(3) 0.47227(11)
H12 H 0.9281 0.4306 0.4498
H13 H 0.8923 0.5868 0.4511
C8 C 0.91573(11) 0.5112(3) 0.54782(11)
H14 H 0.9610 0.5647 0.5501
H15 H 0.8806 0.5755 0.5717
H16 H 0.9191 0.4073 0.5704
C9 C 0.82014(11) 0.4014(3) 0.46542(11)
H17 H 0.8082 0.3893 0.4162
H18 H 0.8228 0.2966 0.4873
H19 H 0.7842 0.4648 0.4886
loop_
_geom_bond_atom_site_label_1
_geom_bond_atom_site_label_2
_geom_bond_site_symmetry_1
_geom_bond_site_symmetry_2
Ni1 O3 1_555 1_555
Ni2 O2 1_555 1_555
P1 O1 1_555 1_555
P2 O4 1_555 1_555
O1 Ni1B 1_555 1_555
O2 P1 1_555 1_555
O3 P1 1_555 1_555
O4 Ni1B_2 1_555 1_555
O5 Ni1 1_555 1_555
O6 Ni2 1_555 1_555
O7 Ni1 1_555 1_555
H1 O7 1_555 1_555
O8 Ni2 1_555 1_555
H2 O8 1_555 1_555
H3 O8 1_555 1_555
N1 C6 1_555 1_555
C1 P1 1_555 1_555
C2 C1 1_555 1_555
H4 C2 1_555 1_555
H5 C2 1_555 1_555
C3 C2 1_555 1_555
C4 C3 1_555 1_555
H6 C4 1_555 1_555
C5 C4 1_555 1_555
H7 C5 1_555 1_555
C6 C5 1_555 1_555
H8 C6 1_555 1_555
C7 N1 1_555 1_555
H9 C7 1_555 1_555
O9 H10 1_555 1_555
H11 O9 1_555 1_555
N2 H12 1_555 1_555
H13 N2 1_555 1_555
C8 N2 1_555 1_555
H14 C8 1_555 1_555
H15 C8 1_555 1_555
H16 C8 1_555 1_555
C9 N2 1_555 1_555
H17 C9 1_555 1_555
H18 C9 1_555 1_555
H19 C9 1_555 1_555
Ni1D O3D 1_555 1_555
P1D O1D 1_555 1_555
P2D O4D 1_555 1_555
O1D Ni1F_2 1_555 1_555
O2D Ni2 1_555 1_555
O3D P1D 1_555 1_555
O4D Ni1F 1_555 1_555
O5D Ni1D 1_555 1_555
O6D Ni2 1_555 1_555
O7D Ni1D 1_555 1_555
H1D O7D 1_555 1_555
O8D Ni2 1_555 1_555
H2D O8D 1_555 1_555
H3D O8D 1_555 1_555
N1D C6D 1_555 1_555
C1D P1D 1_555 1_555
C2D C1D 1_555 1_555
H4D C2D 1_555 1_555
H5D C2D 1_555 1_555
C3D C2D 1_555 1_555
C4D C3D 1_555 1_555
H6D C4D 1_555 1_555
C5D C4D 1_555 1_555
H7D C5D 1_555 1_555
C6D C5D 1_555 1_555
H8D C6D 1_555 1_555
C7D N1D 1_555 1_555
H9D C7D 1_555 1_555
Ni1A N1D 1_555 1_555
Ni1E N1 1_555 1_555
O1B Ni1 1_555 1_555
O1F Ni1D 1_555 1_555
O4B Ni1 1_555 1_555
O4F Ni1D 1_555 1_555
N1A Ni1D 1_555 1_555
N1E Ni1 1_555 1_555
P2 O5 1_555 1_555
P2 O6 1_555 1_555
P2 C1 1_555 1_555
O7 C1 1_555 1_555
C3 C7 1_555 1_555
P1D O2D 1_555 1_555
P2D O5D 1_555 1_555
P2D O6D 1_555 1_555
P2D C1D 1_555 1_555
O7D C1D 1_555 1_555
C3D C7D 1_555 1_555

#END
