
#######################################################################
#
#                 Cambridge Crystallographic Data Centre
#                                CCDC 
#
#######################################################################
#
# If this CIF has been generated from an entry in the Cambridge 
# Structural Database, then it will include bibliographic, chemical, 
# crystal, experimental, refinement or atomic coordinate data resulting 
# from the CCDC's data processing and validation procedures.
#
#######################################################################

data_RUFRIV
_symmetry_cell_setting           triclinic
_symmetry_space_group_name_H-M   'P -1'
_symmetry_Int_Tables_number      2
_space_group_name_Hall           '-P 1'
loop_
_symmetry_equiv_pos_site_id
_symmetry_equiv_pos_as_xyz
1 x,y,z
2 -x,-y,-z
_cell_length_a                   13.6546(18)
_cell_length_b                   14.2126(18)
_cell_length_c                   14.6377(19)
_cell_angle_alpha                76.057(11)
_cell_angle_beta                 86.390(11)
_cell_angle_gamma                67.910(12)
_cell_volume                     2553.41
loop_
_atom_site_label
_atom_site_type_symbol
_atom_site_fract_x
_atom_site_fract_y
_atom_site_fract_z
Zn1 Zn 0.66531(7) 0.14237(7) 0.22925(6)
Zn2 Zn 0.01581(7) 0.37062(7) 0.14125(6)
Zn3 Zn 0.85043(7) 0.24347(7) 0.22410(6)
Zn4 Zn 0.26143(7) 0.23310(7) 0.10812(6)
Zn5 Zn 0.51164(7) 0.05299(7) 0.12742(6)
O1 O 0.8173(4) -0.1815(4) 0.7761(3)
O2 O 0.3618(4) 0.0773(4) 0.1002(4)
O3 O 0.6441(4) 0.7155(4) -0.0075(4)
O4 O 0.1512(4) 0.3853(4) 0.0916(3)
O5 O 0.7424(4) -0.1854(4) 0.6449(4)
O6 O -0.1024(4) 0.5114(4) 0.0817(4)
H1 H -0.133(4) 0.548(3) 0.0292(14)
O7 O -0.0603(4) 0.3118(4) 0.2464(3)
O8 O -0.0046(4) 0.2881(4) 0.0596(4)
O9 O 0.4743(4) 0.8209(4) -0.0411(4)
O10 O 0.0936(4) -0.1154(4) -0.1798(4)
O11 O 0.5931(4) 0.2925(4) 0.1980(4)
O12 O 0.1618(4) 0.2086(4) 0.0183(4)
O13 O 0.6237(4) -0.0592(4) 0.0712(3)
H2 H 0.637(4) -0.071(2) 0.0160(9)
O14 O 0.5526(4) 0.0901(4) 0.2414(3)
O15 O 0.8110(4) 0.1959(4) 0.3554(4)
O16 O 0.7260(4) 0.3487(4) 0.1527(4)
O17 O 0.2294(4) -0.0789(4) -0.1440(4)
O18 O 0.7362(4) 0.0806(4) 0.3529(4)
N1 N 0.5078(5) -0.0812(5) 0.2324(4)
C1 C 0.1319(6) -0.0615(6) -0.1496(5)
C2 C 0.0670(7) 0.2268(6) 0.0163(5)
O19 O 0.3567(4) 0.2567(4) 0.2067(4)
H3 H 0.4234 0.2305 0.1943
H4 H 0.3480 0.2260 0.2639
N2 N 0.0265(5) 0.4590(5) 0.2380(4)
C3 C 0.5826(6) 0.5504(6) 0.0830(5)
H5 H 0.6545 0.5369 0.0761
C4 C 0.7967(6) -0.0189(6) 0.5407(5)
H6 H 0.7525 -0.0394 0.5110
C5 C 0.6299(7) 0.3615(7) 0.1625(6)
C6 C 0.1710(6) 0.4619(6) 0.1286(5)
H7 H 0.1325 0.5312 0.0904
H8 H 0.2458 0.4497 0.1259
C7 C 0.0947(6) 0.0878(6) -0.0707(5)
H9 H 0.1671 0.0677 -0.0611
C8 C 0.3373(6) -0.0106(6) 0.1477(6)
H10 H 0.3552 -0.0603 0.1083
H11 H 0.2618 0.0120 0.1577
C9 C 0.9027(6) -0.0423(6) 0.6737(5)
H12 H 0.9293 -0.0778 0.7345
C10 C 0.8331(6) -0.0697(6) 0.6321(5)
C11 C 0.1363(6) 0.4559(7) 0.2304(6)
H13 H 0.1834 0.3917 0.2706
H14 H 0.1405 0.5141 0.2513
C12 C 0.6615(7) -0.1584(6) 0.1396(6)
H15 H 0.7130 -0.1589 0.1826
H16 H 0.6954 -0.2145 0.1078
C13 C -0.0794(6) 0.3608(6) 0.3250(5)
H17 H -0.0798 0.3104 0.3829
H18 H -0.1479 0.4177 0.3163
C14 C 0.5358(6) 0.0277(6) 0.3275(5)
H19 H 0.4627 0.0580 0.3446
H20 H 0.5803 0.0274 0.3767
C15 C 0.0561(6) 0.0323(6) -0.1169(5)
C16 C -0.1188(6) 0.1504(7) -0.1023(6)
H21 H -0.1910 0.1745 -0.1159
C17 C 0.5600(7) -0.0825(7) 0.3208(5)
H22 H 0.5341 -0.1191 0.3755
H23 H 0.6359 -0.1188 0.3192
C18 C -0.0822(6) 0.2010(6) -0.0555(5)
H24 H -0.1296 0.2567 -0.0332
C19 C 0.8266(6) 0.0634(6) 0.4928(5)
C20 C 0.5089(6) 0.6508(6) 0.0483(5)
C21 C 0.7946(6) -0.1526(6) 0.6887(6)
C22 C 0.0255(6) 0.1717(6) -0.0398(5)
C23 C 0.5500(6) 0.4725(6) 0.1266(5)
C24 C 0.8949(6) 0.0908(6) 0.5367(5)
H25 H 0.9148 0.1457 0.5054
C25 C 0.4028(6) 0.6715(6) 0.0603(6)
H26 H 0.3529 0.7380 0.0368
C26 C 0.9333(6) 0.0379(6) 0.6253(5)
H27 H 0.9807 0.0559 0.6537
C27 C -0.0513(6) 0.0626(7) -0.1309(5)
H28 H -0.0779 0.0248 -0.1591
C28 C 0.3965(6) -0.0645(6) 0.2426(5)
H29 H 0.3666 -0.0217 0.2875
H30 H 0.3888 -0.1311 0.2666
C29 C 0.4440(6) 0.4927(6) 0.1398(6)
H31 H 0.4218 0.4391 0.1702
C30 C 0.5674(7) -0.1746(6) 0.1945(6)
H32 H 0.5214 -0.1849 0.1532
H33 H 0.5926 -0.2363 0.2458
C31 C -0.1445(7) 0.5731(7) 0.1508(6)
H34 H -0.1908 0.5458 0.1923
H35 H -0.1849 0.6451 0.1197
C32 C -0.0543(6) 0.5673(6) 0.2055(6)
H36 H -0.0810 0.5954 0.2602
H37 H -0.0200 0.6111 0.1670
C33 C 0.7874(6) 0.1188(6) 0.3924(5)
C34 C 0.5460(6) 0.7349(6) -0.0035(5)
C35 C 0.0059(6) 0.4018(6) 0.3314(5)
H38 H -0.0151 0.4482 0.3741
H39 H 0.0704 0.3439 0.3570
C36 C 0.3719(6) 0.5909(6) 0.1083(6)
H40 H 0.3006 0.6043 0.1192
Zn1A Zn 0.33469(7) -0.14237(7) -0.22925(6)
Zn3_2 Zn -0.14957(7) 0.24347(7) 0.22410(6)
Zn3A Zn 0.14957(7) -0.24347(7) -0.22410(6)
Zn4A Zn 0.73857(7) -0.23310(7) 0.89188(6)
Zn4A_2 Zn 0.73857(7) 0.76690(7) -0.10812(6)
Zn5A Zn 0.48836(7) 0.94701(7) -0.12742(6)
O1A O 0.1827(4) 0.1815(4) 0.2239(3)
O3A O 0.3559(4) 0.2845(4) 0.0075(4)
O7_2 O 0.9397(4) 0.3118(4) 0.2464(3)
O9A O 0.5257(4) 0.1791(4) 0.0411(4)
O10A O 0.9064(4) 0.1154(4) 0.1798(4)
O17A O 0.7706(4) 0.0789(4) 0.1440(4)
O20 O 0.752(2) 0.756(2) 0.4828(19)
H41 H 0.7596 0.7753 0.5312
H42 H 0.8064 0.7037 0.4765
O21 O 0.927(2) 0.782(2) 0.343(2)
H43 H 0.9924 0.7641 0.3537
H44 H 0.9135 0.7996 0.2844
O22 O 0.5623(16) 0.6902(16) 0.5019(14)
H45 H 0.5683 0.6513 0.4643
H46 H 0.6202 0.6986 0.5054
O23 O 0.782(3) 0.597(3) 0.435(2)
H47 H 0.7825 0.5493 0.4100
H48 H 0.8428 0.6011 0.4321
O24 O 0.135(2) 0.567(2) 0.4379(18)
H49 H 0.1976 0.5657 0.4428
H50 H 0.0907 0.6252 0.4454
O25 O 0.404(3) 0.475(4) 0.649(3)
H51 H 0.3819 0.4463 0.6133
H52 H 0.3787 0.5426 0.6327
O26? O 0.523(2) 0.708(2) 0.579(2)
H53? H 0.4715 0.7280 0.5389
H54? H 0.5676 0.6446 0.5884
O27? O 0.427(5) 0.423(5) 0.612(4)
H55? H 0.3643 0.4700 0.5993
H56? H 0.4582 0.4513 0.6376
O28? O 0.897(4) 0.789(4) 0.409(3)
H57? H 0.9517 0.7855 0.4368
H58? H 0.9040 0.8054 0.3496
O29? O 0.906(3) 0.709(3) 0.385(3)
H59? H 0.9635 0.6660 0.4133
H60? H 0.8543 0.6959 0.4140
O30? O 0.788(3) 0.780(3) 0.466(2)
H61? H 0.7885 0.7658 0.5256
H62? H 0.7305 0.8306 0.4445
O31? O 0.743(2) 0.708(2) 0.5081(18)
H63? H 0.7709 0.7048 0.4548
H64? H 0.6833 0.7018 0.5071
O32? O 0.949(2) 0.674(2) 0.4029(19)
H65? H 0.9362 0.7194 0.4356
H66? H 0.9434 0.7046 0.3447
loop_
_geom_bond_atom_site_label_1
_geom_bond_atom_site_label_2
_geom_bond_site_symmetry_1
_geom_bond_site_symmetry_2
Zn1 O11 1_555 1_555
Zn2 O4 1_555 1_555
Zn3 O15 1_555 1_555
Zn4 O2 1_555 1_555
Zn5 O2 1_555 1_555
O1 C21 1_555 1_555
O2 C8 1_555 1_555
O3 C34 1_555 1_555
O4 Zn4 1_555 1_555
O5 C21 1_555 1_555
O6 Zn2 1_555 1_555
H1 O6 1_555 1_555
O7 Zn2 1_555 1_555
O8 Zn2 1_555 1_555
O9 C34 1_555 1_555
O10 C1 1_555 1_555
O11 C5 1_555 1_555
O12 Zn4 1_555 1_555
O13 Zn5 1_555 1_555
H2 O13 1_555 1_555
O14 Zn1 1_555 1_555
O15 C33 1_555 1_555
O16 Zn3 1_555 1_555
O17 C1 1_555 1_555
O18 Zn1 1_555 1_555
N1 Zn5 1_555 1_555
C1 C15 1_555 1_555
C2 O8 1_555 1_555
O19 Zn4 1_555 1_555
H3 O19 1_555 1_555
H4 O19 1_555 1_555
N2 Zn2 1_555 1_555
C3 H5 1_555 1_555
C4 H6 1_555 1_555
C5 O16 1_555 1_555
C6 O4 1_555 1_555
H7 C6 1_555 1_555
H8 C6 1_555 1_555
C7 H9 1_555 1_555
C8 H10 1_555 1_555
H11 C8 1_555 1_555
C9 H12 1_555 1_555
C10 C4 1_555 1_555
C11 N2 1_555 1_555
H13 C11 1_555 1_555
H14 C11 1_555 1_555
C12 O13 1_555 1_555
H15 C12 1_555 1_555
H16 C12 1_555 1_555
C13 O7 1_555 1_555
H17 C13 1_555 1_555
H18 C13 1_555 1_555
C14 O14 1_555 1_555
H19 C14 1_555 1_555
H20 C14 1_555 1_555
C15 C7 1_555 1_555
C16 H21 1_555 1_555
C17 N1 1_555 1_555
H22 C17 1_555 1_555
H23 C17 1_555 1_555
C18 C16 1_555 1_555
H24 C18 1_555 1_555
C19 C4 1_555 1_555
C20 C3 1_555 1_555
C21 C10 1_555 1_555
C22 C2 1_555 1_555
C23 C3 1_555 1_555
C24 C19 1_555 1_555
H25 C24 1_555 1_555
C25 C20 1_555 1_555
H26 C25 1_555 1_555
C26 C9 1_555 1_555
H27 C26 1_555 1_555
C27 C15 1_555 1_555
H28 C27 1_555 1_555
C28 N1 1_555 1_555
H29 C28 1_555 1_555
H30 C28 1_555 1_555
C29 C23 1_555 1_555
H31 C29 1_555 1_555
C30 N1 1_555 1_555
H32 C30 1_555 1_555
H33 C30 1_555 1_555
C31 O6 1_555 1_555
H34 C31 1_555 1_555
H35 C31 1_555 1_555
C32 N2 1_555 1_555
H36 C32 1_555 1_555
H37 C32 1_555 1_555
C33 O18 1_555 1_555
C34 C20 1_555 1_555
C35 N2 1_555 1_555
H38 C35 1_555 1_555
H39 C35 1_555 1_555
C36 C25 1_555 1_555
H40 C36 1_555 1_555
O20 H41 1_555 1_555
H42 O20 1_555 1_555
O21 H43 1_555 1_555
H44 O21 1_555 1_555
O22 H45 1_555 1_555
H46 O22 1_555 1_555
O23 H47 1_555 1_555
H48 O23 1_555 1_555
O24 H49 1_555 1_555
H50 O24 1_555 1_555
O25 H51 1_555 1_555
H52 O25 1_555 1_555
Zn1A O17 1_555 1_555
Zn3_2 O7 1_555 1_555
Zn3A O10 1_555 1_555
Zn4A O1 1_555 1_555
Zn4A_2 O3 1_555 1_555
Zn5A O9 1_555 1_555
O1A Zn4 1_555 1_555
O3A Zn4 1_555 1_555
O7_2 Zn3 1_555 1_555
O9A Zn5 1_555 1_555
O10A Zn3 1_555 1_555
O17A Zn1 1_555 1_555
Zn5 O14 1_555 1_555
O12 C2 1_555 1_555
C5 C23 1_555 1_555
C6 C11 1_555 1_555
C7 C22 1_555 1_555
C8 C28 1_555 1_555
C9 C10 1_555 1_555
C12 C30 1_555 1_555
C13 C35 1_555 1_555
C14 C17 1_555 1_555
C16 C27 1_555 1_555
C18 C22 1_555 1_555
C19 C33 1_555 1_555
C24 C26 1_555 1_555
C29 C36 1_555 1_555
C31 C32 1_555 1_555

#END
