
#######################################################################
#
#                 Cambridge Crystallographic Data Centre
#                                CCDC 
#
#######################################################################
#
# If this CIF has been generated from an entry in the Cambridge 
# Structural Database, then it will include bibliographic, chemical, 
# crystal, experimental, refinement or atomic coordinate data resulting 
# from the CCDC's data processing and validation procedures.
#
#######################################################################

data_RUFZID
_symmetry_cell_setting           monoclinic
_symmetry_space_group_name_H-M   'C 2/m'
_symmetry_Int_Tables_number      12
_space_group_name_Hall           '-C 2y'
loop_
_symmetry_equiv_pos_site_id
_symmetry_equiv_pos_as_xyz
1 x,y,z
2 -x,y,-z
3 1/2+x,1/2+y,z
4 1/2-x,1/2+y,-z
5 -x,-y,-z
6 x,-y,z
7 1/2-x,1/2-y,-z
8 1/2+x,1/2-y,z
_cell_length_a                   27.313(18)
_cell_length_b                   22.017(14)
_cell_length_c                   15.836(11)
_cell_angle_alpha                90
_cell_angle_beta                 103.218(10)
_cell_angle_gamma                90
_cell_volume                     9270.69
loop_
_atom_site_label
_atom_site_type_symbol
_atom_site_fract_x
_atom_site_fract_y
_atom_site_fract_z
Cu1 Cu 0.73927(10) 0.5000 0.84891(18)
Cu2 Cu 0.81065(6) 0.42414(6) 0.75286(10)
Cu3 Cu 0.96182(8) 0.5000 0.54203(13)
Cu4 Cu 0.7500 0.2500 1.0000
N1 N 0.7480(4) 0.4139(4) 0.8751(7)
N2 N 0.7774(4) 0.3819(4) 0.8329(6)
N3 N 0.7553(4) 0.3219(4) 0.9290(7)
N4 N 0.8477(4) 0.4685(4) 0.6823(6)
N5 N 0.9029(5) 0.5000 0.6062(10)
O1 O 0.8063(4) 0.5000 0.8183(7)
H1 H 0.8333 0.5000 0.8630
O2 O 0.7976(4) 0.3559(4) 0.6732(7)
O3 O 0.7257(5) 0.3948(5) 0.5996(9)
O4 O 0.9332(4) 0.4384(4) 0.4555(6)
O5 O 0.9967(4) 0.4388(4) 0.3858(6)
O6 O 0.7846(4) 0.2950(4) 0.1043(6)
O7 O 0.8481(5) 0.2564(5) 0.0634(8)
O8 O 0.6684(5) 0.5000 0.8469(11)
H2 H 0.6367 0.5000 0.8171
H3 H 0.6704 0.5000 0.9022
O9 O 0.8926(5) 0.3955(7) 0.8419(10)
H4 H 0.8904 0.3567 0.8631
H5 H 0.9148 0.4154 0.8809
C1 C 0.7036(6) 0.3930(7) 0.9921(11)
H6 H 0.6959 0.4356 0.9870
H7 H 0.7214 0.3842 1.0504
H8 H 0.6730 0.3700 0.9783
C2 C 0.7352(5) 0.3768(6) 0.9317(9)
C3 C 0.7807(5) 0.3261(6) 0.8649(9)
C4 C 0.8089(6) 0.2734(6) 0.8392(10)
H9 H 0.8357 0.2882 0.8150
H10 H 0.7864 0.2492 0.7969
H11 H 0.8225 0.2491 0.8894
C5 C 0.8810(5) 0.4517(5) 0.6372(9)
C6 C 0.8938(6) 0.3885(6) 0.6180(11)
H12 H 0.8802 0.3798 0.5578
H13 H 0.8799 0.3608 0.6530
H14 H 0.9297 0.3839 0.6307
C7 C 0.7579(8) 0.3561(7) 0.6126(12)
C8 C 0.7546(7) 0.2999(7) 0.5549(11)
C9 C 0.7167(7) 0.2938(7) 0.4865(14)
H15 H 0.6925 0.3243 0.4754
C10 C 0.7892(6) 0.2566(8) 0.5712(11)
H16 H 0.8164 0.2591 0.6186
C11 C 0.8310(7) 0.2869(8) 0.1126(11)
C12 C 0.8616(6) 0.3182(7) 0.1913(11)
C13 C 0.8425(6) 0.3406(8) 0.2555(13)
H17 H 0.8085 0.3349 0.2535
C14 C 0.9135(7) 0.3232(7) 0.1957(11)
H18 H 0.9284 0.3051 0.1548
C15 C 0.9530(7) 0.4226(6) 0.3969(10)
C16 C 0.9212(6) 0.3829(6) 0.3280(9)
C17 C 0.8732(6) 0.3734(8) 0.3280(11)
H19 H 0.8596 0.3874 0.3732
C18 C 0.9417(6) 0.3575(8) 0.2661(12)
H20 H 0.9760 0.3628 0.2699
O10 O 0.7191(5) 0.5000 0.6900(8)
H21 H 0.6888 0.5000 0.6591
H22 H 0.7399 0.5000 0.6565
N4E N 0.8477(4) 0.5315(4) 0.6823(6)
C5E C 0.8810(5) 0.5483(5) 0.6372(9)
C6E C 0.8938(6) 0.6115(6) 0.6180(11)
H12E H 0.8802 0.6202 0.5578
H13E H 0.8799 0.6392 0.6530
H14E H 0.9297 0.6161 0.6307
O2F O 0.7024(4) 0.1441(4) 0.3268(7)
O3F O 0.7743(5) 0.1052(5) 0.4004(9)
C7F C 0.7421(8) 0.1439(7) 0.3874(12)
C8F C 0.7454(7) 0.2001(7) 0.4451(11)
C9F C 0.7833(7) 0.2062(7) 0.5135(14)
H15F H 0.8075 0.1757 0.5246
C10F C 0.7108(6) 0.2434(8) 0.4288(11)
H16F H 0.6836 0.2409 0.3814
O4A O 1.0668(4) 0.4384(4) 0.5445(6)
O5A O 1.0033(4) 0.4388(4) 0.6142(6)
O6A O 1.2154(4) 0.2950(4) 0.8957(6)
O7A O 1.1519(5) 0.2564(5) 0.9366(8)
C11A C 1.1690(7) 0.2869(8) 0.8874(11)
C12A C 1.1384(6) 0.3182(7) 0.8087(11)
C13A C 1.1575(6) 0.3406(8) 0.7445(13)
H17A H 1.1915 0.3349 0.7465
C14A C 1.0865(7) 0.3232(7) 0.8043(11)
H18A H 1.0716 0.3051 0.8452
C15A C 1.0470(7) 0.4226(6) 0.6031(10)
C16A C 1.0788(6) 0.3829(6) 0.6720(9)
C17A C 1.1268(6) 0.3734(8) 0.6720(11)
H19A H 1.1404 0.3874 0.6268
C18A C 1.0583(6) 0.3575(8) 0.7339(12)
H20A H 1.0240 0.3628 0.7301
Cu2E Cu 0.81065(6) 0.57586(6) 0.75286(10)
N1E N 0.7480(4) 0.5861(4) 0.8751(7)
N2E N 0.7774(4) 0.6181(4) 0.8329(6)
N3E N 0.7553(4) 0.6781(4) 0.9290(7)
O9E O 0.8926(5) 0.6045(7) 0.8419(10)
H4E H 0.8904 0.6433 0.8631
H5E H 0.9148 0.5846 0.8809
C1E C 0.7036(6) 0.6070(7) 0.9921(11)
H6E H 0.6959 0.5644 0.9870
H7E H 0.7214 0.6158 1.0504
H8E H 0.6730 0.6300 0.9783
C2E C 0.7352(5) 0.6232(6) 0.9317(9)
C3E C 0.7807(5) 0.6739(6) 0.8649(9)
C4E C 0.8089(6) 0.7266(6) 0.8392(10)
H9E H 0.8357 0.7118 0.8150
H10E H 0.7864 0.7508 0.7969
H11E H 0.8225 0.7509 0.8894
Cu2F Cu 0.68935(6) 0.07586(6) 0.24714(10)
Cu3A Cu 1.03818(8) 0.5000 0.45797(13)
Cu4_2 Cu 0.7500 0.2500 0.0000
Cu4A Cu 1.2500 0.2500 1.0000
Cu4C Cu 0.7500 0.7500 1.0000
N3F N 0.7447(4) 0.1781(4) 1.0710(7)
O2E O 0.7976(4) 0.6441(4) 0.6732(7)
O4E O 0.9332(4) 0.5616(4) 0.4555(6)
O5D O 1.0033(4) 0.5612(4) 0.6142(6)
O6_2 O 0.7846(4) 0.2950(4) 1.1043(6)
O6F O 0.7154(4) 0.2050(4) 0.8957(6)
O7_2 O 0.8481(5) 0.2564(5) 1.0634(8)
O7F O 0.6519(5) 0.2436(5) 0.9366(8)
O11 O 0.6315(13) 1.0000 0.992(4)
H23 H 0.6097 1.0000 0.9434
H24 H 0.6616 1.0000 0.9817
O12 O 0.977(2) 0.5000 0.814(2)
H25 H 0.9966 0.5000 0.7766
H26 H 0.9459 0.5000 0.7819
O13 O 0.7364(14) 0.0000 0.611(3)
H27 H 0.7045 0.0000 0.5845
H28 H 0.7388 0.0000 0.6670
loop_
_geom_bond_atom_site_label_1
_geom_bond_atom_site_label_2
_geom_bond_site_symmetry_1
_geom_bond_site_symmetry_2
Cu1 N1 1_555 1_555
Cu2 N2 1_555 1_555
Cu3 N5 1_555 1_555
Cu4 N3 1_555 1_555
N1 N2 1_555 1_555
N2 C3 1_555 1_555
N3 C2 1_555 1_555
N4 Cu2 1_555 1_555
N5 C5 1_555 1_555
O1 Cu1 1_555 1_555
H1 O1 1_555 1_555
O2 Cu2 1_555 1_555
O3 C7 1_555 1_555
O4 Cu3 1_555 1_555
O5 C15 1_555 1_555
O6 C11 1_555 1_555
O7 C11 1_555 1_555
O8 Cu1 1_555 1_555
H2 O8 1_555 1_555
H3 O8 1_555 1_555
O9 Cu2 1_555 1_555
H4 O9 1_555 1_555
H5 O9 1_555 1_555
C1 H6 1_555 1_555
H7 C1 1_555 1_555
H8 C1 1_555 1_555
C2 N1 1_555 1_555
C3 N3 1_555 1_555
C4 C3 1_555 1_555
H9 C4 1_555 1_555
H10 C4 1_555 1_555
H11 C4 1_555 1_555
C5 N4 1_555 1_555
C6 C5 1_555 1_555
H12 C6 1_555 1_555
H13 C6 1_555 1_555
H14 C6 1_555 1_555
C7 O2 1_555 1_555
C8 C7 1_555 1_555
C9 C8 1_555 1_555
H15 C9 1_555 1_555
C10 C8 1_555 1_555
H16 C10 1_555 1_555
C11 C12 1_555 1_555
C12 C13 1_555 1_555
C13 H17 1_555 1_555
C14 C12 1_555 1_555
H18 C14 1_555 1_555
C15 O4 1_555 1_555
C16 C15 1_555 1_555
C17 C13 1_555 1_555
H19 C17 1_555 1_555
C18 C14 1_555 1_555
H20 C18 1_555 1_555
O10 Cu1 1_555 1_555
H21 O10 1_555 1_555
H22 O10 1_555 1_555
O11 H23 1_555 1_555
H24 O11 1_555 1_555
O12 H25 1_555 1_555
H26 O12 1_555 1_555
O13 H27 1_555 1_555
H28 O13 1_555 1_555
N4E N4 1_555 1_555
C5E N5 1_555 1_555
C6E C5E 1_555 1_555
H12E C6E 1_555 1_555
H13E C6E 1_555 1_555
H14E C6E 1_555 1_555
O2F C7F 1_555 1_555
O3F C7F 1_555 1_555
C7F C8F 1_555 1_555
C8F C9F 1_555 1_555
C9F C10 1_555 1_555
H15F C9F 1_555 1_555
C10F C9 1_555 1_555
H16F C10F 1_555 1_555
O4A C15A 1_555 1_555
O5A Cu3 1_555 1_555
O6A C11A 1_555 1_555
O7A C11A 1_555 1_555
C11A C12A 1_555 1_555
C12A C13A 1_555 1_555
C13A H17A 1_555 1_555
C14A C12A 1_555 1_555
H18A C14A 1_555 1_555
C15A O5A 1_555 1_555
C16A C15A 1_555 1_555
C17A C13A 1_555 1_555
H19A C17A 1_555 1_555
C18A C14A 1_555 1_555
H20A C18A 1_555 1_555
Cu2E O1 1_555 1_555
N1E Cu1 1_555 1_555
N2E Cu2E 1_555 1_555
N3E C2E 1_555 1_555
O9E Cu2E 1_555 1_555
H4E O9E 1_555 1_555
H5E O9E 1_555 1_555
C1E H6E 1_555 1_555
H7E C1E 1_555 1_555
H8E C1E 1_555 1_555
C2E N1E 1_555 1_555
C3E N2E 1_555 1_555
C4E C3E 1_555 1_555
H9E C4E 1_555 1_555
H10E C4E 1_555 1_555
H11E C4E 1_555 1_555
Cu2F O2F 1_555 1_555
Cu3A Cu3 1_555 1_555
Cu4_2 O6 1_555 1_555
Cu4A O6A 1_555 1_555
Cu4C N3E 1_555 1_555
N3F Cu4 1_555 1_555
O2E Cu2E 1_555 1_555
O4E Cu3 1_555 1_555
O5D Cu3 1_555 1_555
O6_2 Cu4 1_555 1_555
O6F Cu4 1_555 1_555
O7_2 Cu4 1_555 1_555
O7F Cu4 1_555 1_555
Cu2 O1 1_555 1_555
O5 Cu3A 1_555 1_555
O7 Cu4_2 1_555 1_555
C1 C2 1_555 1_555
C16 C17 1_555 1_555
C16 C18 1_555 1_555
N4E C5E 1_555 1_555
N4E Cu2E 1_555 1_555
C8F C10F 1_555 1_555
O4A Cu3A 1_555 1_555
O7A Cu4A 1_555 1_555
C16A C17A 1_555 1_555
C16A C18A 1_555 1_555
N1E N2E 1_555 1_555
N3E C3E 1_555 1_555
C1E C2E 1_555 1_555

#END
