
#######################################################################
#
#                 Cambridge Crystallographic Data Centre
#                                CCDC 
#
#######################################################################
#
# If this CIF has been generated from an entry in the Cambridge 
# Structural Database, then it will include bibliographic, chemical, 
# crystal, experimental, refinement or atomic coordinate data resulting 
# from the CCDC's data processing and validation procedures.
#
#######################################################################

data_RUGKEL
_symmetry_cell_setting           monoclinic
_symmetry_space_group_name_H-M   'P 2/c'
_symmetry_Int_Tables_number      13
_space_group_name_Hall           '-P 2yc'
loop_
_symmetry_equiv_pos_site_id
_symmetry_equiv_pos_as_xyz
1 x,y,z
2 -x,y,1/2-z
3 -x,-y,-z
4 x,-y,1/2+z
_cell_length_a                   24.8834(5)
_cell_length_b                   22.8378(5)
_cell_length_c                   24.3802(6)
_cell_angle_alpha                90
_cell_angle_beta                 105.497(7)
_cell_angle_gamma                90
_cell_volume                     13351.1
loop_
_atom_site_label
_atom_site_type_symbol
_atom_site_fract_x
_atom_site_fract_y
_atom_site_fract_z
Mn1 Mn 0.000 1.06284(7) 0.250
Mn2 Mn 0.08392(6) 0.70278(6) 0.44035(5)
Mn3 Mn 0.500 0.05789(9) 0.750
Mn4 Mn 0.24232(5) 0.31544(6) 0.50284(4)
Mn5 Mn 0.42994(7) 0.70298(9) 0.55409(7)
Cr1 Cr 0.500 -0.17892(10) 0.750
Cr2 Cr -0.04086(6) 1.21194(6) 0.07158(5)
Cr3 Cr 0.44026(6) 0.20554(7) 0.57064(7)
Cr4 Cr 0.25627(5) 0.55188(6) 0.50019(4)
Cr5 Cr 0.000 0.82701(7) 0.250
O1 O 0.03772(19) 0.9895(2) 0.21840(19)
O2 O 0.2272(2) 0.4909(2) 0.5410(2)
O3 O 0.2798(2) 0.4845(2) 0.4624(2)
O4 O 0.0306(2) 0.8919(2) 0.21377(19)
O5 O 0.0401(2) 1.1342(2) 0.2148(2)
O6 O 0.4618(2) -0.0163(3) 0.7806(2)
O7 O 0.2253(2) 0.6169(2) 0.53586(19)
O8 O 0.2723(2) 0.3868(2) 0.4595(2)
O9 O 0.2215(2) 0.3937(2) 0.5447(2)
O10 O 0.1851(2) 0.5588(2) 0.44047(19)
O11 O 0.0716(2) 0.8193(2) 0.3092(2)
O12 O 0.5336(2) 0.1305(3) 0.7096(3)
O13 O 0.0158(2) 1.2001(2) 0.1448(2)
O14 O 0.2904(2) 0.6118(3) 0.4612(2)
O15 O 0.4665(2) -0.1143(3) 0.7835(2)
O16 O -0.1772(3) 1.2971(3) 0.0754(2)
O17 O -0.0682(2) 1.1346(2) 0.09028(19)
O18 O -0.0562(2) 1.0748(2) 0.1648(2)
O19 O 0.3287(2) 0.5587(3) 0.5590(2)
O20 O -0.0249(2) 0.7673(2) 0.2959(2)
O21 O -0.0999(2) 1.2201(2) -0.0003(2)
O22 O 0.1126(2) 0.6194(3) 0.4146(2)
O23 O 0.0105(2) 1.1801(2) 0.0301(2)
O24 O 0.3073(2) 0.2935(3) 0.5804(2)
O25 O 0.4704(2) -0.2387(3) 0.7924(3)
O26 O 0.1586(2) 0.6842(3) 0.5088(2)
O27 O 0.5672(2) -0.1846(3) 0.8141(2)
O28 O -0.0098(3) 1.2879(2) 0.0568(2)
O29 O 0.0089(3) 0.7112(3) 0.3719(3)
O30 O 0.2955(3) 0.2545(3) 0.4724(2)
O31 O -0.1827(2) 1.2629(2) -0.0325(2)
O32 O 0.4369(2) 0.0689(3) 0.6687(3)
O33 O -0.0947(2) 1.2520(3) 0.1049(2)
O34 O 0.0371(3) 1.3251(2) -0.0011(2)
O35 O 0.3772(3) 0.2100(3) 0.5023(3)
O36 O 0.3880(2) 0.2447(3) 0.6072(2)
O37 O 0.0650(3) 1.2127(3) -0.0227(2)
O38 O 0.5014(2) 0.1963(3) 0.6405(3)
O39 O 0.1112(2) 0.7602(3) 0.3816(2)
O40 O 0.4171(2) 0.1280(3) 0.5932(3)
O41 O 0.4898(3) 0.1760(3) 0.5261(3)
O42 O 0.4984(3) -0.2921(4) 0.8710(3)
O43 O 0.5458(3) 0.2113(3) 0.4758(3)
O44 O 0.4660(3) 0.2829(3) 0.5527(3)
O45 O 0.4020(3) 0.6186(4) 0.5824(3)
O46 O 0.5171(3) 0.3220(3) 0.4995(3)
O47 O 0.3579(3) 0.6791(3) 0.4848(3)
O48 O 0.6012(3) -0.2413(4) 0.8905(3)
C1 C 0.2348(3) 0.4388(4) 0.5254(3)
C2 C 0.2651(3) 0.4351(4) 0.4777(3)
C3 C 0.0090(3) 1.1534(3) 0.1702(3)
C4 C 0.4790(3) -0.0636(4) 0.7683(3)
C5 C 0.1575(3) 0.6030(3) 0.4470(3)
C6 C 0.0707(3) 0.7786(4) 0.3440(3)
C7 C -0.0433(3) 1.1174(3) 0.1394(3)
C8 C 0.0196(4) 1.2833(4) 0.0221(3)
C9 C 0.1819(3) 0.6380(3) 0.5015(3)
C10 C 0.0130(3) 0.7492(4) 0.3373(3)
C11 C -0.1414(4) 1.2486(4) 0.0054(3)
C12 C 0.0332(4) 1.2202(4) 0.0078(3)
C13 C 0.4465(3) 0.1110(4) 0.6413(4)
C14 C 0.3380(4) 0.2407(4) 0.5087(4)
C15 C 0.3444(4) 0.2623(4) 0.5713(3)
C16 C 0.4988(3) 0.1492(4) 0.6664(4)
C17 C 0.3572(4) 0.6022(5) 0.5502(3)
C18 C -0.1389(4) 1.2685(4) 0.0674(3)
C19 C 0.5637(4) -0.2249(5) 0.8492(4)
C20 C 0.5054(4) -0.2554(5) 0.8373(4)
C21 C 0.3334(4) 0.6350(4) 0.4939(3)
C22 C 0.4982(4) 0.2799(4) 0.5194(4)
C23 C 0.5130(4) 0.2166(5) 0.5056(5)
C24 C 0.0198(3) 0.9418(3) 0.2302(3)
O1A O -0.03772(19) 0.9895(2) 0.28160(19)
O4A O -0.0306(2) 0.8919(2) 0.28623(19)
C24A C -0.0198(3) 0.9418(3) 0.2698(3)
O6A O 0.5382(2) -0.0163(3) 0.7194(2)
O15A O 0.5335(2) -0.1143(3) 0.7165(2)
C4A C 0.5210(3) -0.0636(4) 0.7317(3)
Mn2A Mn -0.08392(6) 0.70278(6) 0.05965(5)
Mn4A Mn -0.24232(5) 0.31544(6) -0.00284(4)
Mn5A Mn -0.42994(7) 0.70298(9) -0.05409(7)
Cr2A Cr 0.04086(6) 1.21194(6) 0.42842(5)
Cr3A Cr -0.44026(6) 0.20554(7) -0.07064(7)
Cr4A Cr -0.25627(5) 0.55188(6) -0.00019(4)
O2A O -0.2272(2) 0.4909(2) -0.0410(2)
O3A O -0.2798(2) 0.4845(2) 0.0376(2)
O5A O -0.0401(2) 1.1342(2) 0.2852(2)
O7A O -0.2253(2) 0.6169(2) -0.03586(19)
O8A O -0.2723(2) 0.3868(2) 0.0405(2)
O9A O -0.2215(2) 0.3937(2) -0.0447(2)
O10A O -0.1851(2) 0.5588(2) 0.05953(19)
O11A O -0.0716(2) 0.8193(2) 0.1908(2)
O12A O -0.5336(2) 0.1305(3) -0.2096(3)
O13A O -0.0158(2) 1.2001(2) 0.3552(2)
O14A O -0.2904(2) 0.6118(3) 0.0388(2)
O16A O 0.1772(3) 1.2971(3) 0.4246(2)
O17A O 0.0682(2) 1.1346(2) 0.40972(19)
O18A O 0.0562(2) 1.0748(2) 0.3352(2)
O19A O -0.3287(2) 0.5587(3) -0.0590(2)
O20A O 0.0249(2) 0.7673(2) 0.2041(2)
O21A O 0.0999(2) 1.2201(2) 0.5003(2)
O22A O -0.1126(2) 0.6194(3) 0.0854(2)
O23A O -0.0105(2) 1.1801(2) 0.4699(2)
O24A O -0.3073(2) 0.2935(3) -0.0804(2)
O26A O -0.1586(2) 0.6842(3) -0.0088(2)
O28A O 0.0098(3) 1.2879(2) 0.4432(2)
O29A O -0.0089(3) 0.7112(3) 0.1281(3)
O30A O -0.2955(3) 0.2545(3) 0.0276(2)
O31A O 0.1827(2) 1.2629(2) 0.5325(2)
O32A O -0.4369(2) 0.0689(3) -0.1687(3)
O33A O 0.0947(2) 1.2520(3) 0.3951(2)
O34A O -0.0371(3) 1.3251(2) 0.5011(2)
O35A O -0.3772(3) 0.2100(3) -0.0023(3)
O36A O -0.3880(2) 0.2447(3) -0.1072(2)
O37A O -0.0650(3) 1.2127(3) 0.5227(2)
O38A O -0.5014(2) 0.1963(3) -0.1405(3)
O39A O -0.1112(2) 0.7602(3) 0.1184(2)
O40A O -0.4171(2) 0.1280(3) -0.0932(3)
O41A O -0.4898(3) 0.1760(3) -0.0261(3)
O43A O -0.5458(3) 0.2113(3) 0.0242(3)
O44A O -0.4660(3) 0.2829(3) -0.0527(3)
O45A O -0.4020(3) 0.6186(4) -0.0824(3)
O46A O -0.5171(3) 0.3220(3) 0.0005(3)
O47A O -0.3579(3) 0.6791(3) 0.0152(3)
C1A C -0.2348(3) 0.4388(4) -0.0254(3)
C2A C -0.2651(3) 0.4351(4) 0.0223(3)
C3A C -0.0090(3) 1.1534(3) 0.3298(3)
C5A C -0.1575(3) 0.6030(3) 0.0530(3)
C6A C -0.0707(3) 0.7786(4) 0.1560(3)
C7A C 0.0433(3) 1.1174(3) 0.3606(3)
C8A C -0.0196(4) 1.2833(4) 0.4779(3)
C9A C -0.1819(3) 0.6380(3) -0.0015(3)
C10A C -0.0130(3) 0.7492(4) 0.1627(3)
C11A C 0.1414(4) 1.2486(4) 0.4946(3)
C12A C -0.0332(4) 1.2202(4) 0.4922(3)
C13A C -0.4465(3) 0.1110(4) -0.1413(4)
C14A C -0.3380(4) 0.2407(4) -0.0087(4)
C15A C -0.3444(4) 0.2623(4) -0.0713(3)
C16A C -0.4988(3) 0.1492(4) -0.1664(4)
C17A C -0.3572(4) 0.6022(5) -0.0502(3)
C18A C 0.1389(4) 1.2685(4) 0.4326(3)
C21A C -0.3334(4) 0.6350(4) 0.0061(3)
C22A C -0.4982(4) 0.2799(4) -0.0194(4)
C23A C -0.5130(4) 0.2166(5) -0.0056(5)
O25A O 0.5296(2) 0.7613(3) 0.7076(3)
O27A O 0.4328(2) 0.8154(3) 0.6859(2)
O42A O 0.5016(3) 0.7079(4) 0.6290(3)
O48A O 0.3988(3) 0.7587(4) 0.6095(3)
C19A C 0.4363(4) 0.7751(5) 0.6508(4)
C20A C 0.4946(4) 0.7446(5) 0.6627(4)
Mn2B Mn -0.08392(6) 1.29722(6) 0.55965(5)
Mn2C Mn 0.08392(6) 1.29722(6) -0.05965(5)
Mn3_2 Mn -0.500 0.05789(9) -0.250
Mn4_2 Mn 0.24232(5) 1.31544(6) 0.50284(4)
Mn4A_2 Mn -0.24232(5) 1.31544(6) -0.00284(4)
Mn5A_2 Mn 0.57006(7) -0.29702(9) 0.94591(7)
Mn5B Mn 0.57006(7) 0.29702(9) 0.44591(7)
Mn5C Mn -0.57006(7) 0.29702(9) 0.05409(7)
Cr1_2 Cr 0.500 0.82108(10) 0.750
O12A_2 O 0.4664(2) 0.1305(3) 0.7904(3)
O16_2 O -0.1772(3) 0.2971(3) 0.0754(2)
O16A_2 O 0.1772(3) 0.2971(3) 0.4246(2)
O25A_2 O 0.5296(2) -0.2387(3) 0.7076(3)
O27A_2 O 0.4328(2) -0.1846(3) 0.6859(2)
O31_2 O -0.1827(2) 0.2629(2) -0.0325(2)
O31A_2 O 0.1827(2) 0.2629(2) 0.5325(2)
O32A_2 O 0.5631(2) 0.0689(3) 0.8313(3)
O34B O -0.0371(3) 0.6749(2) 0.0011(2)
O34C O 0.0371(3) 0.6749(2) 0.4989(2)
O37B O -0.0650(3) 0.7873(3) 0.0227(2)
O37C O 0.0650(3) 0.7873(3) 0.4773(2)
O42_2 O -0.5016(3) 0.7079(4) -0.1290(3)
O43B O 0.4542(3) 0.7887(3) 0.5242(3)
O43C O -0.4542(3) 0.7887(3) -0.0242(3)
O46B O 0.4829(3) 0.6780(3) 0.5005(3)
O46C O -0.4829(3) 0.6780(3) -0.0005(3)
O48_2 O -0.3988(3) 0.7587(4) -0.1095(3)
O49 O 0.1225(2) 0.4245(2) 0.16616(19)
O50 O 0.1753(2) 0.4471(3) 0.2706(2)
O51 O 0.0565(2) 0.5029(3) 0.0862(2)
O52 O 0.1928(3) 0.5613(3) 0.3073(2)
O53 O 0.0947(3) 0.6165(3) 0.1200(3)
O54 O 0.1645(3) 0.6473(3) 0.2268(3)
C25 C 0.1591(3) 0.3900(4) 0.2601(3)
C26 C 0.0980(3) 0.4658(4) 0.0742(3)
C27 C 0.0861(4) 0.5999(4) 0.0626(3)
C28 C 0.2083(3) 0.4605(4) 0.3279(3)
C29 C 0.1310(3) 0.3771(4) 0.2030(3)
C30 C 0.2350(4) 0.5172(5) 0.3272(3)
C31 C 0.0416(4) 0.5529(4) 0.0498(4)
C32 C 0.2149(5) 0.6185(5) 0.3166(4)
C33 C 0.1209(5) 0.6713(4) 0.1322(4)
C34 C 0.1673(4) 0.3459(4) 0.3003(3)
C35 C 0.1507(4) 0.2889(4) 0.2845(4)
C36 C 0.1145(4) 0.3196(4) 0.1880(4)
C37 C 0.1006(4) 0.4108(4) 0.1067(3)
C38 C 0.1247(5) 0.2762(5) 0.2291(4)
C39 C 0.1729(6) 0.6589(5) 0.2865(4)
C40 C 0.1286(6) 0.6851(5) 0.1932(5)
H1 H 0.13468 0.48569 0.08521
H2 H 0.08866 0.45725 0.03298
H3 H 0.12114 0.58459 0.05615
H4 H 0.07387 0.63405 0.03736
H5 H 0.23694 0.42989 0.34131
H6 H 0.18406 0.46171 0.35412
H7 H 0.25766 0.52721 0.36603
H8 H 0.2601 0.51557 0.30184
H9 H 0.0063 0.56956 0.05441
H10 H 0.03504 0.5403 0.00974
H11 H 0.2486 0.62179 0.3025
H12 H 0.22546 0.62757 0.35777
H13 H 0.09772 0.70187 0.10834
H14 H 0.15758 0.67048 0.12357
H15 H 0.18447 0.35475 0.33913
H16 H 0.15743 0.25867 0.31235
H17 H 0.0963 0.31021 0.14956
H18 H 0.06289 0.39348 0.09977
H19 H 0.12507 0.38219 0.0946
H20 H 0.11346 0.23711 0.21853
H21 H 0.18548 0.6998 0.29548
H22 H 0.13775 0.65302 0.2975
H23 H 0.14295 0.72548 0.20092
H24 H 0.0921 0.68295 0.20217
O55 O 0.0998(2) 1.0014(3) 0.5577(2)
O56 O 0.3153(2) 1.0437(3) 0.7102(2)
O57 O 0.1705(2) 0.9166(3) 0.6246(2)
O58 O 0.1392(3) 1.1151(3) 0.5997(2)
O59 O 0.2718(2) 0.9318(3) 0.6845(2)
O60 O 0.2425(3) 1.1360(3) 0.6789(3)
C41 C 0.0822(3) 0.9624(5) 0.5956(3)
C42 C 0.2057(4) 0.8681(4) 0.6312(3)
C43 C 0.2600(4) 0.8774(4) 0.6620(3)
C44 C 0.0680(4) 1.0537(4) 0.5424(3)
C45 C 0.0812(4) 1.1001(5) 0.5881(4)
C46 C 0.1125(3) 0.9063(4) 0.5970(3)
C47 C 0.1508(5) 1.1666(4) 0.6328(4)
C48 C 0.1893(5) 0.8128(5) 0.6084(4)
C49 C 0.3269(4) 0.9414(5) 0.7205(4)
C50 C 0.3258(4) 1.1003(5) 0.7365(4)
C51 C 0.3010(5) 1.1447(5) 0.6947(5)
C52 C 0.2290(6) 0.7678(5) 0.6182(5)
C53 C 0.2980(5) 0.8311(5) 0.6692(4)
C54 C 0.2121(5) 1.1801(4) 0.6433(4)
C55 C 0.3284(4) 0.9975(5) 0.7498(4)
C56 C 0.2825(5) 0.7769(5) 0.6479(5)
H25 H 0.04147 0.95575 0.58202
H26 H 0.09061 0.97963 0.6342
H27 H 0.02784 1.04376 0.53391
H28 H 0.07493 1.06978 0.50722
H29 H 0.05794 1.13517 0.5752
H30 H 0.07302 1.08515 0.62311
H31 H 0.09732 0.87645 0.61826
H32 H 0.10816 0.8917 0.5578
H33 H 0.14154 1.16079 0.66947
H34 H 0.12815 1.19952 0.61243
H35 H 0.15202 0.80577 0.58678
H36 H 0.3541 0.94175 0.69731
H37 H 0.33723 0.90934 0.7487
H38 H 0.36646 1.10698 0.7506
H39 H 0.30941 1.10256 0.76921
H40 H 0.31002 1.18429 0.71121
H41 H 0.31575 1.14126 0.66095
H42 H 0.21805 0.72982 0.60351
H43 H 0.3357 0.83772 0.68966
H44 H 0.22237 1.18104 0.60674
H45 H 0.22063 1.21888 0.66178
H46 H 0.30127 0.99687 0.77303
H47 H 0.36602 1.00382 0.7757
H48 H 0.30888 0.74589 0.65372
O61 O 0.1907(2) 0.9893(3) 0.8038(2)
O62 O 0.2482(2) 1.0884(3) 0.8494(2)
O63 O 0.2313(5) 0.8723(5) 0.8378(5)
O64 O 0.3495(7) 1.0831(10) 0.9096(8)
O65 O 0.4061(6) 0.9697(6) 0.9263(7)
O66 O 0.3489(4) 0.8810(5) 0.8551(5)
C57 C 0.1843(3) 1.0419(4) 0.7726(3)
C58 C 0.1718(3) 0.9401(4) 0.7693(3)
C59 C 0.1932(3) 1.0925(4) 0.8133(3)
C60 C 0.4015(6) 0.8720(7) 0.8901(7)
C61 C 0.1815(4) 0.8864(5) 0.8062(4)
C62 C 0.4325(8) 1.0269(9) 0.9301(9)
C63 C 0.3176(6) 0.8280(7) 0.8407(7)
C64 C 0.4329(7) 0.9263(7) 0.8994(7)
C65 C 0.2599(4) 1.1254(5) 0.8967(5)
C66 C 0.2396(11) 1.1978(12) 0.9576(12)
C67 C 0.2216(5) 1.1633(5) 0.9104(5)
C68 C 0.2930(11) 1.1959(11) 0.9916(10)
C69 C 0.2607(6) 0.8423(8) 0.8051(6)
C70 C 0.4007(7) 1.0658(9) 0.9628(8)
C71 C 0.3153(9) 1.1237(11) 0.9282(10)
C72 C 0.3319(10) 1.1588(11) 0.9785(9)
H49 H 0.2139 1.22415 0.96717
H50 H 0.30357 1.2201 1.02441
H51 H 0.36885 1.1567 1.00239
H52 H 0.42271 1.10032 0.98029
H53 H 0.38835 1.04358 0.99217
H54 H 0.42928 1.04295 0.89161
H55 H 0.47244 1.02424 0.95082
H56 H 0.47101 0.91869 0.92373
H57 H 0.43624 0.94159 0.8624
H58 H 0.42126 0.84279 0.87268
H59 H 0.39877 0.8563 0.92714
H60 H 0.31516 0.80758 0.87574
H61 H 0.33642 0.80168 0.81938
H62 H 0.26326 0.86692 0.77246
H63 H 0.24066 0.80585 0.79
H64 H 0.14638 1.04386 0.74626
H65 H 0.21171 1.04348 0.74976
H66 H 0.1923 0.93673 0.73976
H67 H 0.13158 0.94413 0.75005
H68 H 0.18833 1.12996 0.79212
H69 H 0.16583 1.09105 0.83622
H70 H 0.15706 0.88985 0.83205
H71 H 0.16772 0.85265 0.78093
H72 H 0.18417 1.16517 0.88758
O67 O 0.3530(6) 0.3781(6) 0.3489(5)
O68 O 0.3440(8) 0.5868(6) 0.2440(6)
O69 O 0.2969(5) 0.4885(5) 0.1894(4)
O70 O 0.4134(7) 0.5739(8) 0.3444(6)
O71 O 0.4310(5) 0.4775(6) 0.4093(4)
O72 O 0.3277(5) 0.3680(6) 0.2282(5)
C73 C 0.4127(9) 0.5311(8) 0.4299(7)
C74 C 0.2609(6) 0.4437(7) 0.1734(6)
C75 C 0.4008(9) 0.4267(9) 0.4378(8)
C76 C 0.3001(8) 0.3819(8) 0.1765(7)
C77 C 0.4000(10) 0.3802(9) 0.3923(6)
C78 C 0.3078(8) 0.5895(8) 0.1924(7)
C79 C 0.3893(9) 0.6273(8) 0.2601(8)
C80 C 0.3997(10) 0.6645(9) 0.2235(8)
C81 C 0.4465(9) 0.7009(9) 0.2432(8)
C82 C 0.2984(9) 0.3396(8) 0.2603(8)
C83 C 0.4408(9) 0.5774(10) 0.4031(7)
C84 C 0.4816(9) 0.6943(9) 0.2975(8)
C85 C 0.4741(9) 0.6495(9) 0.3301(8)
C86 C 0.2656(7) 0.5430(7) 0.1824(7)
C87 C 0.3344(9) 0.3294(8) 0.3169(8)
C88 C 0.4258(10) 0.6155(7) 0.3127(7)
H73 H 0.3767 0.66692 0.18556
H74 H 0.45417 0.73041 0.21888
H75 H 0.5109 0.72147 0.31158
H76 H 0.50127 0.64094 0.36463
H77 H 0.32863 0.5868 0.16311
H78 H 0.28878 0.62797 0.18802
H79 H 0.24312 0.54552 0.21025
H80 H 0.24033 0.54586 0.14351
H81 H 0.23715 0.44992 0.13421
H82 H 0.23645 0.44029 0.19935
H83 H 0.2754 0.34894 0.15964
H84 H 0.32687 0.38787 0.15339
H85 H 0.28439 0.3018 0.24224
H86 H 0.26601 0.36361 0.26273
H87 H 0.31402 0.30458 0.33791
H88 H 0.36727 0.30689 0.31326
H89 H 0.43198 0.38751 0.37623
H90 H 0.40576 0.3414 0.41098
H91 H 0.42345 0.41475 0.47601
H92 H 0.36282 0.43803 0.43947
H93 H 0.42508 0.53321 0.472
H94 H 0.37159 0.53497 0.41729
H95 H 0.43604 0.61669 0.41835
H96 H 0.48111 0.56914 0.41016
O73 O 0.0927(3) 0.9563(3) 0.3675(3)
C89 C 0.0736(4) 0.9318(5) 0.4104(4)
H97 H 0.08942 0.89258 0.4191
H98 H 0.03279 0.92919 0.39817
H99 H 0.08485 0.95642 0.44455
H100 H 0.08718 0.99265 0.36648
N1 N 0.2872(3) 0.9719(3) 0.9018(2)
N2 N 0.2227(3) 0.9719(3) 1.1086(2)
C90 C 0.2408(3) 0.9724(4) 1.0556(3)
C91 C 0.2712(3) 0.9709(4) 0.9561(3)
C92 C 0.2918(3) 0.9512(4) 1.0553(3)
C93 C 0.3070(3) 0.9497(4) 1.0040(3)
C94 C 0.2049(4) 0.9947(4) 1.0071(3)
C95 C 0.2203(4) 0.9945(5) 0.9561(3)
H101 H 0.18833 0.98863 1.10196
H102 H 0.24745 0.99259 1.13598
H103 H 0.22112 0.93436 1.12044
H104 H 0.16983 1.0102 1.0083
H105 H 0.19624 1.01015 0.92231
H106 H 0.34197 0.93396 1.00286
H107 H 0.31681 0.93757 1.08947
H108 H 0.25887 0.98756 0.87395
H109 H 0.29408 0.93477 0.89197
H110 H 0.31841 0.9941 0.90594
N3 N 0.3980(3) 0.4692(4) 0.2831(3)
C96 C 0.4514(4) 0.4659(5) 0.2669(4)
C97 C 0.5018(5) 0.4659(7) 0.3058(4)
C98 C 0.4490(5) 0.4656(7) 0.2102(5)
H111 H 0.50327 0.4661 0.34512
H112 H 0.41406 0.46518 0.18232
H113 H 0.36905 0.47052 0.25115
H114 H 0.39779 0.50197 0.30425
H115 H 0.39451 0.437 0.30394
N3A N 0.6020(3) 0.4692(4) 0.2169(3)
C96A C 0.5486(4) 0.4659(5) 0.2331(4)
C97A C 0.4982(5) 0.4659(7) 0.1942(4)
C98A C 0.5510(5) 0.4656(7) 0.2898(5)
H111A H 0.49673 0.4661 0.15488
H112A H 0.58594 0.46518 0.31768
H113A H 0.63095 0.47052 0.24885
H114A H 0.60221 0.50197 0.19575
H115A H 0.60549 0.437 0.19606
N4 N 0.0976(3) 0.5381(3) 0.2107(3)
C99 C 0.0468(3) 0.5391(3) 0.2307(3)
C100 C -0.0040(4) 0.5416(5) 0.1926(3)
C101 C 0.0519(4) 0.5406(5) 0.2885(3)
H116 H -0.00683 0.5441 0.153
H117 H 0.08764 0.54099 0.31497
H118 H 0.12812 0.53619 0.24122
H119 H 0.09932 0.57131 0.19059
H120 H 0.09692 0.50632 0.18809
N4A N -0.0976(3) 0.5381(3) 0.2893(3)
C99A C -0.0468(3) 0.5391(3) 0.2693(3)
C100A C 0.0040(4) 0.5416(5) 0.3074(3)
C101A C -0.0519(4) 0.5406(5) 0.2115(3)
H116A H 0.00683 0.5441 0.347
H117A H -0.08764 0.54099 0.18503
H118A H -0.12812 0.53619 0.25878
H119A H -0.09932 0.57131 0.30941
H120A H -0.09692 0.50632 0.31191
N5 N 0.1161(10) 0.4322(11) 0.4348(8)
C102 C 0.0799(10) 0.4119(12) 0.3935(11)
C103 C 0.0326(9) 0.3788(9) 0.3342(10)
H121 H 0.05215 0.369 0.30545
H122 H 0.00209 0.40603 0.31792
H123 H 0.01744 0.34299 0.34648
N6 N 0.7306(10) 0.2406(10) 0.7159(8)
C104 C 0.6885(12) 0.2421(13) 0.6783(10)
C105 C 0.6394(10) 0.2412(12) 0.6337(9)
H124 H 0.60704 0.23969 0.64935
H125 H 0.63942 0.2067 0.60982
H126 H 0.63746 0.27673 0.61064
O74 O 0.3969(13) 0.9250(12) 0.5917(13)
H127 H 0.38094 0.89743 0.60388
C106 C 0.4237(10) 0.9555(12) 0.6327(10)
H128 H 0.44675 0.92998 0.66198
H129 H 0.39751 0.97727 0.64876
H130 H 0.44761 0.98308 0.6194
O75? O 0.3843(13) 0.3705(13) 0.4004(13)
O76? O 0.3240(7) 0.5475(8) 0.2331(7)
O77? O 0.3157(7) 0.4345(8) 0.1958(7)
O78? O 0.3878(10) 0.5740(10) 0.3376(8)
O79? O 0.4280(12) 0.5075(12) 0.4362(12)
O80? O 0.3593(11) 0.3539(12) 0.2769(10)
C107? C 0.4574(8) 0.5446(12) 0.4082(8)
C108? C 0.2822(13) 0.3864(13) 0.1975(12)
C109? C 0.4609(13) 0.4452(12) 0.4536(15)
C110? C 0.3095(13) 0.3718(17) 0.2702(11)
C111? C 0.4104(17) 0.4102(17) 0.433(2)
C112? C 0.2913(12) 0.5372(13) 0.1802(11)
C113? C 0.3454(16) 0.6059(11) 0.2452(12)
C114? C 0.3326(10) 0.6444(9) 0.2052(9)
C115? C 0.3567(12) 0.7018(11) 0.2133(10)
C116? C 0.3952(14) 0.3301(18) 0.3220(13)
C117? C 0.4148(15) 0.5934(12) 0.3944(10)
C118? C 0.3915(12) 0.7139(11) 0.2673(10)
C119? C 0.4022(12) 0.6714(10) 0.3075(10)
C120? C 0.2712(12) 0.4782(11) 0.1757(13)
C121? C 0.3661(17) 0.3274(16) 0.3669(15)
C122? C 0.3802(11) 0.6153(9) 0.2997(8)
H131? H 0.30692 0.63467 0.16993
H132? H 0.34939 0.7301 0.18357
H133? H 0.40753 0.75166 0.2758
H134? H 0.42656 0.68076 0.34365
H135? H 0.31281 0.54387 0.15196
H136? H 0.25931 0.56466 0.17166
H137? H 0.25171 0.4699 0.13546
H138? H 0.24364 0.47425 0.19825
H139? H 0.28856 0.35382 0.17312
H140? H 0.24206 0.39649 0.18764
H141? H 0.30924 0.40773 0.29285
H142? H 0.28704 0.34144 0.28282
H143? H 0.4292 0.35446 0.33434
H144? H 0.4061 0.29034 0.31283
H145? H 0.32531 0.33071 0.35032
H146? H 0.37409 0.28983 0.3878
H147? H 0.40695 0.39471 0.47021
H148? H 0.3824 0.44195 0.42404
H149? H 0.48891 0.43755 0.43228
H150? H 0.47793 0.44125 0.495
H151? H 0.46354 0.52631 0.37354
H152? H 0.49338 0.55768 0.43359
H153? H 0.38936 0.59316 0.41947
H154? H 0.43215 0.63247 0.39508
O81? O 0.2495(8) 0.8808(8) 0.8188(7)
O82? O 0.3457(9) 1.0738(14) 0.9245(11)
O83? O 0.4150(11) 0.9867(11) 0.9385(12)
O84? O 0.3551(7) 0.8811(7) 0.8945(8)
C123? C 0.4112(9) 0.8817(12) 0.9107(14)
C124? C 0.4297(13) 1.0389(12) 0.9102(15)
C125? C 0.3308(9) 0.8295(10) 0.8654(11)
C126? C 0.4385(13) 0.9365(12) 0.9180(16)
C127? C 0.2336(14) 1.1895(16) 0.9708(19)
C128? C 0.2829(14) 1.1763(15) 1.0085(15)
C129? C 0.2689(9) 0.8322(10) 0.8546(9)
C130? C 0.4092(9) 1.0916(12) 0.9377(13)
C131? C 0.3101(12) 1.1128(16) 0.9412(14)
C132? C 0.3217(13) 1.1391(14) 0.9962(13)
H155? H 0.20721 1.2142 0.98121
H156? H 0.29116 1.19363 1.04518
H157? H 0.35564 1.131 1.02407
H158? H 0.41446 1.12897 0.91923
H159? H 0.42715 1.09397 0.97911
H160? H 0.41133 1.03775 0.86881
H161? H 0.47056 1.04109 0.9158
H162? H 0.44426 0.94738 0.88069
H163? H 0.47591 0.93019 0.94425
H164? H 0.42452 0.85929 0.88218
H165? H 0.42338 0.86015 0.94719
H166? H 0.34545 0.79465 0.88877
H167? H 0.34081 0.82615 0.82887
H168? H 0.25183 0.7957 0.83592
H169? H 0.25876 0.83668 0.89091
loop_
_geom_bond_atom_site_label_1
_geom_bond_atom_site_label_2
_geom_bond_site_symmetry_1
_geom_bond_site_symmetry_2
Mn1 O1 1_555 1_555
Mn2 O22 1_555 1_555
Mn3 O6 1_555 1_555
Mn4 O8 1_555 1_555
Mn5 O45 1_555 1_555
Cr1 O15 1_555 1_555
Cr2 O13 1_555 1_555
Cr3 O35 1_555 1_555
Cr4 O2 1_555 1_555
Cr5 O4 1_555 1_555
O1 C24 1_555 1_555
O2 C1 1_555 1_555
O3 Cr4 1_555 1_555
O4 C24 1_555 1_555
O5 Mn1 1_555 1_555
O6 C4 1_555 1_555
O7 Cr4 1_555 1_555
O8 C2 1_555 1_555
O9 Mn4 1_555 1_555
O10 Cr4 1_555 1_555
O11 Cr5 1_555 1_555
O12 Mn3 1_555 1_555
O13 C3 1_555 1_555
O14 Cr4 1_555 1_555
O15 C4 1_555 1_555
O16 C18 1_555 1_555
O17 Cr2 1_555 1_555
O18 Mn1 1_555 1_555
O19 Cr4 1_555 1_555
O20 Cr5 1_555 1_555
O21 Cr2 1_555 1_555
O22 C5 1_555 1_555
O23 Cr2 1_555 1_555
O24 Mn4 1_555 1_555
O25 Cr1 1_555 1_555
O26 Mn2 1_555 1_555
O27 Cr1 1_555 1_555
O28 Cr2 1_555 1_555
O29 Mn2 1_555 1_555
O30 Mn4 1_555 1_555
O31 C11 1_555 1_555
O32 Mn3 1_555 1_555
O33 Cr2 1_555 1_555
O34 C8 1_555 1_555
O35 C14 1_555 1_555
O36 Cr3 1_555 1_555
O37 C12 1_555 1_555
O38 Cr3 1_555 1_555
O39 Mn2 1_555 1_555
O40 Cr3 1_555 1_555
O41 Cr3 1_555 1_555
O42 C20 1_555 1_555
O43 C23 1_555 1_555
O44 Cr3 1_555 1_555
O45 C17 1_555 1_555
O46 C22 1_555 1_555
O47 Mn5 1_555 1_555
O48 C19 1_555 1_555
C1 O9 1_555 1_555
C2 O3 1_555 1_555
C3 O5 1_555 1_555
C4 C4A 1_555 1_555
C5 O10 1_555 1_555
C6 O11 1_555 1_555
C7 O17 1_555 1_555
C8 O28 1_555 1_555
C9 O7 1_555 1_555
C10 O20 1_555 1_555
C11 O21 1_555 1_555
C12 O23 1_555 1_555
C13 O32 1_555 1_555
C14 O30 1_555 1_555
C15 O24 1_555 1_555
C16 O12 1_555 1_555
C17 O19 1_555 1_555
C18 O33 1_555 1_555
C19 O27 1_555 1_555
C20 O25 1_555 1_555
C21 O14 1_555 1_555
C22 O44 1_555 1_555
C23 O41 1_555 1_555
C24 C24A 1_555 1_555
O49 C29 1_555 1_555
O50 C25 1_555 1_555
O51 C26 1_555 1_555
O52 C30 1_555 1_555
O53 C27 1_555 1_555
O54 C39 1_555 1_555
C25 C29 1_555 1_555
C26 C37 1_555 1_555
C27 C31 1_555 1_555
C28 O50 1_555 1_555
C29 C36 1_555 1_555
C30 C28 1_555 1_555
C31 O51 1_555 1_555
C32 O52 1_555 1_555
C33 O53 1_555 1_555
C34 C25 1_555 1_555
C35 C34 1_555 1_555
C36 C38 1_555 1_555
C37 O49 1_555 1_555
C38 C35 1_555 1_555
C39 C32 1_555 1_555
C40 O54 1_555 1_555
H1 C26 1_555 1_555
H2 C26 1_555 1_555
H3 C27 1_555 1_555
H4 C27 1_555 1_555
H5 C28 1_555 1_555
H6 C28 1_555 1_555
H7 C30 1_555 1_555
H8 C30 1_555 1_555
H9 C31 1_555 1_555
H10 C31 1_555 1_555
H11 C32 1_555 1_555
H12 C32 1_555 1_555
H13 C33 1_555 1_555
H14 C33 1_555 1_555
H15 C34 1_555 1_555
H16 C35 1_555 1_555
H17 C36 1_555 1_555
H18 C37 1_555 1_555
H19 C37 1_555 1_555
H20 C38 1_555 1_555
H21 C39 1_555 1_555
H22 C39 1_555 1_555
H23 C40 1_555 1_555
H24 C40 1_555 1_555
O55 C41 1_555 1_555
O56 C50 1_555 1_555
O57 C42 1_555 1_555
O58 C45 1_555 1_555
O59 C43 1_555 1_555
O60 C51 1_555 1_555
C41 C46 1_555 1_555
C42 C43 1_555 1_555
C43 C53 1_555 1_555
C44 O55 1_555 1_555
C45 C44 1_555 1_555
C46 O57 1_555 1_555
C47 O58 1_555 1_555
C48 C42 1_555 1_555
C49 O59 1_555 1_555
C50 C51 1_555 1_555
C51 H40 1_555 1_555
C52 C48 1_555 1_555
C53 C56 1_555 1_555
C54 O60 1_555 1_555
C55 O56 1_555 1_555
C56 C52 1_555 1_555
H25 C41 1_555 1_555
H26 C41 1_555 1_555
H27 C44 1_555 1_555
H28 C44 1_555 1_555
H29 C45 1_555 1_555
H30 C45 1_555 1_555
H31 C46 1_555 1_555
H32 C46 1_555 1_555
H33 C47 1_555 1_555
H34 C47 1_555 1_555
H35 C48 1_555 1_555
H36 C49 1_555 1_555
H37 C49 1_555 1_555
H38 C50 1_555 1_555
H39 C50 1_555 1_555
H41 C51 1_555 1_555
H42 C52 1_555 1_555
H43 C53 1_555 1_555
H44 C54 1_555 1_555
H45 C54 1_555 1_555
H46 C55 1_555 1_555
H47 C55 1_555 1_555
H48 C56 1_555 1_555
O61 C57 1_555 1_555
O62 C59 1_555 1_555
O63 C61 1_555 1_555
O64 C70 1_555 1_555
O65 C62 1_555 1_555
O66 C60 1_555 1_555
C57 C59 1_555 1_555
C58 O61 1_555 1_555
C59 H68 1_555 1_555
C60 C64 1_555 1_555
C61 C58 1_555 1_555
C62 C70 1_555 1_555
C63 O66 1_555 1_555
C64 O65 1_555 1_555
C65 O62 1_555 1_555
C66 C67 1_555 1_555
C67 C65 1_555 1_555
C68 C66 1_555 1_555
C69 O63 1_555 1_555
C70 H52 1_555 1_555
C71 O64 1_555 1_555
C72 C68 1_555 1_555
H49 C66 1_555 1_555
H50 C68 1_555 1_555
H51 C72 1_555 1_555
H53 C70 1_555 1_555
H54 C62 1_555 1_555
H55 C62 1_555 1_555
H56 C64 1_555 1_555
H57 C64 1_555 1_555
H58 C60 1_555 1_555
H59 C60 1_555 1_555
H60 C63 1_555 1_555
H61 C63 1_555 1_555
H62 C69 1_555 1_555
H63 C69 1_555 1_555
H64 C57 1_555 1_555
H65 C57 1_555 1_555
H66 C58 1_555 1_555
H67 C58 1_555 1_555
H69 C59 1_555 1_555
H70 C61 1_555 1_555
H71 C61 1_555 1_555
H72 C67 1_555 1_555
O67 C77 1_555 1_555
O68 C78 1_555 1_555
O69 C74 1_555 1_555
O70 C83 1_555 1_555
O71 C73 1_555 1_555
O72 C76 1_555 1_555
C73 C83 1_555 1_555
C74 C76 1_555 1_555
C75 O71 1_555 1_555
C76 H83 1_555 1_555
C77 C75 1_555 1_555
C78 C86 1_555 1_555
C79 O68 1_555 1_555
C80 C79 1_555 1_555
C81 C80 1_555 1_555
C82 O72 1_555 1_555
C83 H95 1_555 1_555
C84 C81 1_555 1_555
C85 C84 1_555 1_555
C86 O69 1_555 1_555
C87 O67 1_555 1_555
C88 O70 1_555 1_555
H73 C80 1_555 1_555
H74 C81 1_555 1_555
H75 C84 1_555 1_555
H76 C85 1_555 1_555
H77 C78 1_555 1_555
H78 C78 1_555 1_555
H79 C86 1_555 1_555
H80 C86 1_555 1_555
H81 C74 1_555 1_555
H82 C74 1_555 1_555
H84 C76 1_555 1_555
H85 C82 1_555 1_555
H86 C82 1_555 1_555
H87 C87 1_555 1_555
H88 C87 1_555 1_555
H89 C77 1_555 1_555
H90 C77 1_555 1_555
H91 C75 1_555 1_555
H92 C75 1_555 1_555
H93 C73 1_555 1_555
H94 C73 1_555 1_555
H96 C83 1_555 1_555
O73 C89 1_555 1_555
C89 H97 1_555 1_555
H98 C89 1_555 1_555
H99 C89 1_555 1_555
H100 O73 1_555 1_555
N1 C91 1_555 1_555
N2 C90 1_555 1_555
C90 C92 1_555 1_555
C91 C93 1_555 1_555
C92 C93 1_555 1_555
C93 H106 1_555 1_555
C94 C90 1_555 1_555
C95 C91 1_555 1_555
H101 N2 1_555 1_555
H102 N2 1_555 1_555
H103 N2 1_555 1_555
H104 C94 1_555 1_555
H105 C95 1_555 1_555
H107 C92 1_555 1_555
H108 N1 1_555 1_555
H109 N1 1_555 1_555
H110 N1 1_555 1_555
N3 C96 1_555 1_555
C96 C97 1_555 1_555
C97 H111 1_555 1_555
C98 C96 1_555 1_555
H112 C98 1_555 1_555
H113 N3 1_555 1_555
H114 N3 1_555 1_555
H115 N3 1_555 1_555
N4 C99 1_555 1_555
C99 C100 1_555 1_555
C100 H116 1_555 1_555
C101 C99 1_555 1_555
H117 C101 1_555 1_555
H118 N4 1_555 1_555
H119 N4 1_555 1_555
H120 N4 1_555 1_555
N5 C102 1_555 1_555
C102 C103 1_555 1_555
C103 H121 1_555 1_555
H122 C103 1_555 1_555
H123 C103 1_555 1_555
N6 C104 1_555 1_555
C104 C105 1_555 1_555
C105 H124 1_555 1_555
H125 C105 1_555 1_555
H126 C105 1_555 1_555
O74 H127 1_555 1_555
C106 O74 1_555 1_555
H128 C106 1_555 1_555
H129 C106 1_555 1_555
H130 C106 1_555 1_555
O1A Mn1 1_555 1_555
O4A Cr5 1_555 1_555
C24A O1A 1_555 1_555
O6A Mn3 1_555 1_555
O15A Cr1 1_555 1_555
C4A O6A 1_555 1_555
Mn2A O22A 1_555 1_555
Mn4A O8A 1_555 1_555
Mn5A O45A 1_555 1_555
Cr2A O13A 1_555 1_555
Cr3A O35A 1_555 1_555
Cr4A O2A 1_555 1_555
O2A C1A 1_555 1_555
O3A Cr4A 1_555 1_555
O5A Mn1 1_555 1_555
O7A Cr4A 1_555 1_555
O8A C2A 1_555 1_555
O9A Mn4A 1_555 1_555
O10A Cr4A 1_555 1_555
O11A Cr5 1_555 1_555
O12A C16A 1_555 1_555
O13A C3A 1_555 1_555
O14A Cr4A 1_555 1_555
O16A C18A 1_555 1_555
O17A Cr2A 1_555 1_555
O18A Mn1 1_555 1_555
O19A Cr4A 1_555 1_555
O20A Cr5 1_555 1_555
O21A Cr2A 1_555 1_555
O22A C5A 1_555 1_555
O23A Cr2A 1_555 1_555
O24A Mn4A 1_555 1_555
O26A Mn2A 1_555 1_555
O28A Cr2A 1_555 1_555
O29A Mn2A 1_555 1_555
O30A Mn4A 1_555 1_555
O31A C11A 1_555 1_555
O32A C13A 1_555 1_555
O33A Cr2A 1_555 1_555
O34A C8A 1_555 1_555
O35A C14A 1_555 1_555
O36A Cr3A 1_555 1_555
O37A C12A 1_555 1_555
O38A Cr3A 1_555 1_555
O39A Mn2A 1_555 1_555
O40A Cr3A 1_555 1_555
O41A Cr3A 1_555 1_555
O43A C23A 1_555 1_555
O44A Cr3A 1_555 1_555
O45A C17A 1_555 1_555
O46A C22A 1_555 1_555
O47A Mn5A 1_555 1_555
C1A O9A 1_555 1_555
C2A O3A 1_555 1_555
C3A O5A 1_555 1_555
C5A O10A 1_555 1_555
C6A O11A 1_555 1_555
C7A O17A 1_555 1_555
C8A O28A 1_555 1_555
C9A O7A 1_555 1_555
C10A O20A 1_555 1_555
C11A O21A 1_555 1_555
C12A O23A 1_555 1_555
C13A O40A 1_555 1_555
C14A O30A 1_555 1_555
C15A O24A 1_555 1_555
C16A O38A 1_555 1_555
C17A O19A 1_555 1_555
C18A O33A 1_555 1_555
C21A O14A 1_555 1_555
C22A O44A 1_555 1_555
C23A O41A 1_555 1_555
O25A C20A 1_555 1_555
O27A C19A 1_555 1_555
O42A Mn5 1_555 1_555
O48A Mn5 1_555 1_555
C19A O48A 1_555 1_555
C20A O42A 1_555 1_555
Mn2B O34A 1_555 1_555
Mn2C O34 1_555 1_555
Mn3_2 O12A 1_555 1_555
Mn4_2 O16A 1_555 1_555
Mn4A_2 O16 1_555 1_555
Mn5A_2 O42 1_555 1_555
Mn5B O43 1_555 1_555
Mn5C O43A 1_555 1_555
Cr1_2 O25A 1_555 1_555
O12A_2 Mn3 1_555 1_555
O16_2 Mn4A 1_555 1_555
O16A_2 Mn4 1_555 1_555
O25A_2 Cr1 1_555 1_555
O27A_2 Cr1 1_555 1_555
O31_2 Mn4A 1_555 1_555
O31A_2 Mn4 1_555 1_555
O32A_2 Mn3 1_555 1_555
O34B Mn2A 1_555 1_555
O34C Mn2 1_555 1_555
O37B Mn2A 1_555 1_555
O37C Mn2 1_555 1_555
O42_2 Mn5A 1_555 1_555
O43B Mn5 1_555 1_555
O43C Mn5A 1_555 1_555
O46B Mn5 1_555 1_555
O46C Mn5A 1_555 1_555
O48_2 Mn5A 1_555 1_555
N3A C96A 1_555 1_555
C96A C97A 1_555 1_555
C97A C98 1_555 1_555
C98A C97 1_555 1_555
H111A C97A 1_555 1_555
H112A C98A 1_555 1_555
H113A N3A 1_555 1_555
H114A N3A 1_555 1_555
H115A N3A 1_555 1_555
N4A C99A 1_555 1_555
C99A C100A 1_555 1_555
C100A C101 1_555 1_555
C101A C100 1_555 1_555
H116A C100A 1_555 1_555
H117A C101A 1_555 1_555
H118A N4A 1_555 1_555
H119A N4A 1_555 1_555
H120A N4A 1_555 1_555
O18 C7 1_555 1_555
O26 C9 1_555 1_555
O29 C10 1_555 1_555
O31 Mn4A_2 1_555 1_555
O36 C15 1_555 1_555
O37 Mn2C 1_555 1_555
O38 C16 1_555 1_555
O39 C6 1_555 1_555
O40 C13 1_555 1_555
O46 Mn5B 1_555 1_555
O47 C21 1_555 1_555
O48 Mn5A_2 1_555 1_555
C1 C2 1_555 1_555
C3 C7 1_555 1_555
C5 C9 1_555 1_555
C6 C10 1_555 1_555
C8 C12 1_555 1_555
C11 C18 1_555 1_555
C13 C16 1_555 1_555
C14 C15 1_555 1_555
C17 C21 1_555 1_555
C19 C20 1_555 1_555
C22 C23 1_555 1_555
C33 C40 1_555 1_555
C47 C54 1_555 1_555
C49 C55 1_555 1_555
C63 C69 1_555 1_555
C65 C71 1_555 1_555
C71 C72 1_555 1_555
C79 C88 1_555 1_555
C82 C87 1_555 1_555
C85 C88 1_555 1_555
C94 C95 1_555 1_555
O4A C24A 1_555 1_555
O15A C4A 1_555 1_555
O18A C7A 1_555 1_555
O26A C9A 1_555 1_555
O29A C10A 1_555 1_555
O31A Mn4_2 1_555 1_555
O32A Mn3_2 1_555 1_555
O36A C15A 1_555 1_555
O37A Mn2B 1_555 1_555
O39A C6A 1_555 1_555
O46A Mn5C 1_555 1_555
O47A C21A 1_555 1_555
C1A C2A 1_555 1_555
C3A C7A 1_555 1_555
C5A C9A 1_555 1_555
C6A C10A 1_555 1_555
C8A C12A 1_555 1_555
C11A C18A 1_555 1_555
C13A C16A 1_555 1_555
C14A C15A 1_555 1_555
C17A C21A 1_555 1_555
C22A C23A 1_555 1_555
O27A Cr1_2 1_555 1_555
C19A C20A 1_555 1_555
C96A C98A 1_555 1_555
C99A C101A 1_555 1_555

#END
