
#######################################################################
#
#                 Cambridge Crystallographic Data Centre
#                                CCDC 
#
#######################################################################
#
# If this CIF has been generated from an entry in the Cambridge 
# Structural Database, then it will include bibliographic, chemical, 
# crystal, experimental, refinement or atomic coordinate data resulting 
# from the CCDC's data processing and validation procedures.
#
#######################################################################

data_RUGKOV
_symmetry_cell_setting           orthorhombic
_symmetry_space_group_name_H-M   'P 21 21 2'
_symmetry_Int_Tables_number      18
_space_group_name_Hall           'P 2 2ab'
loop_
_symmetry_equiv_pos_site_id
_symmetry_equiv_pos_as_xyz
1 x,y,z
2 -x,-y,z
3 1/2-x,1/2+y,-z
4 1/2+x,1/2-y,-z
_cell_length_a                   20.1049(18)
_cell_length_b                   12.7575(15)
_cell_length_c                   14.4270(12)
_cell_angle_alpha                90
_cell_angle_beta                 90
_cell_angle_gamma                90
_cell_volume                     3700.36
loop_
_atom_site_label
_atom_site_type_symbol
_atom_site_fract_x
_atom_site_fract_y
_atom_site_fract_z
Zn1 Zn 0.23262(4) 0.70643(5) 0.33937(4)
Zn2 Zn 0.26797(3) 0.53213(5) 0.17437(5)
Zn3 Zn 0.0000 0.5000 -0.00194(7)
N1 N 0.1710(2) 0.5686(4) 0.1569(4)
N2 N 0.2751(3) 0.4886(4) 0.3075(3)
N3 N 0.1837(2) 0.1690(4) -0.1738(4)
N4 N 0.0699(2) 0.5655(4) 0.0834(4)
O1 O 0.0474(2) 0.3692(5) -0.0381(4)
C1 C 0.0702(3) 0.6404(5) 0.1545(5)
N5 N 0.2554(3) 0.5594(4) 0.3739(4)
N6 N 0.1989(3) 0.2377(4) -0.2421(3)
O2 O 0.2660(4) 0.3455(6) 0.5932(5)
O3 O 0.3050(5) 0.2335(6) 0.4929(7)
C2 C 0.1397(3) 0.2137(6) -0.1174(4)
H1 H 0.1213 0.1823 -0.0652
C3 C 0.2570(4) 0.5086(7) 0.4559(5)
H2 H 0.2461 0.5383 0.5128
C4 C 0.2772(4) 0.4069(7) 0.4433(6)
C5 C 0.1298(3) 0.6395(5) 0.1979(4)
C6 C 0.1649(4) 0.3234(6) -0.2259(5)
H3 H 0.1674 0.3832 -0.2626
C7 C 0.0812(4) 0.3966(7) -0.1083(6)
N7 N 0.1443(3) 0.7007(4) 0.2723(4)
C8 C 0.1329(3) 0.5248(6) 0.0902(4)
H4 H 0.1482 0.4714 0.0519
N8 N -0.0379(3) 0.7258(7) 0.1388(5)
H5 H -0.0650 0.7741 0.1561
H6 H -0.0478 0.6862 0.0925
C9 C 0.1253(4) 0.3151(6) -0.1487(5)
C10 C 0.0944(4) 0.7630(7) 0.2962(6)
H7 H 0.1015 0.8048 0.3481
O4 O 0.0796(4) 0.4816(5) -0.1374(4)
C11 C 0.2866(4) 0.3997(6) 0.3508(6)
H8 H 0.2997 0.3385 0.3209
C12 C 0.0210(4) 0.7120(7) 0.1847(6)
N9 N 0.0350(4) 0.7733(6) 0.2550(5)
O5 O 0.2916(4) 0.4179(10) 0.0770(7)
H9 H 0.2602 0.3931 0.0383
H10 H 0.3332 0.3919 0.0747
C13 C 0.2836(4) 0.3251(10) 0.5107(9)
Zn1A Zn -0.23262(4) 0.29357(5) 0.33937(4)
Zn2A Zn -0.26797(3) 0.46787(5) 0.17437(5)
N1A N -0.1710(2) 0.4314(4) 0.1569(4)
N2A N -0.2751(3) 0.5114(4) 0.3075(3)
N3A N -0.1837(2) 0.8310(4) -0.1738(4)
N4A N -0.0699(2) 0.4345(4) 0.0834(4)
O1A O -0.0474(2) 0.6308(5) -0.0381(4)
C1A C -0.0702(3) 0.3596(5) 0.1545(5)
N5A N -0.2554(3) 0.4406(4) 0.3739(4)
N6A N -0.1989(3) 0.7623(4) -0.2421(3)
O2A O -0.2660(4) 0.6545(6) 0.5932(5)
O3A O -0.3050(5) 0.7665(6) 0.4929(7)
C2A C -0.1397(3) 0.7863(6) -0.1174(4)
H1A H -0.1213 0.8177 -0.0652
C3A C -0.2570(4) 0.4914(7) 0.4559(5)
H2A H -0.2461 0.4617 0.5128
C4A C -0.2772(4) 0.5931(7) 0.4433(6)
C5A C -0.1298(3) 0.3605(5) 0.1979(4)
C6A C -0.1649(4) 0.6766(6) -0.2259(5)
H3A H -0.1674 0.6168 -0.2626
C7A C -0.0812(4) 0.6034(7) -0.1083(6)
N7A N -0.1443(3) 0.2993(4) 0.2723(4)
C8A C -0.1329(3) 0.4752(6) 0.0902(4)
H4A H -0.1482 0.5286 0.0519
N8A N 0.0379(3) 0.2742(7) 0.1388(5)
H5A H 0.0650 0.2259 0.1561
H6A H 0.0478 0.3138 0.0925
C9A C -0.1253(4) 0.6849(6) -0.1487(5)
C10A C -0.0944(4) 0.2370(7) 0.2962(6)
H7A H -0.1015 0.1952 0.3481
O4A O -0.0796(4) 0.5184(5) -0.1374(4)
C11A C -0.2866(4) 0.6003(6) 0.3508(6)
H8A H -0.2997 0.6615 0.3209
C12A C -0.0210(4) 0.2880(7) 0.1847(6)
N9A N -0.0350(4) 0.2267(6) 0.2550(5)
O5A O -0.2916(4) 0.5821(10) 0.0770(7)
H9A H -0.2602 0.6069 0.0383
H10A H -0.3332 0.6081 0.0747
C13A C -0.2836(4) 0.6749(10) 0.5107(9)
Zn1B Zn 0.26738(4) 0.20643(5) -0.33937(4)
Zn1B_2 Zn 0.26738(4) 0.20643(5) 0.66063(4)
Zn1C Zn -0.26738(4) 0.79357(5) -0.33937(4)
Zn1C_2 Zn -0.26738(4) 0.79357(5) 0.66063(4)
Zn2B Zn 0.23203(3) 0.03213(5) -0.17437(5)
Zn2C Zn -0.23203(3) 0.96787(5) -0.17437(5)
N3B N 0.3163(2) 0.6690(4) 0.1738(4)
N3C N -0.3163(2) 0.3310(4) 0.1738(4)
N6B N 0.3011(3) 0.7377(4) 0.2421(3)
N6C N -0.3011(3) 0.2623(4) 0.2421(3)
O2B O 0.2340(4) 0.8455(6) 0.4068(5)
O2C O -0.2340(4) 0.1545(6) 0.4068(5)
O3B O 0.1950(5) 0.7335(6) 0.5071(7)
O3C O -0.1950(5) 0.2665(6) 0.5071(7)
loop_
_geom_bond_atom_site_label_1
_geom_bond_atom_site_label_2
_geom_bond_site_symmetry_1
_geom_bond_site_symmetry_2
Zn1 N5 1_555 1_555
Zn2 N1 1_555 1_555
Zn3 N4 1_555 1_555
N1 C5 1_555 1_555
N2 Zn2 1_555 1_555
N3 N6 1_555 1_555
N4 C1 1_555 1_555
O1 Zn3 1_555 1_555
C1 C5 1_555 1_555
N5 N2 1_555 1_555
N6 C6 1_555 1_555
O2 C13 1_555 1_555
O3 C13 1_555 1_555
C2 N3 1_555 1_555
H1 C2 1_555 1_555
C3 N5 1_555 1_555
H2 C3 1_555 1_555
C4 C3 1_555 1_555
C5 N7 1_555 1_555
C6 H3 1_555 1_555
C7 O1 1_555 1_555
N7 Zn1 1_555 1_555
C8 N1 1_555 1_555
H4 C8 1_555 1_555
N8 H5 1_555 1_555
H6 N8 1_555 1_555
C9 C2 1_555 1_555
C10 N7 1_555 1_555
H7 C10 1_555 1_555
O4 Zn3 1_555 1_555
C11 N2 1_555 1_555
H8 C11 1_555 1_555
C12 C1 1_555 1_555
N9 C10 1_555 1_555
O5 Zn2 1_555 1_555
H9 O5 1_555 1_555
H10 O5 1_555 1_555
C13 C4 1_555 1_555
Zn1A N5A 1_555 1_555
Zn2A N1A 1_555 1_555
N1A C5A 1_555 1_555
N2A Zn2A 1_555 1_555
N3A N6A 1_555 1_555
N4A Zn3 1_555 1_555
O1A Zn3 1_555 1_555
C1A N4A 1_555 1_555
N5A N2A 1_555 1_555
N6A C6A 1_555 1_555
O2A C13A 1_555 1_555
O3A C13A 1_555 1_555
C2A N3A 1_555 1_555
H1A C2A 1_555 1_555
C3A N5A 1_555 1_555
H2A C3A 1_555 1_555
C4A C3A 1_555 1_555
C5A C1A 1_555 1_555
C6A H3A 1_555 1_555
C7A O1A 1_555 1_555
N7A Zn1A 1_555 1_555
C8A N1A 1_555 1_555
H4A C8A 1_555 1_555
N8A H5A 1_555 1_555
H6A N8A 1_555 1_555
C9A C2A 1_555 1_555
C10A N7A 1_555 1_555
H7A C10A 1_555 1_555
O4A Zn3 1_555 1_555
C11A N2A 1_555 1_555
H8A C11A 1_555 1_555
C12A C1A 1_555 1_555
N9A C10A 1_555 1_555
O5A Zn2A 1_555 1_555
H9A O5A 1_555 1_555
H10A O5A 1_555 1_555
C13A C4A 1_555 1_555
Zn1B N6 1_555 1_555
Zn1B_2 O2 1_555 1_555
Zn1C N6A 1_555 1_555
Zn1C_2 O2A 1_555 1_555
Zn2B N3 1_555 1_555
Zn2C N3A 1_555 1_555
N3B Zn2 1_555 1_555
N3C Zn2A 1_555 1_555
N6B Zn1 1_555 1_555
N6C Zn1A 1_555 1_555
O2B Zn1 1_555 1_555
O2C Zn1A 1_555 1_555
O3B Zn1 1_555 1_555
O3C Zn1A 1_555 1_555
N4 C8 1_555 1_555
O3 Zn1B_2 1_555 1_555
C4 C11 1_555 1_555
C6 C9 1_555 1_555
C7 C9 1_555 1_555
C7 O4 1_555 1_555
N8 C12 1_555 1_555
C12 N9 1_555 1_555
N4A C8A 1_555 1_555
O3A Zn1C_2 1_555 1_555
C4A C11A 1_555 1_555
C5A N7A 1_555 1_555
C6A C9A 1_555 1_555
C7A C9A 1_555 1_555
C7A O4A 1_555 1_555
N8A C12A 1_555 1_555
C12A N9A 1_555 1_555
N3B N6B 1_555 1_555
N3C N6C 1_555 1_555

#END
