
#######################################################################
#
#                 Cambridge Crystallographic Data Centre
#                                CCDC 
#
#######################################################################
#
# If this CIF has been generated from an entry in the Cambridge 
# Structural Database, then it will include bibliographic, chemical, 
# crystal, experimental, refinement or atomic coordinate data resulting 
# from the CCDC's data processing and validation procedures.
#
#######################################################################

data_RUGPAM
_symmetry_cell_setting           monoclinic
_symmetry_space_group_name_H-M   'P 21/c'
_symmetry_Int_Tables_number      14
_space_group_name_Hall           '-P 2ybc'
loop_
_symmetry_equiv_pos_site_id
_symmetry_equiv_pos_as_xyz
1 x,y,z
2 -x,1/2+y,1/2-z
3 -x,-y,-z
4 x,1/2-y,1/2+z
_cell_length_a                   20.013(4)
_cell_length_b                   14.177(3)
_cell_length_c                   33.261(5)
_cell_angle_alpha                90
_cell_angle_beta                 117.343(9)
_cell_angle_gamma                90
_cell_volume                     8382.59
loop_
_atom_site_label
_atom_site_type_symbol
_atom_site_fract_x
_atom_site_fract_y
_atom_site_fract_z
C1 C 0.5098(4) 0.5024(6) 0.1741(2)
H1 H 0.4748 0.5406 0.1774
C2 C 0.5255(4) 0.5208(6) 0.1394(2)
H2 H 0.5001 0.5702 0.1200
C3 C 0.5748(4) 0.4724(6) 0.1316(2)
C4 C 0.6023(4) 0.3959(6) 0.1589(2)
H3 H 0.6346 0.3546 0.1547
C5 C 0.5818(4) 0.3787(6) 0.1939(2)
H4 H 0.5993 0.3241 0.2112
C6 C 0.5933(4) 0.4929(6) 0.0955(2)
C7 C 0.5468(5) 0.5506(6) 0.0607(3)
H5 H 0.5022 0.5725 0.0597
C8 C 0.5663(5) 0.5772(6) 0.0258(3)
H6 H 0.5372 0.6205 0.0036
C9 C 0.6304(4) 0.5361(6) 0.0258(2)
C10 C 0.6650(4) 0.4735(6) 0.0560(2)
H7 H 0.7047 0.4414 0.0549
C11 C 0.6462(4) 0.4512(6) 0.0901(2)
H8 H 0.6732 0.4035 0.1102
C12 C 0.6275(4) 0.6229(6) -0.0406(2)
C13 C 0.5958(4) 0.7042(6) -0.0378(2)
H9 H 0.5843 0.7119 -0.0139
C14 C 0.5791(4) 0.7769(6) -0.0682(2)
H10 H 0.5582 0.8324 -0.0641
C15 C 0.5929(4) 0.7682(6) -0.1039(2)
C16 C 0.6242(4) 0.6856(6) -0.1065(2)
H11 H 0.6341 0.6772 -0.1310
C17 C 0.6421(4) 0.6151(6) -0.0767(2)
H12 H 0.6644 0.5606 -0.0806
C18 C 0.5751(4) 0.8438(6) -0.1365(2)
C19 C 0.5698(4) 0.9357(6) -0.1274(2)
H13 H 0.5789 0.9520 -0.0982
C20 C 0.5514(5) 1.0064(6) -0.1592(2)
H14 H 0.5452 1.0674 -0.1512
C21 C 0.5511(5) 0.9037(7) -0.2089(2)
H15 H 0.5442 0.8898 -0.2379
C22 C 0.5693(4) 0.8305(6) -0.1796(2)
H16 H 0.5781 0.7712 -0.1882
C23 C -0.1630(4) 0.6514(6) 0.0043(2)
H17 H -0.1987 0.6324 0.0132
C24 C -0.1805(4) 0.7313(6) -0.0240(2)
H18 H -0.2255 0.7637 -0.0329
C25 C -0.1285(4) 0.7601(5) -0.0382(2)
C26 C -0.0617(3) 0.7114(5) -0.0188(2)
H19 H -0.0227 0.7321 -0.0245
C27 C -0.0496(4) 0.6338(5) 0.0084(2)
H20 H -0.0035 0.6029 0.0194
C28 C -0.1456(4) 0.8336(5) -0.0708(2)
C29 C -0.2119(4) 0.8831(5) -0.0883(2)
H21 H -0.2450 0.8734 -0.0762
C30 C -0.2310(4) 0.9464(5) -0.1231(2)
H22 H -0.2763 0.9789 -0.1339
C31 C -0.1834(4) 0.9621(5) -0.1421(2)
C32 C -0.1170(4) 0.9171(5) -0.1237(2)
H23 H -0.0830 0.9292 -0.1350
C33 C -0.0977(4) 0.8544(5) -0.0893(2)
H24 H -0.0512 0.8246 -0.0777
C34 C -0.1853(4) 1.0253(6) -0.2122(2)
C35 C -0.2002(4) 1.1020(6) -0.2392(2)
H25 H -0.2197 1.1560 -0.2327
C36 C -0.1870(4) 1.1010(6) -0.2759(2)
H26 H -0.1977 1.1552 -0.2935
C37 C -0.1593(4) 1.0260(5) -0.2878(2)
C38 C -0.1443(5) 0.9471(6) -0.2611(2)
H27 H -0.1255 0.8936 -0.2686
C39 C -0.1569(5) 0.9452(6) -0.2226(2)
H28 H -0.1462 0.8914 -0.2047
C40 C -0.1453(4) 1.0251(6) -0.3275(2)
C41 C -0.1453(4) 1.1023(6) -0.3488(2)
H29 H -0.1558 1.1600 -0.3397
C42 C -0.1296(4) 1.0974(7) -0.3855(2)
H30 H -0.1290 1.1540 -0.3995
C43 C -0.1209(5) 0.9453(6) -0.3823(2)
H31 H -0.1146 0.8883 -0.3940
C44 C -0.1348(4) 0.9427(6) -0.3457(2)
H32 H -0.1372 0.8850 -0.3331
C45 C 0.3727(5) 0.4343(8) 0.2086(3)
C46 C 0.2882(4) 0.4256(6) 0.1782(2)
C47 C 0.2525(4) 0.3489(6) 0.1843(2)
H33 H 0.2794 0.3024 0.2052
C48 C 0.1731(4) 0.3420(6) 0.1578(2)
H34 H 0.1479 0.2894 0.1607
C49 C 0.1349(4) 0.4093(6) 0.1292(2)
C50 C 0.1726(4) 0.4823(6) 0.1248(2)
H35 H 0.1463 0.5292 0.1039
C51 C 0.2501(4) 0.4909(6) 0.1505(2)
H36 H 0.2744 0.5443 0.1476
C52 C 0.0521(4) 0.4091(6) 0.1019(2)
C53 C 0.6316(4) 0.3080(5) 0.3133(2)
C54 C 0.6758(3) 0.2548(5) 0.35630(19)
C55 C 0.7546(3) 0.2569(5) 0.3780(2)
H37 H 0.7802 0.2890 0.3648
C56 C 0.7940(3) 0.2114(5) 0.4187(2)
H38 H 0.8462 0.2147 0.4336
C57 C 0.7569(3) 0.1617(4) 0.43717(19)
C58 C 0.6830(3) 0.1610(5) 0.41767(19)
H39 H 0.6583 0.1302 0.4317
C59 C 0.6411(3) 0.2057(5) 0.3763(2)
H40 H 0.5889 0.2018 0.3623
C60 C 0.8013(4) 0.1111(5) 0.4807(2)
N1 N 0.5402(3) 0.4353(4) 0.20279(16)
N2 N 0.6473(3) 0.5534(4) -0.00947(18)
H41 H 0.6762 0.5116 -0.0121
N3 N 0.5421(3) 0.9913(4) -0.20085(15)
N4 N -0.1008(3) 0.6014(4) 0.01939(16)
N5 N -0.2058(3) 1.0255(4) -0.17689(17)
H42 H -0.2353 1.0699 -0.1773
N6 N -0.1159(2) 1.0229(4) -0.40155(15)
O1 O 0.6665(3) 0.3607(4) 0.29985(15)
O2 O 0.5627(2) 0.3000(3) 0.29423(13)
O3 O 0.8728(2) 0.1157(3) 0.49931(13)
O4 O 0.7672(2) 0.0631(4) 0.49647(14)
O5 O 0.4095(2) 0.3678(4) 0.22630(15)
O6 O 0.3986(3) 0.5143(5) 0.21068(19)
O7 O 0.0158(3) 0.3415(4) 0.10565(14)
O8 O 0.0225(2) 0.4788(4) 0.07741(14)
Zn1 Zn 0.51515(4) 0.40659(6) 0.25407(2)
Zn2 Zn -0.08613(4) 0.47507(6) 0.04891(2)
N3C N 0.5421(3) 0.5087(4) 0.29915(15)
N6C N -0.1159(2) 0.4771(4) 0.09845(15)
O3C O -0.1272(2) 0.3843(3) -0.00069(13)
Zn1C Zn 0.51515(4) 1.09341(6) -0.24593(2)
Zn2C Zn -0.08613(4) 1.02493(6) -0.45109(2)
Zn2C_2 Zn 0.91387(4) 0.02493(6) 0.54891(2)
loop_
_geom_bond_atom_site_label_1
_geom_bond_atom_site_label_2
_geom_bond_site_symmetry_1
_geom_bond_site_symmetry_2
C1 H1 1_555 1_555
C2 C1 1_555 1_555
H2 C2 1_555 1_555
C3 C2 1_555 1_555
C4 C3 1_555 1_555
H3 C4 1_555 1_555
C5 C4 1_555 1_555
H4 C5 1_555 1_555
C6 C3 1_555 1_555
C7 C6 1_555 1_555
H5 C7 1_555 1_555
C8 C7 1_555 1_555
H6 C8 1_555 1_555
C9 C8 1_555 1_555
C10 C9 1_555 1_555
H7 C10 1_555 1_555
C11 C6 1_555 1_555
H8 C11 1_555 1_555
C12 C13 1_555 1_555
C13 H9 1_555 1_555
C14 C13 1_555 1_555
H10 C14 1_555 1_555
C15 C14 1_555 1_555
C16 C15 1_555 1_555
H11 C16 1_555 1_555
C17 C12 1_555 1_555
H12 C17 1_555 1_555
C18 C15 1_555 1_555
C19 C18 1_555 1_555
H13 C19 1_555 1_555
C20 C19 1_555 1_555
H14 C20 1_555 1_555
C21 H15 1_555 1_555
C22 C18 1_555 1_555
H16 C22 1_555 1_555
C23 H17 1_555 1_555
C24 C23 1_555 1_555
H18 C24 1_555 1_555
C25 C24 1_555 1_555
C26 C25 1_555 1_555
H19 C26 1_555 1_555
C27 C26 1_555 1_555
H20 C27 1_555 1_555
C28 C25 1_555 1_555
C29 C28 1_555 1_555
H21 C29 1_555 1_555
C30 C29 1_555 1_555
H22 C30 1_555 1_555
C31 C30 1_555 1_555
C32 C31 1_555 1_555
H23 C32 1_555 1_555
C33 C28 1_555 1_555
H24 C33 1_555 1_555
C34 C35 1_555 1_555
C35 H25 1_555 1_555
C36 C35 1_555 1_555
H26 C36 1_555 1_555
C37 C36 1_555 1_555
C38 C37 1_555 1_555
H27 C38 1_555 1_555
C39 C34 1_555 1_555
H28 C39 1_555 1_555
C40 C37 1_555 1_555
C41 C40 1_555 1_555
H29 C41 1_555 1_555
C42 C41 1_555 1_555
H30 C42 1_555 1_555
C43 H31 1_555 1_555
C44 C40 1_555 1_555
H32 C44 1_555 1_555
C45 C46 1_555 1_555
C46 C47 1_555 1_555
C47 H33 1_555 1_555
C48 C47 1_555 1_555
H34 C48 1_555 1_555
C49 C48 1_555 1_555
C50 C49 1_555 1_555
H35 C50 1_555 1_555
C51 C46 1_555 1_555
H36 C51 1_555 1_555
C52 C49 1_555 1_555
C53 C54 1_555 1_555
C54 C55 1_555 1_555
C55 H37 1_555 1_555
C56 C55 1_555 1_555
H38 C56 1_555 1_555
C57 C56 1_555 1_555
C58 C57 1_555 1_555
H39 C58 1_555 1_555
C59 C54 1_555 1_555
H40 C59 1_555 1_555
C60 C57 1_555 1_555
N1 C1 1_555 1_555
N2 C9 1_555 1_555
H41 N2 1_555 1_555
N3 C20 1_555 1_555
N4 C23 1_555 1_555
N5 C31 1_555 1_555
H42 N5 1_555 1_555
N6 C42 1_555 1_555
O1 C53 1_555 1_555
O2 C53 1_555 1_555
O3 C60 1_555 1_555
O4 C60 1_555 1_555
O5 C45 1_555 1_555
O6 C45 1_555 1_555
O7 C52 1_555 1_555
O8 C52 1_555 1_555
Zn1 N1 1_555 1_555
Zn2 N4 1_555 1_555
N3C Zn1 1_555 1_555
N6C Zn2 1_555 1_555
O3C Zn2 1_555 1_555
Zn1C N3 1_555 1_555
Zn2C N6 1_555 1_555
Zn2C_2 O3 1_555 1_555
C5 N1 1_555 1_555
C10 C11 1_555 1_555
C12 N2 1_555 1_555
C16 C17 1_555 1_555
C21 C22 1_555 1_555
C21 N3 1_555 1_555
C27 N4 1_555 1_555
C32 C33 1_555 1_555
C34 N5 1_555 1_555
C38 C39 1_555 1_555
C43 C44 1_555 1_555
C43 N6 1_555 1_555
C50 C51 1_555 1_555
C58 C59 1_555 1_555
O2 Zn1 1_555 1_555
O5 Zn1 1_555 1_555
O8 Zn2 1_555 1_555

#END
