
#######################################################################
#
#                 Cambridge Crystallographic Data Centre
#                                CCDC 
#
#######################################################################
#
# If this CIF has been generated from an entry in the Cambridge 
# Structural Database, then it will include bibliographic, chemical, 
# crystal, experimental, refinement or atomic coordinate data resulting 
# from the CCDC's data processing and validation procedures.
#
#######################################################################

data_RUGXIC
_symmetry_cell_setting           monoclinic
_symmetry_space_group_name_H-M   'C 2/c'
_symmetry_Int_Tables_number      15
_space_group_name_Hall           '-C 2yn'
loop_
_symmetry_equiv_pos_site_id
_symmetry_equiv_pos_as_xyz
1 x,y,z
2 -x,y,1/2-z
3 1/2+x,1/2+y,z
4 1/2-x,1/2+y,1/2-z
5 -x,-y,-z
6 x,-y,1/2+z
7 1/2-x,1/2-y,-z
8 1/2+x,1/2-y,1/2+z
_cell_length_a                   23.6519(17)
_cell_length_b                   13.0546(9)
_cell_length_c                   26.4620(19)
_cell_angle_alpha                90
_cell_angle_beta                 115.424(3)
_cell_angle_gamma                90
_cell_volume                     7379.29
loop_
_atom_site_label
_atom_site_type_symbol
_atom_site_fract_x
_atom_site_fract_y
_atom_site_fract_z
N1 N 0.1434(17) 0.316(3) 0.1581(15)
H10 H 0.1820 0.3508 0.1612
H11 H 0.1433 0.2439 0.1470
C23 C 0.0811(18) 0.376(3) 0.1176(16)
H12 H 0.0785 0.3783 0.0796
H13 H 0.0825 0.4465 0.1313
H14 H 0.0443 0.3409 0.1171
C24 C 0.1318(17) 0.329(3) 0.2194(15)
H15 H 0.1665 0.2964 0.2508
H16 H 0.0923 0.2963 0.2138
H17 H 0.1302 0.4021 0.2277
O1A O -0.0068(9) 0.594(2) 0.3137(11)
C1A C -0.0684(7) 0.6199(16) 0.2974(8)
C2A C -0.1116(9) 0.5714(14) 0.2497(8)
H1A H -0.0979 0.5217 0.2311
C3A C -0.1748(8) 0.596(2) 0.2291(11)
C4A C -0.1948(8) 0.668(3) 0.2563(16)
H2A H -0.2380 0.6848 0.2422
C5A C -0.1515(12) 0.717(2) 0.3040(14)
C6A C -0.0883(11) 0.6926(17) 0.3245(8)
H3A H -0.0588 0.7257 0.3571
C7A C -0.2250(6) 0.5488(10) 0.1815(5)
C8A C -0.1705(5) 0.8079(11) 0.3322(4)
O5A O -0.2205(4) 0.7883(6) 0.3370(3)
O8A O -0.2810(4) 0.5641(7) 0.1678(3)
O10A O -0.1370(4) 0.8858(7) 0.3513(4)
O11A O -0.2051(4) 0.4819(7) 0.1564(3)
Zn1A Zn -0.25241(5) 0.36531(11) 0.11374(5)
Zn2A Zn -0.35934(5) 0.51385(10) 0.10369(5)
O2A O -0.3276(3) 0.4339(6) 0.0570(3)
O3A O -0.5493(3) 0.4819(6) -0.0777(3)
O4A O -0.2867(3) 0.2221(6) -0.0804(3)
C9A C -0.5297(5) 0.4202(9) -0.1039(5)
O6A O -0.5667(4) 0.3787(7) -0.1500(3)
O7A O -0.3667(5) 0.6559(7) 0.0617(4)
C10A C -0.4623(5) 0.3958(8) -0.0777(4)
C11A C -0.3415(5) 0.2495(10) -0.1059(4)
C12A C -0.3624(5) 0.4015(8) 0.0036(4)
O9A O -0.3722(5) 0.2224(11) -0.1576(4)
C13A C -0.4347(5) 0.3380(10) -0.1059(4)
H4A H -0.4595 0.3169 -0.1433
C14A C -0.4261(4) 0.4257(8) -0.0241(4)
H5A H -0.4448 0.4644 -0.0049
C15A C -0.3351(5) 0.3438(8) -0.0258(4)
H6A H -0.2918 0.3273 -0.0083
C16A C -0.3721(5) 0.3114(10) -0.0802(4)
Zn1B Zn -0.24759(5) 0.86531(11) 0.38626(5)
Zn1G Zn -0.24759(5) 0.13469(11) -0.11374(5)
Zn2B Zn -0.14066(5) 1.01385(10) 0.39631(5)
Zn2E Zn -0.64066(5) 0.48615(10) -0.10369(5)
O3E O -0.4507(3) 0.5181(6) 0.0777(3)
O4G O -0.2133(3) 0.2779(6) 0.0804(3)
O5B O -0.2795(4) 0.2883(6) 0.1630(3)
O10B O -0.3630(4) 0.3858(7) 0.1487(4)
O1 O 0.0068(9) 0.594(2) 0.1863(11)
C1 C 0.0684(7) 0.6199(16) 0.2026(8)
C2 C 0.1116(9) 0.5714(14) 0.2503(8)
H1 H 0.0979 0.5217 0.2689
C3 C 0.1748(8) 0.596(2) 0.2709(11)
C4 C 0.1948(8) 0.668(3) 0.2437(16)
H2 H 0.2380 0.6848 0.2578
C5 C 0.1515(12) 0.717(2) 0.1960(14)
C6 C 0.0883(11) 0.6926(17) 0.1755(8)
H3 H 0.0588 0.7257 0.1429
C7 C 0.2250(6) 0.5488(10) 0.3185(5)
C8 C 0.1705(5) 0.8079(11) 0.1678(4)
Zn1 Zn 0.25241(5) 0.36531(11) 0.38626(5)
Zn2 Zn 0.35934(5) 0.51385(10) 0.39631(5)
O2 O 0.3276(3) 0.4339(6) 0.4430(3)
O3 O 0.5493(3) 0.4819(6) 0.5777(3)
O4 O 0.2867(3) 0.2221(6) 0.5804(3)
O5 O 0.2205(4) 0.7883(6) 0.1630(3)
C9 C 0.5297(5) 0.4202(9) 0.6039(5)
O6 O 0.5667(4) 0.3787(7) 0.6500(3)
O7 O 0.3667(5) 0.6559(7) 0.4383(4)
C10 C 0.4623(5) 0.3958(8) 0.5777(4)
O8 O 0.2810(4) 0.5641(7) 0.3322(3)
C11 C 0.3415(5) 0.2495(10) 0.6059(4)
C12 C 0.3624(5) 0.4015(8) 0.4964(4)
O9 O 0.3722(5) 0.2224(11) 0.6576(4)
O10 O 0.1370(4) 0.8858(7) 0.1487(4)
C13 C 0.4347(5) 0.3380(10) 0.6059(4)
H4 H 0.4595 0.3169 0.6433
C14 C 0.4261(4) 0.4257(8) 0.5241(4)
H5 H 0.4448 0.4644 0.5049
O11 O 0.2051(4) 0.4819(7) 0.3436(3)
C15 C 0.3351(5) 0.3438(8) 0.5258(4)
H6 H 0.2918 0.3273 0.5083
C16 C 0.3721(5) 0.3114(10) 0.5802(4)
Zn1C Zn 0.24759(5) 0.86531(11) 0.11374(5)
Zn1F Zn 0.24759(5) 0.13469(11) 0.61374(5)
Zn2C Zn 0.14066(5) 1.01385(10) 0.10369(5)
Zn2D Zn 0.64066(5) 0.48615(10) 0.60369(5)
O3D O 0.4507(3) 0.5181(6) 0.4223(3)
O4F O 0.2133(3) 0.2779(6) 0.4196(3)
O5C O 0.2795(4) 0.2883(6) 0.3370(3)
O10C O 0.3630(4) 0.3858(7) 0.3513(4)
O12? O 0.0201(9) 0.712(2) 0.2329(11)
C17? C 0.0761(8) 0.6948(16) 0.2373(8)
C18? C 0.1215(9) 0.6324(14) 0.2763(8)
H7? H 0.1121 0.5940 0.3022
C19? C 0.1808(8) 0.626(2) 0.2775(12)
C20? C 0.1946(9) 0.682(3) 0.2397(16)
H8? H 0.2351 0.6783 0.2405
C21? C 0.1492(12) 0.745(2) 0.2006(13)
C22? C 0.0900(10) 0.7510(17) 0.1994(8)
H9? H 0.0589 0.7936 0.1727
loop_
_geom_bond_atom_site_label_1
_geom_bond_atom_site_label_2
_geom_bond_site_symmetry_1
_geom_bond_site_symmetry_2
O1 C1 1_555 1_555
C1 C2 1_555 1_555
C2 H1 1_555 1_555
C3 C2 1_555 1_555
C4 C3 1_555 1_555
H2 C4 1_555 1_555
C5 C4 1_555 1_555
C6 C1 1_555 1_555
H3 C6 1_555 1_555
C7 C3 1_555 1_555
C8 C5 1_555 1_555
Zn1 O2 1_555 1_555
Zn2 O2 1_555 1_555
O2 C12 1_555 1_555
O3 C9 1_555 1_555
O4 C11 1_555 1_555
O5 C8 1_555 1_555
C9 O6 1_555 1_555
O7 Zn2 1_555 1_555
C10 C9 1_555 1_555
O8 C7 1_555 1_555
C11 O9 1_555 1_555
C12 C14 1_555 1_555
O10 C8 1_555 1_555
C13 C10 1_555 1_555
H4 C13 1_555 1_555
C14 C10 1_555 1_555
H5 C14 1_555 1_555
O11 C7 1_555 1_555
C15 C12 1_555 1_555
H6 C15 1_555 1_555
C16 C11 1_555 1_555
N1 H10 1_555 1_555
H11 N1 1_555 1_555
C23 N1 1_555 1_555
H12 C23 1_555 1_555
H13 C23 1_555 1_555
H14 C23 1_555 1_555
C24 N1 1_555 1_555
H15 C24 1_555 1_555
H16 C24 1_555 1_555
H17 C24 1_555 1_555
Zn1C O5 1_555 1_555
Zn1F O4 1_555 1_555
Zn2C O10 1_555 1_555
Zn2D O3 1_555 1_555
O3D Zn2 1_555 1_555
O4F Zn1 1_555 1_555
O5C Zn1 1_555 1_555
O10C Zn2 1_555 1_555
O1A C1A 1_555 1_555
C1A C2A 1_555 1_555
C2A H1A 1_555 1_555
C3A C2A 1_555 1_555
C4A C3A 1_555 1_555
H2A C4A 1_555 1_555
C5A C4A 1_555 1_555
C6A C1A 1_555 1_555
H3A C6A 1_555 1_555
C7A C3A 1_555 1_555
C8A C5A 1_555 1_555
O5A C8A 1_555 1_555
O8A C7A 1_555 1_555
O10A C8A 1_555 1_555
O11A C7A 1_555 1_555
Zn1A O11A 1_555 1_555
Zn2A O8A 1_555 1_555
O2A Zn1A 1_555 1_555
O3A C9A 1_555 1_555
O4A C11A 1_555 1_555
C9A O6A 1_555 1_555
O7A Zn2A 1_555 1_555
C10A C9A 1_555 1_555
C11A O9A 1_555 1_555
C12A O2A 1_555 1_555
C13A C10A 1_555 1_555
H4A C13A 1_555 1_555
C14A C10A 1_555 1_555
H5A C14A 1_555 1_555
C15A C12A 1_555 1_555
H6A C15A 1_555 1_555
C16A C11A 1_555 1_555
Zn1B O5A 1_555 1_555
Zn1G O4A 1_555 1_555
Zn2B O10A 1_555 1_555
Zn2E O3A 1_555 1_555
O3E Zn2A 1_555 1_555
O4G Zn1A 1_555 1_555
O5B Zn1A 1_555 1_555
O10B Zn2A 1_555 1_555
C5 C6 1_555 1_555
Zn1 O11 1_555 1_555
Zn2 O8 1_555 1_555
C13 C16 1_555 1_555
C15 C16 1_555 1_555
C5A C6A 1_555 1_555
Zn2A O2A 1_555 1_555
C12A C14A 1_555 1_555
C13A C16A 1_555 1_555
C15A C16A 1_555 1_555

#END
