
#######################################################################
#
#                 Cambridge Crystallographic Data Centre
#                                CCDC 
#
#######################################################################
#
# If this CIF has been generated from an entry in the Cambridge 
# Structural Database, then it will include bibliographic, chemical, 
# crystal, experimental, refinement or atomic coordinate data resulting 
# from the CCDC's data processing and validation procedures.
#
#######################################################################

data_RULXOM
_symmetry_cell_setting           cubic
_symmetry_space_group_name_H-M   'I m -3 m'
_symmetry_Int_Tables_number      229
_space_group_name_Hall           '-I 4 2 3'
loop_
_symmetry_equiv_pos_site_id
_symmetry_equiv_pos_as_xyz
1 x,y,z
2 -y,x,z
3 y,-x,z
4 x,-z,y
5 x,z,-y
6 z,y,-x
7 -z,y,x
8 z,x,y
9 y,z,x
10 y,x,-z
11 -x,z,y
12 z,-y,x
13 1/2+x,1/2+y,1/2+z
14 1/2-y,1/2+x,1/2+z
15 1/2+y,1/2-x,1/2+z
16 1/2+x,1/2-z,1/2+y
17 1/2+x,1/2+z,1/2-y
18 1/2+z,1/2+y,1/2-x
19 1/2-z,1/2+y,1/2+x
20 1/2+z,1/2+x,1/2+y
21 1/2+y,1/2+z,1/2+x
22 1/2+y,1/2+x,1/2-z
23 1/2-x,1/2+z,1/2+y
24 1/2+z,1/2-y,1/2+x
25 -x,-y,z
26 x,-y,-z
27 -x,y,-z
28 -y,-z,x
29 z,-x,-y
30 -y,z,-x
31 -z,-x,y
32 -z,x,-y
33 y,-z,-x
34 -y,-x,-z
35 -x,-z,-y
36 -z,-y,-x
37 1/2-x,1/2-y,1/2+z
38 1/2+x,1/2-y,1/2-z
39 1/2-x,1/2+y,1/2-z
40 1/2-y,1/2-z,1/2+x
41 1/2+z,1/2-x,1/2-y
42 1/2-y,1/2+z,1/2-x
43 1/2-z,1/2-x,1/2+y
44 1/2-z,1/2+x,1/2-y
45 1/2+y,1/2-z,1/2-x
46 1/2-y,1/2-x,1/2-z
47 1/2-x,1/2-z,1/2-y
48 1/2-z,1/2-y,1/2-x
49 -x,-y,-z
50 y,-x,-z
51 -y,x,-z
52 -x,z,-y
53 -x,-z,y
54 -z,-y,x
55 z,-y,-x
56 -z,-x,-y
57 -y,-z,-x
58 -y,-x,z
59 x,-z,-y
60 -z,y,-x
61 1/2-x,1/2-y,1/2-z
62 1/2+y,1/2-x,1/2-z
63 1/2-y,1/2+x,1/2-z
64 1/2-x,1/2+z,1/2-y
65 1/2-x,1/2-z,1/2+y
66 1/2-z,1/2-y,1/2+x
67 1/2+z,1/2-y,1/2-x
68 1/2-z,1/2-x,1/2-y
69 1/2-y,1/2-z,1/2-x
70 1/2-y,1/2-x,1/2+z
71 1/2+x,1/2-z,1/2-y
72 1/2-z,1/2+y,1/2-x
73 x,y,-z
74 -x,y,z
75 x,-y,z
76 y,z,-x
77 -z,x,y
78 y,-z,x
79 z,x,-y
80 z,-x,y
81 -y,z,x
82 y,x,z
83 x,z,y
84 z,y,x
85 1/2+x,1/2+y,1/2-z
86 1/2-x,1/2+y,1/2+z
87 1/2+x,1/2-y,1/2+z
88 1/2+y,1/2+z,1/2-x
89 1/2-z,1/2+x,1/2+y
90 1/2+y,1/2-z,1/2+x
91 1/2+z,1/2+x,1/2-y
92 1/2+z,1/2-x,1/2+y
93 1/2-y,1/2+z,1/2+x
94 1/2+y,1/2+x,1/2+z
95 1/2+x,1/2+z,1/2+y
96 1/2+z,1/2+y,1/2+x
_cell_length_a                   25.474(3)
_cell_length_b                   25.474(3)
_cell_length_c                   25.474(3)
_cell_angle_alpha                90
_cell_angle_beta                 90
_cell_angle_gamma                90
_cell_volume                     16530.7
loop_
_atom_site_label
_atom_site_type_symbol
_atom_site_fract_x
_atom_site_fract_y
_atom_site_fract_z
Fe1 Fe 0.0000 0.09078(11) 0.5000
O1 O 0.0526(3) 0.1209(4) 0.4518(3)
O2 O 0.0000 0.0000 0.5000
N1 N 0.2326(3) 0.1639(3) 0.2326(3)
C1 C 0.0963(4) 0.0963(4) 0.4270(8)
C2 C 0.1178(3) 0.1178(3) 0.3851(4)
C3 C 0.0976(4) 0.1647(4) 0.3647(4)
H1 H 0.0673 0.1803 0.3799
C4 C 0.1223(3) 0.1883(4) 0.3220(3)
H2 H 0.1091 0.2207 0.3092
C5 C 0.16581(18) 0.16581(18) 0.2975(3)
C6 C 0.1892(2) 0.1892(2) 0.2537(3)
Fe1B Fe 0.09078(11) 0.0000 0.5000
Fe1A Fe -0.09078(11) 0.0000 0.5000
Fe1VB Fe 0.0000 -0.09078(11) 0.5000
Fe1ZB Fe -0.5000 0.0000 0.90922(11)
Fe1E Fe -0.5000 0.09078(11) 1.0000
Fe1BC Fe -0.09078(11) 0.5000 1.0000
Fe1D Fe 0.0000 0.5000 0.90922(11)
Fe1D_2 Fe 0.0000 -0.5000 0.90922(11)
Fe1BC_2 Fe -0.09078(11) -0.5000 1.0000
Fe1K Fe -0.5000 -0.09078(11) 1.0000
Fe1H Fe 0.09078(11) -0.5000 1.0000
Fe1K_2 Fe 0.5000 -0.09078(11) 1.0000
Fe1ZB_2 Fe 0.5000 0.0000 0.90922(11)
Fe1G Fe 0.5000 0.0000 0.09078(11)
Fe1E_2 Fe 0.5000 0.09078(11) 0.0000
Fe1H_2 Fe 0.09078(11) 0.5000 0.0000
Fe1C Fe 0.0000 0.5000 0.09078(11)
Fe1E_3 Fe -0.5000 -0.90922(11) 1.0000
Fe1ZB_3 Fe -0.5000 -1.0000 0.90922(11)
Fe1A_2 Fe -0.09078(11) -1.0000 0.5000
Fe1_2 Fe 0.0000 -0.90922(11) 0.5000
Fe1C_2 Fe 0.0000 -0.5000 1.09078(11)
Fe1_3 Fe 0.0000 -0.90922(11) 1.5000
Fe1B_2 Fe 0.09078(11) -1.0000 1.5000
Fe1G_2 Fe 0.5000 -1.0000 1.09078(11)
Fe1E_4 Fe 0.5000 -0.90922(11) 1.0000
Fe1G_3 Fe -0.5000 -1.0000 1.09078(11)
Fe1A_3 Fe -0.09078(11) -1.0000 1.5000
Fe1K_3 Fe -0.5000 -1.09078(11) 1.0000
Fe1H_3 Fe -0.90922(11) -0.5000 1.0000
Fe1C_3 Fe -1.0000 -0.5000 1.09078(11)
Fe1_4 Fe -1.0000 -0.90922(11) 1.5000
Fe1B_3 Fe -0.90922(11) -1.0000 1.5000
O1TB O 0.0526(3) 0.1209(4) 0.5482(3)
O1UB O -0.0526(3) 0.1209(4) 0.4518(3)
O1Z O -0.0526(3) 0.1209(4) 0.5482(3)
O1CC O 0.1209(4) 0.0526(3) 0.4518(3)
O1A O -0.1209(4) 0.0526(3) 0.4518(3)
O1XA O -0.1209(4) 0.0526(3) 0.5482(3)
O1EB O -0.1209(4) -0.0526(3) 0.4518(3)
O1GA O -0.1209(4) -0.0526(3) 0.5482(3)
O1VB O 0.0526(3) -0.1209(4) 0.4518(3)
O1VA O -0.0526(3) -0.1209(4) 0.5482(3)
O1X O -0.0526(3) -0.1209(4) 0.4518(3)
O1Y O 0.0526(3) -0.1209(4) 0.5482(3)
O1B O 0.1209(4) -0.0526(3) 0.4518(3)
O1I O 0.1209(4) 0.0526(3) 0.5482(3)
O1WA O 0.1209(4) -0.0526(3) 0.5482(3)
O1EA O -0.4518(3) 0.0526(3) 0.8791(4)
O1GB O -0.4518(3) 0.1209(4) 0.9474(3)
O1CA O -0.1209(4) 0.4518(3) 0.9474(3)
O1YA O -0.0526(3) 0.4518(3) 0.8791(4)
O1HA O -0.0526(3) -0.4518(3) 0.8791(4)
O1DB O -0.1209(4) -0.4518(3) 0.9474(3)
O1IA O -0.4518(3) -0.1209(4) 0.9474(3)
O1CB O -0.4518(3) -0.0526(3) 0.8791(4)
O1FB O 0.0526(3) -0.4518(3) 0.8791(4)
O1FA O 0.1209(4) -0.4518(3) 0.9474(3)
O1BB O 0.4518(3) -0.1209(4) 0.9474(3)
O1BA O 0.4518(3) -0.0526(3) 0.8791(4)
O1G O 0.4518(3) 0.0526(3) 0.1209(4)
O1EC O 0.4518(3) 0.1209(4) 0.0526(3)
O1H O 0.1209(4) 0.4518(3) 0.0526(3)
O1DC O 0.0526(3) 0.4518(3) 0.1209(4)
O1D O 0.0526(3) -0.5482(3) 0.8791(4)
O1YA_2 O -0.0526(3) -0.5482(3) 0.8791(4)
O1H_2 O 0.1209(4) -0.5482(3) 1.0526(3)
O1WB O 0.1209(4) -0.5482(3) 0.9474(3)
O1YB O 0.1209(4) -0.4518(3) 1.0526(3)
O1BC O -0.1209(4) -0.5482(3) 1.0526(3)
O1AA O -0.1209(4) -0.4518(3) 1.0526(3)
O1CA_2 O -0.1209(4) -0.5482(3) 0.9474(3)
O1GB_2 O -0.4518(3) -0.8791(4) 0.9474(3)
O1EA_2 O -0.4518(3) -0.9474(3) 0.8791(4)
O1XA_2 O -0.1209(4) -0.9474(3) 0.5482(3)
O1Z_2 O -0.0526(3) -0.8791(4) 0.5482(3)
O1C O 0.0526(3) -0.4518(3) 1.1209(4)
O1J O -0.0526(3) -0.5482(3) 1.1209(4)
O1DC_2 O 0.0526(3) -0.5482(3) 1.1209(4)
O1ZA O -0.0526(3) -0.4518(3) 1.1209(4)
O1_2 O 0.0526(3) -0.8791(4) 1.4518(3)
O1CC_2 O 0.1209(4) -0.9474(3) 1.4518(3)
O1G_2 O 0.4518(3) -0.9474(3) 1.1209(4)
O1EC_2 O 0.4518(3) -0.8791(4) 1.0526(3)
O1F O -0.4518(3) -0.8791(4) 1.0526(3)
O1XB O -0.4518(3) -0.9474(3) 1.1209(4)
O1A_2 O -0.1209(4) -0.9474(3) 1.4518(3)
O1UB_2 O -0.0526(3) -0.8791(4) 1.4518(3)
O1E O -0.5482(3) -0.8791(4) 0.9474(3)
O1EC_3 O -0.5482(3) -0.8791(4) 1.0526(3)
O1ZB O -0.5482(3) -0.9474(3) 0.8791(4)
O1CB_2 O -0.4518(3) -1.0526(3) 0.8791(4)
O1BA_2 O -0.5482(3) -1.0526(3) 0.8791(4)
O1K O -0.5482(3) -1.1209(4) 1.0526(3)
O1AB O -0.4518(3) -1.1209(4) 1.0526(3)
O1BB_2 O -0.5482(3) -1.1209(4) 0.9474(3)
O1IA_2 O -0.4518(3) -1.1209(4) 0.9474(3)
O1G_3 O -0.5482(3) -0.9474(3) 1.1209(4)
O1H_3 O -0.8791(4) -0.5482(3) 1.0526(3)
O1DC_3 O -0.9474(3) -0.5482(3) 1.1209(4)
O1_3 O -0.9474(3) -0.8791(4) 1.4518(3)
O1CC_3 O -0.8791(4) -0.9474(3) 1.4518(3)
O1AC O -0.5482(3) -1.0526(3) 1.1209(4)
O1DA O -0.4518(3) -1.0526(3) 1.1209(4)
O2C O 0.0000 -0.5000 1.0000
O2E O -0.5000 -1.0000 1.0000
N1H N 0.1639(3) 0.2326(3) 0.2326(3)
N1GB N -0.2326(3) 0.1639(3) 0.7674(3)
N1XA N -0.1639(3) 0.2326(3) 0.7674(3)
N1DB N -0.1639(3) -0.2326(3) 0.7674(3)
N1VA N -0.2326(3) -0.1639(3) 0.7674(3)
N1WA N 0.1639(3) -0.2326(3) 0.7674(3)
N1BB N 0.2326(3) -0.1639(3) 0.7674(3)
N1YA N -0.2326(3) 0.2326(3) 0.8361(3)
N1CB N -0.2326(3) -0.2326(3) 0.8361(3)
N1FB N 0.2326(3) -0.2326(3) 0.8361(3)
N1G N 0.2326(3) 0.2326(3) 0.1639(3)
N1YA_2 N -0.2326(3) -0.7674(3) 0.8361(3)
N1XA_2 N -0.1639(3) -0.7674(3) 0.7674(3)
N1GB_2 N -0.2326(3) -0.8361(3) 0.7674(3)
N1H_2 N 0.1639(3) -0.7674(3) 1.2326(3)
N1G_2 N 0.2326(3) -0.7674(3) 1.1639(3)
N1J N -0.2326(3) -0.7674(3) 1.1639(3)
N1A N -0.1639(3) -0.7674(3) 1.2326(3)
N1_2 N 0.2326(3) -0.8361(3) 1.2326(3)
N1F N -0.2326(3) -0.8361(3) 1.2326(3)
N1G_3 N -0.7674(3) -0.7674(3) 1.1639(3)
N1_3 N -0.7674(3) -0.8361(3) 1.2326(3)
N1H_3 N -0.8361(3) -0.7674(3) 1.2326(3)
C1XA C -0.0963(4) 0.0963(4) 0.5730(8)
C1VA C -0.0963(4) -0.0963(4) 0.5730(8)
C1WA C 0.0963(4) -0.0963(4) 0.5730(8)
C1GB C -0.4270(8) 0.0963(4) 0.9037(4)
C1YA C -0.0963(4) 0.4270(8) 0.9037(4)
C1DB C -0.0963(4) -0.4270(8) 0.9037(4)
C1CB C -0.4270(8) -0.0963(4) 0.9037(4)
C1FB C 0.0963(4) -0.4270(8) 0.9037(4)
C1BB C 0.4270(8) -0.0963(4) 0.9037(4)
C1G C 0.4270(8) 0.0963(4) 0.0963(4)
C1H C 0.0963(4) 0.4270(8) 0.0963(4)
C1YA_2 C -0.0963(4) -0.5730(8) 0.9037(4)
C1GB_2 C -0.4270(8) -0.9037(4) 0.9037(4)
C1XA_2 C -0.0963(4) -0.9037(4) 0.5730(8)
C1H_2 C 0.0963(4) -0.5730(8) 1.0963(4)
C1J C -0.0963(4) -0.5730(8) 1.0963(4)
C1_2 C 0.0963(4) -0.9037(4) 1.4270(8)
C1G_2 C 0.4270(8) -0.9037(4) 1.0963(4)
C1F C -0.4270(8) -0.9037(4) 1.0963(4)
C1A C -0.0963(4) -0.9037(4) 1.4270(8)
C1G_3 C -0.5730(8) -0.9037(4) 1.0963(4)
C1H_3 C -0.9037(4) -0.5730(8) 1.0963(4)
C1_3 C -0.9037(4) -0.9037(4) 1.4270(8)
C2XA C -0.1178(3) 0.1178(3) 0.6149(4)
C2VA C -0.1178(3) -0.1178(3) 0.6149(4)
C2WA C 0.1178(3) -0.1178(3) 0.6149(4)
C2GB C -0.3851(4) 0.1178(3) 0.8822(3)
C2YA C -0.1178(3) 0.3851(4) 0.8822(3)
C2DB C -0.1178(3) -0.3851(4) 0.8822(3)
C2CB C -0.3851(4) -0.1178(3) 0.8822(3)
C2FB C 0.1178(3) -0.3851(4) 0.8822(3)
C2BB C 0.3851(4) -0.1178(3) 0.8822(3)
C2G C 0.3851(4) 0.1178(3) 0.1178(3)
C2H C 0.1178(3) 0.3851(4) 0.1178(3)
C2YA_2 C -0.1178(3) -0.6149(4) 0.8822(3)
C2GB_2 C -0.3851(4) -0.8822(3) 0.8822(3)
C2XA_2 C -0.1178(3) -0.8822(3) 0.6149(4)
C2H_2 C 0.1178(3) -0.6149(4) 1.1178(3)
C2J C -0.1178(3) -0.6149(4) 1.1178(3)
C2_2 C 0.1178(3) -0.8822(3) 1.3851(4)
C2G_2 C 0.3851(4) -0.8822(3) 1.1178(3)
C2F C -0.3851(4) -0.8822(3) 1.1178(3)
C2A C -0.1178(3) -0.8822(3) 1.3851(4)
C2G_3 C -0.6149(4) -0.8822(3) 1.1178(3)
C2H_3 C -0.8822(3) -0.6149(4) 1.1178(3)
C2_3 C -0.8822(3) -0.8822(3) 1.3851(4)
C3CC C 0.1647(4) 0.0976(4) 0.3647(4)
C3Z C -0.0976(4) 0.1647(4) 0.6353(4)
C3XA C -0.1647(4) 0.0976(4) 0.6353(4)
C3GA C -0.1647(4) -0.0976(4) 0.6353(4)
C3VA C -0.0976(4) -0.1647(4) 0.6353(4)
C3WA C 0.1647(4) -0.0976(4) 0.6353(4)
C3Y C 0.0976(4) -0.1647(4) 0.6353(4)
C3EA C -0.3647(4) 0.0976(4) 0.8353(4)
C3GB C -0.3647(4) 0.1647(4) 0.9024(4)
C3CA C -0.1647(4) 0.3647(4) 0.9024(4)
C3YA C -0.0976(4) 0.3647(4) 0.8353(4)
C3HA C -0.0976(4) -0.3647(4) 0.8353(4)
C3DB C -0.1647(4) -0.3647(4) 0.9024(4)
C3IA C -0.3647(4) -0.1647(4) 0.9024(4)
C3CB C -0.3647(4) -0.0976(4) 0.8353(4)
C3FB C 0.0976(4) -0.3647(4) 0.8353(4)
C3FA C 0.1647(4) -0.3647(4) 0.9024(4)
C3BB C 0.3647(4) -0.1647(4) 0.9024(4)
C3BA C 0.3647(4) -0.0976(4) 0.8353(4)
C3G C 0.3647(4) 0.0976(4) 0.1647(4)
C3EC C 0.3647(4) 0.1647(4) 0.0976(4)
C3H C 0.1647(4) 0.3647(4) 0.0976(4)
C3DC C 0.0976(4) 0.3647(4) 0.1647(4)
C3YA_2 C -0.0976(4) -0.6353(4) 0.8353(4)
C3CA_2 C -0.1647(4) -0.6353(4) 0.9024(4)
C3GB_2 C -0.3647(4) -0.8353(4) 0.9024(4)
C3EA_2 C -0.3647(4) -0.9024(4) 0.8353(4)
C3XA_2 C -0.1647(4) -0.9024(4) 0.6353(4)
C3Z_2 C -0.0976(4) -0.8353(4) 0.6353(4)
C3H_2 C 0.1647(4) -0.6353(4) 1.0976(4)
C3DC_2 C 0.0976(4) -0.6353(4) 1.1647(4)
C3J C -0.0976(4) -0.6353(4) 1.1647(4)
C3BC C -0.1647(4) -0.6353(4) 1.0976(4)
C3_2 C 0.0976(4) -0.8353(4) 1.3647(4)
C3CC_2 C 0.1647(4) -0.9024(4) 1.3647(4)
C3G_2 C 0.3647(4) -0.9024(4) 1.1647(4)
C3EC_2 C 0.3647(4) -0.8353(4) 1.0976(4)
C3F C -0.3647(4) -0.8353(4) 1.0976(4)
C3XB C -0.3647(4) -0.9024(4) 1.1647(4)
C3A C -0.1647(4) -0.9024(4) 1.3647(4)
C3UB C -0.0976(4) -0.8353(4) 1.3647(4)
C3G_3 C -0.6353(4) -0.9024(4) 1.1647(4)
C3EC_3 C -0.6353(4) -0.8353(4) 1.0976(4)
C3H_3 C -0.8353(4) -0.6353(4) 1.0976(4)
C3DC_3 C -0.9024(4) -0.6353(4) 1.1647(4)
C3_3 C -0.9024(4) -0.8353(4) 1.3647(4)
C3CC_3 C -0.8353(4) -0.9024(4) 1.3647(4)
H1Z H -0.0673 0.1803 0.6201
H1XA H -0.1803 0.0673 0.6201
H1GA H -0.1803 -0.0673 0.6201
H1VA H -0.0673 -0.1803 0.6201
H1WA H 0.1803 -0.0673 0.6201
H1Y H 0.0673 -0.1803 0.6201
H1EA H -0.3799 0.0673 0.8197
H1GB H -0.3799 0.1803 0.9327
H1CA H -0.1803 0.3799 0.9327
H1YA H -0.0673 0.3799 0.8197
H1HA H -0.0673 -0.3799 0.8197
H1DB H -0.1803 -0.3799 0.9327
H1IA H -0.3799 -0.1803 0.9327
H1CB H -0.3799 -0.0673 0.8197
H1FB H 0.0673 -0.3799 0.8197
H1FA H 0.1803 -0.3799 0.9327
H1BB H 0.3799 -0.1803 0.9327
H1BA H 0.3799 -0.0673 0.8197
H1CC H 0.1803 0.0673 0.3799
H1G H 0.3799 0.0673 0.1803
H1EC H 0.3799 0.1803 0.0673
H1H H 0.1803 0.3799 0.0673
H1DC H 0.0673 0.3799 0.1803
H1YA_2 H -0.0673 -0.6201 0.8197
H1CA_2 H -0.1803 -0.6201 0.9327
H1GB_2 H -0.3799 -0.8197 0.9327
H1EA_2 H -0.3799 -0.9327 0.8197
H1XA_2 H -0.1803 -0.9327 0.6201
H1Z_2 H -0.0673 -0.8197 0.6201
H1H_2 H 0.1803 -0.6201 1.0673
H1DC_2 H 0.0673 -0.6201 1.1803
H1J H -0.0673 -0.6201 1.1803
H1BC H -0.1803 -0.6201 1.0673
H1_2 H 0.0673 -0.8197 1.3799
H1CC_2 H 0.1803 -0.9327 1.3799
H1G_2 H 0.3799 -0.9327 1.1803
H1EC_2 H 0.3799 -0.8197 1.0673
H1F H -0.3799 -0.8197 1.0673
H1XB H -0.3799 -0.9327 1.1803
H1A H -0.1803 -0.9327 1.3799
H1UB H -0.0673 -0.8197 1.3799
H1G_3 H -0.6201 -0.9327 1.1803
H1EC_3 H -0.6201 -0.8197 1.0673
H1H_3 H -0.8197 -0.6201 1.0673
H1DC_3 H -0.9327 -0.6201 1.1803
H1_3 H -0.9327 -0.8197 1.3799
H1CC_3 H -0.8197 -0.9327 1.3799
C4CC C 0.1883(4) 0.1223(3) 0.3220(3)
C4Z C -0.1223(3) 0.1883(4) 0.6780(3)
C4XA C -0.1883(4) 0.1223(3) 0.6780(3)
C4GA C -0.1883(4) -0.1223(3) 0.6780(3)
C4VA C -0.1223(3) -0.1883(4) 0.6780(3)
C4WA C 0.1883(4) -0.1223(3) 0.6780(3)
C4Y C 0.1223(3) -0.1883(4) 0.6780(3)
C4EA C -0.3220(3) 0.1223(3) 0.8117(4)
C4GB C -0.3220(3) 0.1883(4) 0.8777(3)
C4CA C -0.1883(4) 0.3220(3) 0.8777(3)
C4YA C -0.1223(3) 0.3220(3) 0.8117(4)
C4HA C -0.1223(3) -0.3220(3) 0.8117(4)
C4DB C -0.1883(4) -0.3220(3) 0.8777(3)
C4IA C -0.3220(3) -0.1883(4) 0.8777(3)
C4CB C -0.3220(3) -0.1223(3) 0.8117(4)
C4FB C 0.1223(3) -0.3220(3) 0.8117(4)
C4FA C 0.1883(4) -0.3220(3) 0.8777(3)
C4BB C 0.3220(3) -0.1883(4) 0.8777(3)
C4BA C 0.3220(3) -0.1223(3) 0.8117(4)
C4G C 0.3220(3) 0.1223(3) 0.1883(4)
C4EC C 0.3220(3) 0.1883(4) 0.1223(3)
C4H C 0.1883(4) 0.3220(3) 0.1223(3)
C4DC C 0.1223(3) 0.3220(3) 0.1883(4)
C4YA_2 C -0.1223(3) -0.6780(3) 0.8117(4)
C4CA_2 C -0.1883(4) -0.6780(3) 0.8777(3)
C4GB_2 C -0.3220(3) -0.8117(4) 0.8777(3)
C4EA_2 C -0.3220(3) -0.8777(3) 0.8117(4)
C4XA_2 C -0.1883(4) -0.8777(3) 0.6780(3)
C4Z_2 C -0.1223(3) -0.8117(4) 0.6780(3)
C4H_2 C 0.1883(4) -0.6780(3) 1.1223(3)
C4DC_2 C 0.1223(3) -0.6780(3) 1.1883(4)
C4J C -0.1223(3) -0.6780(3) 1.1883(4)
C4BC C -0.1883(4) -0.6780(3) 1.1223(3)
C4_2 C 0.1223(3) -0.8117(4) 1.3220(3)
C4CC_2 C 0.1883(4) -0.8777(3) 1.3220(3)
C4G_2 C 0.3220(3) -0.8777(3) 1.1883(4)
C4EC_2 C 0.3220(3) -0.8117(4) 1.1223(3)
C4F C -0.3220(3) -0.8117(4) 1.1223(3)
C4XB C -0.3220(3) -0.8777(3) 1.1883(4)
C4A C -0.1883(4) -0.8777(3) 1.3220(3)
C4UB C -0.1223(3) -0.8117(4) 1.3220(3)
C4G_3 C -0.6780(3) -0.8777(3) 1.1883(4)
C4EC_3 C -0.6780(3) -0.8117(4) 1.1223(3)
C4H_3 C -0.8117(4) -0.6780(3) 1.1223(3)
C4DC_3 C -0.8777(3) -0.6780(3) 1.1883(4)
C4_3 C -0.8777(3) -0.8117(4) 1.3220(3)
C4CC_3 C -0.8117(4) -0.8777(3) 1.3220(3)
H2Z H -0.1091 0.2207 0.6908
H2XA H -0.2207 0.1091 0.6908
H2GA H -0.2207 -0.1091 0.6908
H2VA H -0.1091 -0.2207 0.6908
H2WA H 0.2207 -0.1091 0.6908
H2Y H 0.1091 -0.2207 0.6908
H2EA H -0.3092 0.1091 0.7793
H2GB H -0.3092 0.2207 0.8909
H2CA H -0.2207 0.3092 0.8909
H2YA H -0.1091 0.3092 0.7793
H2HA H -0.1091 -0.3092 0.7793
H2DB H -0.2207 -0.3092 0.8909
H2IA H -0.3092 -0.2207 0.8909
H2CB H -0.3092 -0.1091 0.7793
H2FB H 0.1091 -0.3092 0.7793
H2FA H 0.2207 -0.3092 0.8909
H2BB H 0.3092 -0.2207 0.8909
H2BA H 0.3092 -0.1091 0.7793
H2CC H 0.2207 0.1091 0.3092
H2G H 0.3092 0.1091 0.2207
H2EC H 0.3092 0.2207 0.1091
H2H H 0.2207 0.3092 0.1091
H2DC H 0.1091 0.3092 0.2207
H2YA_2 H -0.1091 -0.6908 0.7793
H2CA_2 H -0.2207 -0.6908 0.8909
H2GB_2 H -0.3092 -0.7793 0.8909
H2EA_2 H -0.3092 -0.8909 0.7793
H2XA_2 H -0.2207 -0.8909 0.6908
H2Z_2 H -0.1091 -0.7793 0.6908
H2H_2 H 0.2207 -0.6908 1.1091
H2DC_2 H 0.1091 -0.6908 1.2207
H2J H -0.1091 -0.6908 1.2207
H2BC H -0.2207 -0.6908 1.1091
H2_2 H 0.1091 -0.7793 1.3092
H2CC_2 H 0.2207 -0.8909 1.3092
H2G_2 H 0.3092 -0.8909 1.2207
H2EC_2 H 0.3092 -0.7793 1.1091
H2F H -0.3092 -0.7793 1.1091
H2XB H -0.3092 -0.8909 1.2207
H2A H -0.2207 -0.8909 1.3092
H2UB H -0.1091 -0.7793 1.3092
H2G_3 H -0.6908 -0.8909 1.2207
H2EC_3 H -0.6908 -0.7793 1.1091
H2H_3 H -0.7793 -0.6908 1.1091
H2DC_3 H -0.8909 -0.6908 1.2207
H2_3 H -0.8909 -0.7793 1.3092
H2CC_3 H -0.7793 -0.8909 1.3092
C5XA C -0.16581(18) 0.16581(18) 0.7025(3)
C5VA C -0.16581(18) -0.16581(18) 0.7025(3)
C5WA C 0.16581(18) -0.16581(18) 0.7025(3)
C5GB C -0.2975(3) 0.16581(18) 0.83419(18)
C5YA C -0.16581(18) 0.2975(3) 0.83419(18)
C5DB C -0.16581(18) -0.2975(3) 0.83419(18)
C5CB C -0.2975(3) -0.16581(18) 0.83419(18)
C5FB C 0.16581(18) -0.2975(3) 0.83419(18)
C5BB C 0.2975(3) -0.16581(18) 0.83419(18)
C5G C 0.2975(3) 0.16581(18) 0.16581(18)
C5H C 0.16581(18) 0.2975(3) 0.16581(18)
C5YA_2 C -0.16581(18) -0.7025(3) 0.83419(18)
C5GB_2 C -0.2975(3) -0.83419(18) 0.83419(18)
C5XA_2 C -0.16581(18) -0.83419(18) 0.7025(3)
C5H_2 C 0.16581(18) -0.7025(3) 1.16581(18)
C5J C -0.16581(18) -0.7025(3) 1.16581(18)
C5_2 C 0.16581(18) -0.83419(18) 1.2975(3)
C5G_2 C 0.2975(3) -0.83419(18) 1.16581(18)
C5F C -0.2975(3) -0.83419(18) 1.16581(18)
C5A C -0.16581(18) -0.83419(18) 1.2975(3)
C5G_3 C -0.7025(3) -0.83419(18) 1.16581(18)
C5H_3 C -0.83419(18) -0.7025(3) 1.16581(18)
C5_3 C -0.83419(18) -0.83419(18) 1.2975(3)
C6G C 0.2537(3) 0.1892(2) 0.1892(2)
C6XA C -0.1892(2) 0.1892(2) 0.7463(3)
C6VA C -0.1892(2) -0.1892(2) 0.7463(3)
C6WA C 0.1892(2) -0.1892(2) 0.7463(3)
C6GB C -0.2537(3) 0.1892(2) 0.8108(2)
C6YA C -0.1892(2) 0.2537(3) 0.8108(2)
C6DB C -0.1892(2) -0.2537(3) 0.8108(2)
C6CB C -0.2537(3) -0.1892(2) 0.8108(2)
C6FB C 0.1892(2) -0.2537(3) 0.8108(2)
C6BB C 0.2537(3) -0.1892(2) 0.8108(2)
C6H C 0.1892(2) 0.2537(3) 0.1892(2)
C6YA_2 C -0.1892(2) -0.7463(3) 0.8108(2)
C6GB_2 C -0.2537(3) -0.8108(2) 0.8108(2)
C6XA_2 C -0.1892(2) -0.8108(2) 0.7463(3)
C6H_2 C 0.1892(2) -0.7463(3) 1.1892(2)
C6J C -0.1892(2) -0.7463(3) 1.1892(2)
C6_2 C 0.1892(2) -0.8108(2) 1.2537(3)
C6G_2 C 0.2537(3) -0.8108(2) 1.1892(2)
C6F C -0.2537(3) -0.8108(2) 1.1892(2)
C6A C -0.1892(2) -0.8108(2) 1.2537(3)
C6G_3 C -0.7463(3) -0.8108(2) 1.1892(2)
C6H_3 C -0.8108(2) -0.7463(3) 1.1892(2)
C6_3 C -0.8108(2) -0.8108(2) 1.2537(3)
loop_
_geom_bond_atom_site_label_1
_geom_bond_atom_site_label_2
_geom_bond_site_symmetry_1
_geom_bond_site_symmetry_2
Fe1 O1 1_555 1_555
O1 C1 1_555 1_555
O2 Fe1 1_555 1_555
N1 C6 1_555 1_555
C1 C2 1_555 1_555
C2 C3 1_555 1_555
C3 H1 1_555 1_555
C4 C3 1_555 1_555
H2 C4 1_555 1_555
C5 C4 1_555 1_555
C6 C5 1_555 1_555
Fe1B O2 1_555 1_555
Fe1A O2 1_555 1_555
Fe1VB O2 1_555 1_555
Fe1ZB O1EA 1_555 1_555
Fe1E O1GB 1_555 1_555
Fe1BC O1CA 1_555 1_555
Fe1D O1YA 1_555 1_555
Fe1D_2 O1HA 1_555 1_555
Fe1BC_2 O1DB 1_555 1_555
Fe1K O1IA 1_555 1_555
Fe1H O1FA 1_555 1_555
Fe1K_2 O1BB 1_555 1_555
Fe1ZB_2 O1BA 1_555 1_555
Fe1G O1G 1_555 1_555
Fe1E_2 O1EC 1_555 1_555
Fe1H_2 O1H 1_555 1_555
Fe1C O1DC 1_555 1_555
Fe1E_3 O1GB_2 1_555 1_555
Fe1ZB_3 O1EA_2 1_555 1_555
Fe1A_2 O1XA_2 1_555 1_555
Fe1_2 O1Z_2 1_555 1_555
Fe1C_2 O1C 1_555 1_555
Fe1_3 O1_2 1_555 1_555
Fe1B_2 O1CC_2 1_555 1_555
Fe1G_2 O1G_2 1_555 1_555
Fe1E_4 O1EC_2 1_555 1_555
Fe1G_3 O1XB 1_555 1_555
Fe1A_3 O1A_2 1_555 1_555
Fe1K_3 O1K 1_555 1_555
Fe1H_3 O1H_3 1_555 1_555
Fe1C_3 O1DC_3 1_555 1_555
Fe1_4 O1_3 1_555 1_555
Fe1B_3 O1CC_3 1_555 1_555
O1TB Fe1 1_555 1_555
O1UB Fe1 1_555 1_555
O1Z Fe1 1_555 1_555
O1CC C1 1_555 1_555
O1A Fe1A 1_555 1_555
O1XA Fe1A 1_555 1_555
O1EB Fe1A 1_555 1_555
O1GA Fe1A 1_555 1_555
O1VB Fe1VB 1_555 1_555
O1VA Fe1VB 1_555 1_555
O1X Fe1VB 1_555 1_555
O1Y Fe1VB 1_555 1_555
O1B Fe1B 1_555 1_555
O1I Fe1B 1_555 1_555
O1WA Fe1B 1_555 1_555
O1EA C1GB 1_555 1_555
O1GB C1GB 1_555 1_555
O1CA C1YA 1_555 1_555
O1YA C1YA 1_555 1_555
O1HA C1DB 1_555 1_555
O1DB C1DB 1_555 1_555
O1IA C1CB 1_555 1_555
O1CB Fe1ZB 1_555 1_555
O1FB Fe1D_2 1_555 1_555
O1FA C1FB 1_555 1_555
O1BB C1BB 1_555 1_555
O1BA C1BB 1_555 1_555
O1G C1G 1_555 1_555
O1EC C1G 1_555 1_555
O1H C1H 1_555 1_555
O1DC C1H 1_555 1_555
O1D Fe1D_2 1_555 1_555
O1YA_2 Fe1D_2 1_555 1_555
O1H_2 Fe1H 1_555 1_555
O1WB Fe1H 1_555 1_555
O1YB Fe1H 1_555 1_555
O1BC Fe1BC_2 1_555 1_555
O1AA Fe1BC_2 1_555 1_555
O1CA_2 Fe1BC_2 1_555 1_555
O1GB_2 C1GB_2 1_555 1_555
O1EA_2 C1GB_2 1_555 1_555
O1XA_2 C1XA_2 1_555 1_555
O1Z_2 C1XA_2 1_555 1_555
O1J Fe1C_2 1_555 1_555
O1DC_2 Fe1C_2 1_555 1_555
O1ZA Fe1C_2 1_555 1_555
O1_2 C1_2 1_555 1_555
O1CC_2 C1_2 1_555 1_555
O1G_2 C1G_2 1_555 1_555
O1EC_2 C1G_2 1_555 1_555
O1F Fe1E_3 1_555 1_555
O1XB C1F 1_555 1_555
O1A_2 C1A 1_555 1_555
O1UB_2 Fe1_3 1_555 1_555
O1E Fe1E_3 1_555 1_555
O1EC_3 Fe1E_3 1_555 1_555
O1ZB Fe1ZB_3 1_555 1_555
O1CB_2 Fe1ZB_3 1_555 1_555
O1BA_2 Fe1ZB_3 1_555 1_555
O1AB Fe1K_3 1_555 1_555
O1BB_2 Fe1K_3 1_555 1_555
O1IA_2 Fe1K_3 1_555 1_555
O1G_3 Fe1G_3 1_555 1_555
O1H_3 C1H_3 1_555 1_555
O1DC_3 C1H_3 1_555 1_555
O1_3 C1_3 1_555 1_555
O1CC_3 C1_3 1_555 1_555
O1AC Fe1G_3 1_555 1_555
O1DA Fe1G_3 1_555 1_555
O2C Fe1D_2 1_555 1_555
O2E Fe1E_3 1_555 1_555
N1H C6 1_555 1_555
N1GB C6XA 1_555 1_555
N1XA C6XA 1_555 1_555
N1DB C6VA 1_555 1_555
N1VA C6VA 1_555 1_555
N1WA C6WA 1_555 1_555
N1BB C6WA 1_555 1_555
N1YA C6GB 1_555 1_555
N1CB C6DB 1_555 1_555
N1FB C6FB 1_555 1_555
N1G C6G 1_555 1_555
N1YA_2 C6YA_2 1_555 1_555
N1XA_2 C6YA_2 1_555 1_555
N1GB_2 C6GB_2 1_555 1_555
N1H_2 C6H_2 1_555 1_555
N1G_2 C6H_2 1_555 1_555
N1J C6J 1_555 1_555
N1A C6J 1_555 1_555
N1_2 C6_2 1_555 1_555
N1F C6F 1_555 1_555
N1G_3 C6G_3 1_555 1_555
N1_3 C6G_3 1_555 1_555
N1H_3 C6H_3 1_555 1_555
C1XA O1Z 1_555 1_555
C1VA O1GA 1_555 1_555
C1WA O1Y 1_555 1_555
C1GB C2GB 1_555 1_555
C1YA C2YA 1_555 1_555
C1DB C2DB 1_555 1_555
C1CB O1CB 1_555 1_555
C1FB O1FB 1_555 1_555
C1BB C2BB 1_555 1_555
C1G C2G 1_555 1_555
C1H C2H 1_555 1_555
C1YA_2 O1YA_2 1_555 1_555
C1GB_2 C2GB_2 1_555 1_555
C1XA_2 C2XA_2 1_555 1_555
C1H_2 O1H_2 1_555 1_555
C1J O1BC 1_555 1_555
C1_2 C2_2 1_555 1_555
C1G_2 C2G_2 1_555 1_555
C1F O1F 1_555 1_555
C1A O1UB_2 1_555 1_555
C1G_3 O1EC_3 1_555 1_555
C1H_3 C2H_3 1_555 1_555
C1_3 C2_3 1_555 1_555
C2XA C1XA 1_555 1_555
C2VA C1VA 1_555 1_555
C2WA C1WA 1_555 1_555
C2GB C3EA 1_555 1_555
C2YA C3CA 1_555 1_555
C2DB C3HA 1_555 1_555
C2CB C1CB 1_555 1_555
C2FB C1FB 1_555 1_555
C2BB C3BB 1_555 1_555
C2G C3G 1_555 1_555
C2H C3H 1_555 1_555
C2YA_2 C1YA_2 1_555 1_555
C2GB_2 C3GB_2 1_555 1_555
C2XA_2 C3XA_2 1_555 1_555
C2H_2 C1H_2 1_555 1_555
C2J C1J 1_555 1_555
C2_2 C3_2 1_555 1_555
C2G_2 C3G_2 1_555 1_555
C2F C1F 1_555 1_555
C2A C1A 1_555 1_555
C2G_3 C1G_3 1_555 1_555
C2H_3 C3H_3 1_555 1_555
C2_3 C3_3 1_555 1_555
C3CC C2 1_555 1_555
C3Z C2XA 1_555 1_555
C3XA C2XA 1_555 1_555
C3GA C2VA 1_555 1_555
C3VA C2VA 1_555 1_555
C3WA C2WA 1_555 1_555
C3Y C2WA 1_555 1_555
C3EA H1EA 1_555 1_555
C3GB C2GB 1_555 1_555
C3CA H1CA 1_555 1_555
C3YA C2YA 1_555 1_555
C3HA H1HA 1_555 1_555
C3DB C2DB 1_555 1_555
C3IA C2CB 1_555 1_555
C3CB C2CB 1_555 1_555
C3FB C2FB 1_555 1_555
C3FA C2FB 1_555 1_555
C3BB H1BB 1_555 1_555
C3BA C2BB 1_555 1_555
C3G H1G 1_555 1_555
C3EC C2G 1_555 1_555
C3H H1H 1_555 1_555
C3DC C2H 1_555 1_555
C3YA_2 C2YA_2 1_555 1_555
C3CA_2 C2YA_2 1_555 1_555
C3GB_2 H1GB_2 1_555 1_555
C3EA_2 C2GB_2 1_555 1_555
C3XA_2 H1XA_2 1_555 1_555
C3Z_2 C2XA_2 1_555 1_555
C3H_2 C2H_2 1_555 1_555
C3DC_2 C2H_2 1_555 1_555
C3J C2J 1_555 1_555
C3BC C2J 1_555 1_555
C3_2 H1_2 1_555 1_555
C3CC_2 C2_2 1_555 1_555
C3G_2 H1G_2 1_555 1_555
C3EC_2 C2G_2 1_555 1_555
C3F C2F 1_555 1_555
C3XB C2F 1_555 1_555
C3A C2A 1_555 1_555
C3UB C2A 1_555 1_555
C3G_3 C2G_3 1_555 1_555
C3EC_3 C2G_3 1_555 1_555
C3H_3 H1H_3 1_555 1_555
C3DC_3 C2H_3 1_555 1_555
C3_3 H1_3 1_555 1_555
C3CC_3 C2_3 1_555 1_555
H1Z C3Z 1_555 1_555
H1XA C3XA 1_555 1_555
H1GA C3GA 1_555 1_555
H1VA C3VA 1_555 1_555
H1WA C3WA 1_555 1_555
H1Y C3Y 1_555 1_555
H1GB C3GB 1_555 1_555
H1YA C3YA 1_555 1_555
H1DB C3DB 1_555 1_555
H1IA C3IA 1_555 1_555
H1CB C3CB 1_555 1_555
H1FB C3FB 1_555 1_555
H1FA C3FA 1_555 1_555
H1BA C3BA 1_555 1_555
H1CC C3CC 1_555 1_555
H1EC C3EC 1_555 1_555
H1DC C3DC 1_555 1_555
H1YA_2 C3YA_2 1_555 1_555
H1CA_2 C3CA_2 1_555 1_555
H1EA_2 C3EA_2 1_555 1_555
H1Z_2 C3Z_2 1_555 1_555
H1H_2 C3H_2 1_555 1_555
H1DC_2 C3DC_2 1_555 1_555
H1J C3J 1_555 1_555
H1BC C3BC 1_555 1_555
H1CC_2 C3CC_2 1_555 1_555
H1EC_2 C3EC_2 1_555 1_555
H1F C3F 1_555 1_555
H1XB C3XB 1_555 1_555
H1A C3A 1_555 1_555
H1UB C3UB 1_555 1_555
H1G_3 C3G_3 1_555 1_555
H1EC_3 C3EC_3 1_555 1_555
H1DC_3 C3DC_3 1_555 1_555
H1CC_3 C3CC_3 1_555 1_555
C4CC C5 1_555 1_555
C4Z C3Z 1_555 1_555
C4XA C3XA 1_555 1_555
C4GA C3GA 1_555 1_555
C4VA C3VA 1_555 1_555
C4WA C3WA 1_555 1_555
C4Y C3Y 1_555 1_555
C4EA C3EA 1_555 1_555
C4GB C3GB 1_555 1_555
C4CA C3CA 1_555 1_555
C4YA C3YA 1_555 1_555
C4HA C3HA 1_555 1_555
C4DB C3DB 1_555 1_555
C4IA C3IA 1_555 1_555
C4CB C3CB 1_555 1_555
C4FB C3FB 1_555 1_555
C4FA C3FA 1_555 1_555
C4BB C3BB 1_555 1_555
C4BA C3BA 1_555 1_555
C4G C3G 1_555 1_555
C4EC C3EC 1_555 1_555
C4H C3H 1_555 1_555
C4DC C3DC 1_555 1_555
C4YA_2 C3YA_2 1_555 1_555
C4CA_2 C3CA_2 1_555 1_555
C4GB_2 C3GB_2 1_555 1_555
C4EA_2 C3EA_2 1_555 1_555
C4XA_2 C3XA_2 1_555 1_555
C4Z_2 C3Z_2 1_555 1_555
C4H_2 C3H_2 1_555 1_555
C4DC_2 C3DC_2 1_555 1_555
C4J C3J 1_555 1_555
C4BC C3BC 1_555 1_555
C4_2 C3_2 1_555 1_555
C4CC_2 C3CC_2 1_555 1_555
C4G_2 C3G_2 1_555 1_555
C4EC_2 C3EC_2 1_555 1_555
C4F C3F 1_555 1_555
C4XB C3XB 1_555 1_555
C4A C3A 1_555 1_555
C4UB C3UB 1_555 1_555
C4G_3 C3G_3 1_555 1_555
C4EC_3 C3EC_3 1_555 1_555
C4H_3 C3H_3 1_555 1_555
C4DC_3 C3DC_3 1_555 1_555
C4_3 C3_3 1_555 1_555
C4CC_3 C3CC_3 1_555 1_555
H2Z C4Z 1_555 1_555
H2XA C4XA 1_555 1_555
H2GA C4GA 1_555 1_555
H2VA C4VA 1_555 1_555
H2WA C4WA 1_555 1_555
H2Y C4Y 1_555 1_555
H2EA C4EA 1_555 1_555
H2GB C4GB 1_555 1_555
H2CA C4CA 1_555 1_555
H2YA C4YA 1_555 1_555
H2HA C4HA 1_555 1_555
H2DB C4DB 1_555 1_555
H2IA C4IA 1_555 1_555
H2CB C4CB 1_555 1_555
H2FB C4FB 1_555 1_555
H2FA C4FA 1_555 1_555
H2BB C4BB 1_555 1_555
H2BA C4BA 1_555 1_555
H2CC C4CC 1_555 1_555
H2G C4G 1_555 1_555
H2EC C4EC 1_555 1_555
H2H C4H 1_555 1_555
H2DC C4DC 1_555 1_555
H2YA_2 C4YA_2 1_555 1_555
H2CA_2 C4CA_2 1_555 1_555
H2GB_2 C4GB_2 1_555 1_555
H2EA_2 C4EA_2 1_555 1_555
H2XA_2 C4XA_2 1_555 1_555
H2Z_2 C4Z_2 1_555 1_555
H2H_2 C4H_2 1_555 1_555
H2DC_2 C4DC_2 1_555 1_555
H2J C4J 1_555 1_555
H2BC C4BC 1_555 1_555
H2_2 C4_2 1_555 1_555
H2CC_2 C4CC_2 1_555 1_555
H2G_2 C4G_2 1_555 1_555
H2EC_2 C4EC_2 1_555 1_555
H2F C4F 1_555 1_555
H2XB C4XB 1_555 1_555
H2A C4A 1_555 1_555
H2UB C4UB 1_555 1_555
H2G_3 C4G_3 1_555 1_555
H2EC_3 C4EC_3 1_555 1_555
H2H_3 C4H_3 1_555 1_555
H2DC_3 C4DC_3 1_555 1_555
H2_3 C4_3 1_555 1_555
H2CC_3 C4CC_3 1_555 1_555
C5XA C4Z 1_555 1_555
C5VA C4GA 1_555 1_555
C5WA C4WA 1_555 1_555
C5GB C4EA 1_555 1_555
C5YA C4CA 1_555 1_555
C5DB C4HA 1_555 1_555
C5CB C4IA 1_555 1_555
C5FB C4FB 1_555 1_555
C5BB C4BB 1_555 1_555
C5G C4G 1_555 1_555
C5H C4H 1_555 1_555
C5YA_2 C4YA_2 1_555 1_555
C5GB_2 C4GB_2 1_555 1_555
C5XA_2 C4XA_2 1_555 1_555
C5H_2 C4H_2 1_555 1_555
C5J C4J 1_555 1_555
C5_2 C4_2 1_555 1_555
C5G_2 C4G_2 1_555 1_555
C5F C4F 1_555 1_555
C5A C4A 1_555 1_555
C5G_3 C4G_3 1_555 1_555
C5H_3 C4H_3 1_555 1_555
C5_3 C4_3 1_555 1_555
C6G N1 1_555 1_555
C6XA C5XA 1_555 1_555
C6VA C5VA 1_555 1_555
C6WA C5WA 1_555 1_555
C6GB N1GB 1_555 1_555
C6YA N1XA 1_555 1_555
C6DB N1DB 1_555 1_555
C6CB N1VA 1_555 1_555
C6FB N1WA 1_555 1_555
C6BB N1BB 1_555 1_555
C6H N1H 1_555 1_555
C6YA_2 C5YA_2 1_555 1_555
C6GB_2 N1YA_2 1_555 1_555
C6XA_2 N1XA_2 1_555 1_555
C6H_2 C5H_2 1_555 1_555
C6J C5J 1_555 1_555
C6_2 N1H_2 1_555 1_555
C6G_2 N1G_2 1_555 1_555
C6F N1J 1_555 1_555
C6A N1A 1_555 1_555
C6G_3 C5G_3 1_555 1_555
C6H_3 N1G_3 1_555 1_555
C6_3 N1_3 1_555 1_555
Fe1B O1CC 1_555 1_555
Fe1BC_2 O2C 1_555 1_555
Fe1H O2C 1_555 1_555
Fe1ZB_3 O2E 1_555 1_555
Fe1C_2 O2C 1_555 1_555
Fe1G_3 O2E 1_555 1_555
Fe1K_3 O2E 1_555 1_555
O1XA C1XA 1_555 1_555
O1VA C1VA 1_555 1_555
O1WA C1WA 1_555 1_555
O1CA_2 C1YA_2 1_555 1_555
O1J C1J 1_555 1_555
O1DC_2 C1H_2 1_555 1_555
O1G_3 C1G_3 1_555 1_555
N1YA C6YA 1_555 1_555
N1CB C6CB 1_555 1_555
N1FB C6BB 1_555 1_555
N1G C6H 1_555 1_555
N1GB_2 C6XA_2 1_555 1_555
N1_2 C6G_2 1_555 1_555
N1F C6A 1_555 1_555
N1H_3 C6_3 1_555 1_555
C3CC C4CC 1_555 1_555
C4XA C5XA 1_555 1_555
C4VA C5VA 1_555 1_555
C4Y C5WA 1_555 1_555
C4GB C5GB 1_555 1_555
C4YA C5YA 1_555 1_555
C4DB C5DB 1_555 1_555
C4CB C5CB 1_555 1_555
C4FA C5FB 1_555 1_555
C4BA C5BB 1_555 1_555
C4EC C5G 1_555 1_555
C4DC C5H 1_555 1_555
C4CA_2 C5YA_2 1_555 1_555
C4EA_2 C5GB_2 1_555 1_555
C4Z_2 C5XA_2 1_555 1_555
C4DC_2 C5H_2 1_555 1_555
C4BC C5J 1_555 1_555
C4CC_2 C5_2 1_555 1_555
C4EC_2 C5G_2 1_555 1_555
C4XB C5F 1_555 1_555
C4UB C5A 1_555 1_555
C4EC_3 C5G_3 1_555 1_555
C4DC_3 C5H_3 1_555 1_555
C4CC_3 C5_3 1_555 1_555
C5GB C6GB 1_555 1_555
C5YA C6YA 1_555 1_555
C5DB C6DB 1_555 1_555
C5CB C6CB 1_555 1_555
C5FB C6FB 1_555 1_555
C5BB C6BB 1_555 1_555
C5G C6G 1_555 1_555
C5H C6H 1_555 1_555
C5GB_2 C6GB_2 1_555 1_555
C5XA_2 C6XA_2 1_555 1_555
C5_2 C6_2 1_555 1_555
C5G_2 C6G_2 1_555 1_555
C5F C6F 1_555 1_555
C5A C6A 1_555 1_555
C5H_3 C6H_3 1_555 1_555
C5_3 C6_3 1_555 1_555

#END
