
#######################################################################
#
#                 Cambridge Crystallographic Data Centre
#                                CCDC 
#
#######################################################################
#
# If this CIF has been generated from an entry in the Cambridge 
# Structural Database, then it will include bibliographic, chemical, 
# crystal, experimental, refinement or atomic coordinate data resulting 
# from the CCDC's data processing and validation procedures.
#
#######################################################################

data_RUMRUO
_symmetry_cell_setting           monoclinic
_symmetry_space_group_name_H-M   'P 2/m'
_symmetry_Int_Tables_number      10
_space_group_name_Hall           '-P 2y'
loop_
_symmetry_equiv_pos_site_id
_symmetry_equiv_pos_as_xyz
1 x,y,z
2 -x,y,-z
3 -x,-y,-z
4 x,-y,z
_cell_length_a                   6.5576(4)
_cell_length_b                   9.7150(6)
_cell_length_c                   8.6358(6)
_cell_angle_alpha                90
_cell_angle_beta                 90.579(4)
_cell_angle_gamma                90
_cell_volume                     550.134
loop_
_atom_site_label
_atom_site_type_symbol
_atom_site_fract_x
_atom_site_fract_y
_atom_site_fract_z
C2 C 0.5000(8) 0.0000(6) 1.5000(7)
C3 C 0.1570(8) 0.0000(6) 1.5067(7)
N6 N 0.3518(8) 0.0506(6) 1.4373(7)
C3A C 0.8430(8) 0.0000(6) 1.4933(7)
N6A N 0.6482(8) 0.0506(6) 1.5627(7)
N6B N 0.6482(8) -0.0506(6) 1.5627(7)
N6C N 0.3518(8) -0.0506(6) 1.4373(7)
Zn1 Zn 0.29709(13) 0.5000 0.59708(10)
Zn2 Zn 0.0000 0.0000 1.0000
Zn3 Zn 0.5000 0.0000 1.0000
F1 F 0.2579(7) 0.0000 1.1383(5)
F2 F 0.3852(7) 0.5000 0.3822(6)
F3 F 0.0000 0.5000 0.5000
N1 N 0.1415(7) 0.1557(5) 0.8626(5)
N2 N 0.4157(7) 0.2550(5) 0.7767(6)
N3 N 0.3480(7) 0.1557(5) 0.8610(5)
N4 N 0.2530(7) 0.3241(4) 0.7171(5)
C1 C 0.0856(8) 0.2612(6) 0.7728(7)
N5 N -0.1095(8) 0.2952(6) 0.7376(7)
H1 H -0.2083 0.2472 0.7740
H2 H -0.1347 0.3647 0.6788
Zn1A Zn -0.29709(13) 0.5000 0.40292(10)
F2A F -0.3852(7) 0.5000 0.6178(6)
N1A N -0.1415(7) 0.1557(5) 0.1374(5)
N2A N -0.4157(7) 0.2550(5) 0.2233(6)
N3A N -0.3480(7) 0.1557(5) 0.1390(5)
N4A N -0.2530(7) 0.3241(4) 0.2829(5)
C1A C -0.0856(8) 0.2612(6) 0.2272(7)
N5A N 0.1095(8) 0.2952(6) 0.2624(7)
H1A H 0.2083 0.2472 0.2260
H2A H 0.1347 0.3647 0.3212
N1C N 0.1415(7) -0.1557(5) 0.8626(5)
N2C N 0.4157(7) -0.2550(5) 0.7767(6)
N3C N 0.3480(7) -0.1557(5) 0.8610(5)
N4C N 0.2530(7) -0.3241(4) 0.7171(5)
C1C C 0.0856(8) -0.2612(6) 0.7728(7)
N5C N -0.1095(8) -0.2952(6) 0.7376(7)
H1C H -0.2083 -0.2472 0.7740
H2C H -0.1347 -0.3647 0.6788
N1C_2 N 0.1415(7) 0.8443(5) 0.8626(5)
N2C_2 N 0.4157(7) 0.7450(5) 0.7767(6)
N3C_2 N 0.3480(7) 0.8443(5) 0.8610(5)
N4C_2 N 0.2530(7) 0.6759(4) 0.7171(5)
C1C_2 C 0.0856(8) 0.7388(6) 0.7728(7)
N5C_2 N -0.1095(8) 0.7048(6) 0.7376(7)
H1C_2 H -0.2083 0.7528 0.7740
H2C_2 H -0.1347 0.6353 0.6788
F1A F -0.2579(7) 0.0000 0.8617(5)
Zn1_2 Zn -0.70291(13) 0.5000 0.59708(10)
Zn1_3 Zn 0.29709(13) -0.5000 0.59708(10)
Zn1A_2 Zn 0.70291(13) 0.5000 0.40292(10)
Zn2_2 Zn 0.0000 0.0000 0.0000
Zn2_3 Zn 0.0000 1.0000 1.0000
Zn3_2 Zn -0.5000 0.0000 0.0000
Zn3_3 Zn -0.5000 0.0000 1.0000
Zn3_4 Zn 0.5000 1.0000 1.0000
F1A_2 F 0.7421(7) 0.0000 0.8617(5)
F2_2 F -0.6148(7) 0.5000 0.3822(6)
F2A_2 F 0.6148(7) 0.5000 0.6178(6)
N1A_2 N -0.1415(7) 0.1557(5) 1.1374(5)
N1B N -0.1415(7) -0.1557(5) 1.1374(5)
N3A_2 N 0.6520(7) 0.1557(5) 1.1390(5)
N3B N 0.6520(7) -0.1557(5) 1.1390(5)
N4B N -0.2530(7) 0.6759(4) 0.2829(5)
loop_
_geom_bond_atom_site_label_1
_geom_bond_atom_site_label_2
_geom_bond_site_symmetry_1
_geom_bond_site_symmetry_2
Zn1 F2 1_555 1_555
Zn2 F1 1_555 1_555
Zn3 F1 1_555 1_555
F2 Zn1A_2 1_555 1_555
F3 Zn1 1_555 1_555
N1 Zn2 1_555 1_555
N2 N3 1_555 1_555
N3 Zn3 1_555 1_555
N4 Zn1 1_555 1_555
C1 N1 1_555 1_555
N5 C1 1_555 1_555
H1 N5 1_555 1_555
H2 N5 1_555 1_555
C2 N6 1_555 1_555
C3 N6 1_555 1_555
N6 N6C 1_555 1_555
Zn1A F3 1_555 1_555
F2A Zn1A 1_555 1_555
N1A N3A 1_555 1_555
N2A N3A 1_555 1_555
N3A Zn3_2 1_555 1_555
N4A Zn1A 1_555 1_555
C1A N1A 1_555 1_555
N5A C1A 1_555 1_555
H1A N5A 1_555 1_555
H2A N5A 1_555 1_555
N1C Zn2 1_555 1_555
N2C N3C 1_555 1_555
N3C Zn3 1_555 1_555
N4C N2C 1_555 1_555
C1C N1C 1_555 1_555
N5C C1C 1_555 1_555
H1C N5C 1_555 1_555
H2C N5C 1_555 1_555
N1C_2 N3C_2 1_555 1_555
N2C_2 N3C_2 1_555 1_555
N3C_2 Zn3_4 1_555 1_555
N4C_2 Zn1 1_555 1_555
C1C_2 N1C_2 1_555 1_555
N5C_2 C1C_2 1_555 1_555
H1C_2 N5C_2 1_555 1_555
H2C_2 N5C_2 1_555 1_555
F1A Zn2 1_555 1_555
Zn1_2 F2A 1_555 1_555
Zn1_3 N4C 1_555 1_555
Zn1A_2 F2A_2 1_555 1_555
Zn2_2 N1A 1_555 1_555
Zn2_3 N1C_2 1_555 1_555
Zn3_3 F1A 1_555 1_555
F1A_2 Zn3 1_555 1_555
F2_2 Zn1A 1_555 1_555
F2A_2 Zn1 1_555 1_555
N1A_2 Zn2 1_555 1_555
N1B Zn2 1_555 1_555
N3A_2 Zn3 1_555 1_555
N3B Zn3 1_555 1_555
N4B Zn1A 1_555 1_555
C3A N6A 1_555 1_555
N6A C2 1_555 1_555
N6B C2 1_555 1_555
N6C C2 1_555 1_555
N1 N3 1_555 1_555
N2 N4 1_555 1_555
N4 C1 1_555 1_555
C3 N6C 1_555 1_555
N2A N4A 1_555 1_555
N4A C1A 1_555 1_555
N1C N3C 1_555 1_555
N4C C1C 1_555 1_555
N2C_2 N4C_2 1_555 1_555
N4C_2 C1C_2 1_555 1_555
Zn1_2 F2_2 1_555 1_555
C3A N6B 1_555 1_555
N6A N6B 1_555 1_555

#END
