
#######################################################################
#
#                 Cambridge Crystallographic Data Centre
#                                CCDC 
#
#######################################################################
#
# If this CIF has been generated from an entry in the Cambridge 
# Structural Database, then it will include bibliographic, chemical, 
# crystal, experimental, refinement or atomic coordinate data resulting 
# from the CCDC's data processing and validation procedures.
#
#######################################################################

data_RUMWUS
_symmetry_cell_setting           monoclinic
_symmetry_space_group_name_H-M   'C c'
_symmetry_Int_Tables_number      9
_space_group_name_Hall           'C -2yc'
loop_
_symmetry_equiv_pos_site_id
_symmetry_equiv_pos_as_xyz
1 x,y,z
2 x,-y,1/2+z
3 1/2+x,1/2+y,z
4 1/2+x,1/2-y,1/2+z
_cell_length_a                   18.9594(15)
_cell_length_b                   18.4485(15)
_cell_length_c                   13.177(4)
_cell_angle_alpha                90
_cell_angle_beta                 104.204(3)
_cell_angle_gamma                90
_cell_volume                     4468.05
loop_
_atom_site_label
_atom_site_type_symbol
_atom_site_fract_x
_atom_site_fract_y
_atom_site_fract_z
Zn1 Zn 0.82785(2) 0.53538(3) 0.99627(3)
O1 O 0.47830(16) 0.5452(2) 0.4890(3)
C1 C 0.3598(2) 0.5342(2) 0.3817(3)
Zn2 Zn 0.81249(3) 0.42349(3) 0.80871(4)
O2 O 0.3342(2) 0.43564(16) 0.2600(3)
C2 C 0.4041(2) 0.5534(3) 0.4907(4)
H1 H 0.3945 0.6029 0.5080
H2 H 0.3921 0.5213 0.5422
O3 O 0.25421(16) 0.5069(2) 0.4460(3)
C3 C 0.3733(2) 0.4537(2) 0.3622(4)
H3 H 0.4249 0.4454 0.3698
H4 H 0.3574 0.4238 0.4128
O4 O 0.3756(2) 0.65382(17) 0.3263(3)
C4 C 0.2790(2) 0.5480(3) 0.3706(4)
H5 H 0.2709 0.5992 0.3805
H6 H 0.2517 0.5345 0.3008
O5 O 0.69717(19) 0.5473(2) 0.9389(3)
C5 C 0.3812(3) 0.5803(2) 0.2985(4)
H7 H 0.4306 0.5693 0.2954
H8 H 0.3490 0.5706 0.2304
O6 O 0.77127(15) 0.51992(17) 0.8407(3)
C6 C 0.5301(2) 0.5452(3) 0.5807(4)
O7 O 0.3311(2) 0.09458(19) 0.1669(3)
C7 C 0.5174(2) 0.5534(3) 0.6785(4)
H9 H 0.4705 0.5615 0.6859
O8 O 0.3241(2) 0.14273(19) 0.0146(3)
C8 C 0.6017(2) 0.5361(3) 0.5707(4)
H10 H 0.6106 0.5324 0.5046
O9 O -0.0684(2) 0.4685(2) 0.4903(4)
C9 C 0.5754(2) 0.5495(3) 0.7657(4)
H11 H 0.5670 0.5543 0.8320
O10 O -0.0856(2) 0.5365(3) 0.3472(4)
C10 C 0.6573(2) 0.5326(3) 0.6565(4)
H12 H 0.7044 0.5262 0.6488
O11 O 0.3299(3) 0.8648(2) -0.0601(3)
C11 C 0.6460(2) 0.5385(2) 0.7560(4)
O12 O 0.3198(2) 0.94227(19) 0.0646(3)
C12 C 0.7063(2) 0.5351(2) 0.8516(4)
C13 C 0.3350(2) 0.3646(2) 0.2295(3)
C14 C 0.3746(2) 0.3104(2) 0.2921(4)
H13 H 0.4029 0.3209 0.3587
O13 O 0.7133(2) 0.3730(2) 0.7581(4)
H14 H 0.6837 0.4060 0.7299
C15 C 0.2937(3) 0.3492(2) 0.1302(4)
H15 H 0.2668 0.3856 0.0895
C16 C 0.3706(3) 0.2399(2) 0.2524(4)
H16 H 0.3958 0.2029 0.2939
C17 C 0.2923(3) 0.2800(3) 0.0915(4)
H17 H 0.2660 0.2700 0.0235
C18 C 0.3306(2) 0.2242(3) 0.1541(4)
C19 C 0.3281(2) 0.1499(2) 0.1109(4)
C20 C 0.1806(2) 0.5085(3) 0.4363(4)
C21 C 0.1568(3) 0.4757(4) 0.5162(6)
H18 H 0.1902 0.4549 0.5723
C22 C 0.1322(3) 0.5410(5) 0.3544(6)
H19 H 0.1485 0.5656 0.3028
C23 C 0.0831(3) 0.4739(5) 0.5126(6)
H20 H 0.0672 0.4520 0.5665
C24 C 0.0579(3) 0.5366(5) 0.3498(7)
H21 H 0.0245 0.5558 0.2922
C25 C 0.0329(3) 0.5045(4) 0.4290(5)
C26 C -0.0462(3) 0.5032(4) 0.4225(5)
C27 C 0.3662(3) 0.7061(2) 0.2505(4)
C28 C 0.3671(4) 0.6939(3) 0.1480(4)
H22 H 0.3749 0.6475 0.1256
C29 C 0.3544(3) 0.7753(3) 0.2835(4)
H23 H 0.3538 0.7836 0.3529
C30 C 0.3563(4) 0.7506(3) 0.0794(4)
H24 H 0.3577 0.7421 0.0103
C31 C 0.3435(4) 0.8318(3) 0.2125(4)
H25 H 0.3362 0.8784 0.2349
C32 C 0.3434(3) 0.8203(3) 0.1090(4)
C33 C 0.3300(3) 0.8803(3) 0.0311(4)
C34 C 0.6960(11) 0.3173(13) 0.7722(16)
H26 H 0.7105 0.3141 0.8480
H27 H 0.7313 0.2880 0.7484
C35 C 0.6273(13) 0.2681(15) 0.7455(18)
H28 H 0.6395 0.2185 0.7639
H29 H 0.6051 0.2713 0.6719
H30 H 0.5938 0.2854 0.7841
Zn1B Zn 0.32785(2) 0.03538(3) -0.00373(3)
Zn1A Zn -0.17215(2) 0.46462(3) 0.49627(3)
Zn1B_2 Zn 0.32785(2) 1.03538(3) -0.00373(3)
Zn2C Zn 0.31249(3) 0.07651(3) 0.30871(4)
Zn2A Zn -0.18751(3) 0.57651(3) 0.30871(4)
Zn2B Zn 0.31249(3) 0.92349(3) -0.19129(4)
O7B O 0.8311(2) 0.59458(19) 1.1669(3)
O7C O 0.8311(2) 0.40542(19) 0.6669(3)
O8B O 0.8241(2) 0.64273(19) 1.0146(3)
O9A O 0.9316(2) 0.5315(2) 0.9903(4)
O10A O 0.9144(2) 0.4635(3) 0.8472(4)
O11B O 0.8299(3) 0.3648(2) 0.9399(3)
O12B O 0.8198(2) 0.44227(19) 1.0646(3)
O14 O 0.6473(8) 0.6485(9) 1.0560(12)
O15 O 0.5115(17) 0.7855(19) 0.585(2)
O16 O 0.1913(16) 0.337(2) 0.687(2)
loop_
_geom_bond_atom_site_label_1
_geom_bond_atom_site_label_2
_geom_bond_site_symmetry_1
_geom_bond_site_symmetry_2
Zn1 O5 1_555 1_555
O1 C2 1_555 1_555
C1 C2 1_555 1_555
Zn2 O6 1_555 1_555
O2 C3 1_555 1_555
C2 H1 1_555 1_555
H2 C2 1_555 1_555
O3 C4 1_555 1_555
C3 C1 1_555 1_555
H3 C3 1_555 1_555
H4 C3 1_555 1_555
O4 C5 1_555 1_555
C4 C1 1_555 1_555
H5 C4 1_555 1_555
H6 C4 1_555 1_555
O5 C12 1_555 1_555
C5 C1 1_555 1_555
H7 C5 1_555 1_555
H8 C5 1_555 1_555
O6 Zn1 1_555 1_555
C6 O1 1_555 1_555
O7 C19 1_555 1_555
C7 C6 1_555 1_555
H9 C7 1_555 1_555
O8 C19 1_555 1_555
C8 C6 1_555 1_555
H10 C8 1_555 1_555
O9 C26 1_555 1_555
C9 C7 1_555 1_555
H11 C9 1_555 1_555
O10 C26 1_555 1_555
C10 C8 1_555 1_555
H12 C10 1_555 1_555
O11 C33 1_555 1_555
C11 C9 1_555 1_555
O12 C33 1_555 1_555
C12 O6 1_555 1_555
C13 O2 1_555 1_555
C14 C13 1_555 1_555
H13 C14 1_555 1_555
O13 Zn2 1_555 1_555
H14 O13 1_555 1_555
C15 C13 1_555 1_555
H15 C15 1_555 1_555
C16 C14 1_555 1_555
H16 C16 1_555 1_555
C17 C15 1_555 1_555
H17 C17 1_555 1_555
C18 C16 1_555 1_555
C19 C18 1_555 1_555
C20 O3 1_555 1_555
C21 C20 1_555 1_555
H18 C21 1_555 1_555
C22 C20 1_555 1_555
H19 C22 1_555 1_555
C23 C21 1_555 1_555
H20 C23 1_555 1_555
C24 C22 1_555 1_555
H21 C24 1_555 1_555
C25 C23 1_555 1_555
C26 C25 1_555 1_555
C27 O4 1_555 1_555
C28 C27 1_555 1_555
H22 C28 1_555 1_555
C29 C27 1_555 1_555
H23 C29 1_555 1_555
C30 C28 1_555 1_555
H24 C30 1_555 1_555
C31 C29 1_555 1_555
H25 C31 1_555 1_555
C32 C30 1_555 1_555
C33 C32 1_555 1_555
C34 O13 1_555 1_555
H26 C34 1_555 1_555
H27 C34 1_555 1_555
C35 C34 1_555 1_555
H28 C35 1_555 1_555
H29 C35 1_555 1_555
H30 C35 1_555 1_555
Zn1B O7 1_555 1_555
Zn1A O9 1_555 1_555
Zn1B_2 O12 1_555 1_555
Zn2C O7 1_555 1_555
Zn2A O10 1_555 1_555
Zn2B O11 1_555 1_555
O7B Zn1 1_555 1_555
O7C Zn2 1_555 1_555
O8B Zn1 1_555 1_555
O9A Zn1 1_555 1_555
O10A Zn2 1_555 1_555
O11B Zn2 1_555 1_555
O12B Zn1 1_555 1_555
O8 Zn1B 1_555 1_555
C10 C11 1_555 1_555
C11 C12 1_555 1_555
C17 C18 1_555 1_555
C24 C25 1_555 1_555
C31 C32 1_555 1_555

#END
