
#######################################################################
#
#                 Cambridge Crystallographic Data Centre
#                                CCDC 
#
#######################################################################
#
# If this CIF has been generated from an entry in the Cambridge 
# Structural Database, then it will include bibliographic, chemical, 
# crystal, experimental, refinement or atomic coordinate data resulting 
# from the CCDC's data processing and validation procedures.
#
#######################################################################

data_RUPZIM
_symmetry_cell_setting           orthorhombic
_symmetry_space_group_name_H-M   'P 21 21 21'
_symmetry_Int_Tables_number      19
_space_group_name_Hall           'P 2ac 2ab'
loop_
_symmetry_equiv_pos_site_id
_symmetry_equiv_pos_as_xyz
1 x,y,z
2 1/2-x,-y,1/2+z
3 -x,1/2+y,1/2-z
4 1/2+x,1/2-y,-z
_cell_length_a                   7.6145(2)
_cell_length_b                   11.1330(3)
_cell_length_c                   16.8688(4)
_cell_angle_alpha                90
_cell_angle_beta                 90
_cell_angle_gamma                90
_cell_volume                     1430.01
loop_
_atom_site_label
_atom_site_type_symbol
_atom_site_fract_x
_atom_site_fract_y
_atom_site_fract_z
Zn1 Zn 0.10229(13) 0.14092(8) 0.96158(4)
O1 O 0.1336(7) 0.1678(5) 1.0767(3)
C1 C 0.0856(12) -0.0850(6) 1.3065(4)
C2 C 0.1843(10) 0.1323(7) 1.2384(4)
H1 H 0.2166 0.2052 1.2159
O2 O 0.0228(8) -0.0135(5) 1.0619(3)
C3 C 0.1107(11) 0.0450(6) 1.1918(4)
C4 C 0.2004(11) 0.4351(7) 0.6752(5)
H2 H 0.2449 0.3926 0.6321
N1 N 0.1988(10) -0.0194(6) 1.4356(3)
C5 C 0.1311(10) 0.4437(7) 0.8145(4)
C6 C 0.0626(10) 0.5571(7) 0.8024(4)
H3 H 0.0158 0.5992 0.8451
C7 C 0.2111(11) 0.1130(7) 1.3190(4)
H4 H 0.2593 0.1730 1.3505
O3 O 0.1773(9) 0.2769(5) 0.8979(3)
C8 C 0.1354(10) 0.5498(7) 0.6642(4)
C9 C 0.0872(12) 0.0661(7) 1.1065(4)
N2 N 0.1436(8) 0.6083(5) 0.5874(3)
C10 C 0.0622(10) 0.6099(7) 0.7273(4)
H5 H 0.0126 0.6854 0.7200
C11 C 0.1996(10) 0.3823(6) 0.7504(4)
H6 H 0.2454 0.3056 0.7573
C12 C 0.1648(10) 0.0023(7) 1.3517(4)
C13 C 0.0620(10) -0.0643(7) 1.2260(4)
H7 H 0.0130 -0.1240 1.1944
C14 C 0.1273(11) 0.3839(7) 0.8945(4)
O4 O 0.0825(8) 0.4446(5) 0.9536(3)
H8 H 0.061(7) -0.174(5) 1.331(3)
Zn1A Zn 0.39771(13) -0.14092(8) 1.46158(4)
Zn1B Zn -0.10229(13) 0.64092(8) 0.53842(4)
N1A N 0.3012(10) 0.0194(6) 0.9356(3)
N2B N -0.1436(8) 0.1083(5) 0.9126(3)
O5 O 0.059(8) 0.247(2) 1.4920(8)
loop_
_geom_bond_atom_site_label_1
_geom_bond_atom_site_label_2
_geom_bond_site_symmetry_1
_geom_bond_site_symmetry_2
Zn1 O1 1_555 1_555
O1 C9 1_555 1_555
C1 C12 1_555 1_555
C2 H1 1_555 1_555
O2 Zn1 1_555 1_555
C3 C2 1_555 1_555
C4 H2 1_555 1_555
N1 C12 1_555 1_555
C5 C6 1_555 1_555
C6 H3 1_555 1_555
C7 C2 1_555 1_555
H4 C7 1_555 1_555
O3 Zn1 1_555 1_555
C8 C4 1_555 1_555
C9 O2 1_555 1_555
N2 C8 1_555 1_555
C10 C6 1_555 1_555
H5 C10 1_555 1_555
C11 C4 1_555 1_555
H6 C11 1_555 1_555
C12 C7 1_555 1_555
C13 C1 1_555 1_555
H7 C13 1_555 1_555
C14 C5 1_555 1_555
O4 C14 1_555 1_555
H8 C1 1_555 1_555
Zn1A N1 1_555 1_555
Zn1B N2 1_555 1_555
N1A Zn1 1_555 1_555
N2B Zn1 1_555 1_555
C3 C9 1_555 1_555
C3 C13 1_555 1_555
C5 C11 1_555 1_555
O3 C14 1_555 1_555
C8 C10 1_555 1_555

#END
