
#######################################################################
#
#                 Cambridge Crystallographic Data Centre
#                                CCDC 
#
#######################################################################
#
# If this CIF has been generated from an entry in the Cambridge 
# Structural Database, then it will include bibliographic, chemical, 
# crystal, experimental, refinement or atomic coordinate data resulting 
# from the CCDC's data processing and validation procedures.
#
#######################################################################

data_RUSCUF
_symmetry_cell_setting           hexagonal
_symmetry_space_group_name_H-M   'P 63/m'
_symmetry_Int_Tables_number      176
_space_group_name_Hall           '-P 6c'
loop_
_symmetry_equiv_pos_site_id
_symmetry_equiv_pos_as_xyz
1 x,y,z
2 x-y,x,1/2+z
3 -y,x-y,z
4 -x,-y,1/2+z
5 -x+y,-x,z
6 y,-x+y,1/2+z
7 -x,-y,-z
8 -x+y,-x,1/2-z
9 y,-x+y,-z
10 x,y,1/2-z
11 x-y,x,-z
12 -y,x-y,1/2-z
_cell_length_a                   16.7612(16)
_cell_length_b                   16.7612(16)
_cell_length_c                   6.8980(9)
_cell_angle_alpha                90
_cell_angle_beta                 90
_cell_angle_gamma                120
_cell_volume                     1678.28
loop_
_atom_site_label
_atom_site_type_symbol
_atom_site_fract_x
_atom_site_fract_y
_atom_site_fract_z
Zn1 Zn 0.6667 0.3333 0.00190(14)
O1 O 0.1270(3) -0.0461(3) 0.2500
C1 C 0.0642(4) -0.0199(4) 0.2500
N1 N 0.0909(3) 0.0689(3) 0.2500
C2 C 0.2216(4) 0.0217(4) 0.2500
C3 C 0.4062(4) 0.1494(5) 0.2500
C4 C 0.2661(3) 0.0522(4) 0.4243(9)
H1 H 0.2338 0.0296 0.5431
C5 C 0.3585(4) 0.1162(4) 0.4233(10)
H2 H 0.3902 0.1382 0.5428
O2 O 0.5445(3) 0.2454(3) 0.0867(9)
C6 C 0.5053(6) 0.2183(6) 0.2500
O3 O 0.6160(11) 0.2788(9) -0.2500
H3 H 0.5616 0.2201 -0.2500
O1B O 0.0461(3) 0.1731(4) 0.2500
C1B C 0.0199(4) 0.0841(6) 0.2500
N1B N -0.0689(3) 0.0220(4) 0.2500
C2B C -0.0217(4) 0.1999(6) 0.2500
C3B C -0.1494(5) 0.2568(6) 0.2500
C4B C -0.0522(4) 0.2139(5) 0.4243(9)
H1B H -0.0296 0.2042 0.5431
C5B C -0.1162(4) 0.2423(6) 0.4233(10)
H2B H -0.1382 0.2520 0.5428
O2B O -0.2454(3) 0.2991(4) 0.0867(9)
C6B C -0.2183(6) 0.2870(8) 0.2500
O1D O -0.1731(4) -0.1270(3) 0.2500
C1D C -0.0841(6) -0.0642(4) 0.2500
N1D N -0.0220(4) -0.0909(3) 0.2500
C2D C -0.1999(6) -0.2216(4) 0.2500
C3D C -0.2568(6) -0.4062(4) 0.2500
C4D C -0.2139(5) -0.2661(3) 0.4243(9)
H1D H -0.2042 -0.2338 0.5431
C5D C -0.2423(6) -0.3585(4) 0.4233(10)
H2D H -0.2520 -0.3902 0.5428
O2D O -0.2991(4) -0.5445(3) 0.0867(9)
C6D C -0.2870(8) -0.5053(6) 0.2500
C4G C -0.2139(5) -0.2661(3) 0.0757(9)
H1G H -0.2042 -0.2338 -0.0431
C5G C -0.2423(6) -0.3585(4) 0.0767(10)
H2G H -0.2520 -0.3902 -0.0428
O2G O -0.2991(4) -0.5445(3) 0.4133(9)
C4I C 0.2661(3) 0.0522(4) 0.0757(9)
H1I H 0.2338 0.0296 -0.0431
C5I C 0.3585(4) 0.1162(4) 0.0767(10)
H2I H 0.3902 0.1382 -0.0428
O2I O 0.5445(3) 0.2454(3) 0.4133(9)
C4K C -0.0522(4) 0.2139(5) 0.0757(9)
H1K H -0.0296 0.2042 -0.0431
C5K C -0.1162(4) 0.2423(6) 0.0767(10)
H2K H -0.1382 0.2520 -0.0428
O2K O -0.2454(3) 0.2991(4) 0.4133(9)
O3B O 0.7212(9) 0.3372(14) -0.2500
H3B H 0.7799 0.3415 -0.2500
O3D O 0.6628(14) 0.3840(11) -0.2500
H3D H 0.6585 0.4384 -0.2500
Zn1G Zn 0.6666 0.3333 -0.50190(14)
Zn1_2 Zn -0.3333 -0.6667 0.00190(14)
Zn1_3 Zn -0.3333 0.3333 0.00190(14)
Zn1G_2 Zn -0.3334 -0.6667 0.49810(14)
Zn1G_3 Zn -0.3334 0.3333 0.49810(14)
Zn1G_4 Zn 0.6666 0.3333 0.49810(14)
O2B_2 O 0.7546(3) 0.2991(4) 0.0867(9)
O2D_2 O 0.7009(4) 0.4555(3) 0.0867(9)
O2G_2 O 0.7009(4) 0.4555(3) -0.5867(9)
O2I_2 O 0.5445(3) 0.2454(3) -0.5867(9)
O2K_2 O 0.7546(3) 0.2991(4) -0.5867(9)
loop_
_geom_bond_atom_site_label_1
_geom_bond_atom_site_label_2
_geom_bond_site_symmetry_1
_geom_bond_site_symmetry_2
Zn1 O2 1_555 1_555
O1 C1 1_555 1_555
C1 N1 1_555 1_555
N1 C1B 1_555 1_555
C2 O1 1_555 1_555
C3 C5 1_555 1_555
C4 C2 1_555 1_555
H1 C4 1_555 1_555
C5 C4 1_555 1_555
H2 C5 1_555 1_555
O2 C6 1_555 1_555
C6 C3 1_555 1_555
O3 Zn1 1_555 1_555
H3 O3 1_555 1_555
O1B C1B 1_555 1_555
C1B N1B 1_555 1_555
N1B C1D 1_555 1_555
C2B O1B 1_555 1_555
C3B C5B 1_555 1_555
C4B C2B 1_555 1_555
H1B C4B 1_555 1_555
C5B C4B 1_555 1_555
H2B C5B 1_555 1_555
O2B C6B 1_555 1_555
C6B C3B 1_555 1_555
O1D C1D 1_555 1_555
C1D N1D 1_555 1_555
N1D C1 1_555 1_555
C2D O1D 1_555 1_555
C3D C5D 1_555 1_555
C4D C2D 1_555 1_555
H1D C4D 1_555 1_555
C5D C4D 1_555 1_555
H2D C5D 1_555 1_555
O2D C6D 1_555 1_555
C6D C3D 1_555 1_555
C4G C2D 1_555 1_555
H1G C4G 1_555 1_555
C5G C3D 1_555 1_555
H2G C5G 1_555 1_555
O2G C6D 1_555 1_555
C4I C2 1_555 1_555
H1I C4I 1_555 1_555
C5I C3 1_555 1_555
H2I C5I 1_555 1_555
O2I C6 1_555 1_555
C4K C2B 1_555 1_555
H1K C4K 1_555 1_555
C5K C3B 1_555 1_555
H2K C5K 1_555 1_555
O2K C6B 1_555 1_555
O3B Zn1 1_555 1_555
H3B O3B 1_555 1_555
O3D Zn1 1_555 1_555
H3D O3D 1_555 1_555
Zn1G O3 1_555 1_555
Zn1_2 O2D 1_555 1_555
Zn1_3 O2B 1_555 1_555
Zn1G_2 O2G 1_555 1_555
Zn1G_3 O2K 1_555 1_555
Zn1G_4 O2I 1_555 1_555
O2B_2 Zn1 1_555 1_555
O2D_2 Zn1 1_555 1_555
O2G_2 Zn1G 1_555 1_555
O2I_2 Zn1G 1_555 1_555
O2K_2 Zn1G 1_555 1_555
O3 O3B 1_555 1_555
O3 O3D 1_555 1_555
C4G C5G 1_555 1_555
C4I C5I 1_555 1_555
C4K C5K 1_555 1_555
O3B O3D 1_555 1_555
O3B Zn1G 1_555 1_555
O3D Zn1G 1_555 1_555

#END
