
#######################################################################
#
#                 Cambridge Crystallographic Data Centre
#                                CCDC 
#
#######################################################################
#
# If this CIF has been generated from an entry in the Cambridge 
# Structural Database, then it will include bibliographic, chemical, 
# crystal, experimental, refinement or atomic coordinate data resulting 
# from the CCDC's data processing and validation procedures.
#
#######################################################################

data_RUSSAA
_symmetry_cell_setting           monoclinic
_symmetry_space_group_name_H-M   'P 21/c'
_symmetry_Int_Tables_number      14
_space_group_name_Hall           '-P 2ybc'
loop_
_symmetry_equiv_pos_site_id
_symmetry_equiv_pos_as_xyz
1 x,y,z
2 -x,1/2+y,1/2-z
3 -x,-y,-z
4 x,1/2-y,1/2+z
_cell_length_a                   11.152(4)
_cell_length_b                   6.958(2)
_cell_length_c                   26.118(9)
_cell_angle_alpha                90
_cell_angle_beta                 97.896(7)
_cell_angle_gamma                90
_cell_volume                     2007.43
loop_
_atom_site_label
_atom_site_type_symbol
_atom_site_fract_x
_atom_site_fract_y
_atom_site_fract_z
Cd1 Cd 0.37005(2) 0.16761(3) 0.126393(8)
Co1 Co 0.50424(3) 0.91769(6) 0.249800(14)
N1 N 0.3561(2) 0.5099(4) 0.13948(10)
N2 N 0.4104(2) 0.7608(4) 0.18599(9)
N3 N 0.3794(2) 0.8242(4) 0.13764(10)
C1 C 0.3463(3) 0.6665(4) 0.10972(12)
N4 N 0.3976(2) 0.5751(4) 0.18726(10)
O1 O 0.4287(2) 0.7576(4) -0.11430(9)
O2 O 0.5619(2) 0.8021(4) -0.04587(9)
C2 C 0.3931(3) 0.7166(4) 0.02107(12)
H1 H 0.4692 0.7602 0.0353
C3 C -0.0069(3) 0.0109(5) 0.11317(13)
C4 C -0.0850(3) 0.0051(5) 0.14985(13)
H2 H -0.0598 0.0489 0.1832
C5 C 0.3642(3) 0.7053(5) -0.03203(12)
C6 C 0.3097(3) 0.6634(4) 0.05332(12)
C7 C 0.4574(3) 0.7579(5) -0.06577(13)
O3 O 0.1617(2) 0.1138(4) 0.17297(11)
C8 C 0.2500(3) 0.6428(5) -0.05316(13)
H3 H 0.2295 0.6353 -0.0888
C9 C -0.2402(3) -0.1315(5) 0.08698(15)
H4 H -0.3181 -0.1799 0.0785
C10 C -0.2013(3) -0.0666(5) 0.13655(13)
O4 O 0.1784(2) 0.1215(4) 0.08951(10)
C11 C 0.1961(3) 0.5995(5) 0.03200(13)
H5 H 0.1401 0.5622 0.0534
C12 C 0.1664(3) 0.5915(6) -0.02081(14)
H6 H 0.0895 0.5512 -0.0350
C13 C -0.2826(3) -0.0692(5) 0.17497(13)
N5 N -0.3473(2) -0.0696(4) 0.20516(11)
C14 C 0.1197(3) 0.0885(5) 0.12618(15)
O5 O 0.42587(18) 0.1659(3) 0.21560(8)
O6 O 0.3579(2) 0.9102(4) 0.29317(10)
H7 H 0.374(3) 0.855(5) 0.3223(8)
H8 H 0.2895(19) 0.865(5) 0.2808(13)
C15 C -0.1629(3) -0.1241(6) 0.05023(15)
H9 H -0.1886 -0.1649 0.0166
C16 C -0.0463(3) -0.0551(5) 0.06391(14)
H10 H 0.0066 -0.0532 0.0393
Cd1_2 Cd 0.37005(2) 1.16761(3) 0.126393(8)
Cd1B Cd 0.62995(2) 0.83239(3) -0.126393(8)
Co1A Co 0.49576(3) 0.41769(6) 0.250200(14)
Co1_2 Co -0.49576(3) -0.08231(6) 0.249800(14)
Co1_3 Co 0.50424(3) -0.08231(6) 0.249800(14)
N3_2 N 0.3794(2) -0.1758(4) 0.13764(10)
N4A N 0.6024(2) 1.0751(4) 0.31274(10)
O1B O 0.5713(2) 0.2424(4) 0.11430(9)
O2B O 0.4381(2) 0.1979(4) 0.04587(9)
N5_2 N 0.6527(2) 0.9304(4) 0.20516(11)
O5_2 O 0.42587(18) 1.1659(3) 0.21560(8)
O5A O 0.57413(18) 0.6659(3) 0.28440(8)
O7 O 0.8663(3) 0.3261(4) 0.25598(12)
H11 H 0.896(6) 0.222(5) 0.269(2)
H12 H 0.871(6) 0.405(7) 0.2807(16)
O8 O 0.0596(4) 0.4764(5) 0.2052(2)
H13 H 0.093(5) 0.374(4) 0.194(3)
H14 H -0.008(3) 0.436(8) 0.213(3)
loop_
_geom_bond_atom_site_label_1
_geom_bond_atom_site_label_2
_geom_bond_site_symmetry_1
_geom_bond_site_symmetry_2
Cd1 N1 1_555 1_555
Co1 N2 1_555 1_555
N1 C1 1_555 1_555
N2 N3 1_555 1_555
N3 C1 1_555 1_555
C1 C6 1_555 1_555
N4 N1 1_555 1_555
O1 C7 1_555 1_555
O2 C7 1_555 1_555
C2 H1 1_555 1_555
C3 C4 1_555 1_555
C4 H2 1_555 1_555
C5 C2 1_555 1_555
C6 C2 1_555 1_555
C7 C5 1_555 1_555
O3 C14 1_555 1_555
C8 C5 1_555 1_555
H3 C8 1_555 1_555
C9 H4 1_555 1_555
C10 C4 1_555 1_555
O4 Cd1 1_555 1_555
C11 C6 1_555 1_555
H5 C11 1_555 1_555
C12 C8 1_555 1_555
H6 C12 1_555 1_555
C13 C10 1_555 1_555
N5 C13 1_555 1_555
C14 C3 1_555 1_555
O5 Cd1 1_555 1_555
O6 Co1 1_555 1_555
H7 O6 1_555 1_555
H8 O6 1_555 1_555
C15 C9 1_555 1_555
H9 C15 1_555 1_555
C16 C3 1_555 1_555
H10 C16 1_555 1_555
O7 H11 1_555 1_555
O8 H13 1_555 1_555
H12 O7 1_555 1_555
H14 O8 1_555 1_555
Cd1_2 N3 1_555 1_555
Cd1B O1 1_555 1_555
Co1A N4 1_555 1_555
Co1_2 N5 1_555 1_555
Co1_3 O5 1_555 1_555
N3_2 Cd1 1_555 1_555
N4A Co1 1_555 1_555
O1B Cd1 1_555 1_555
O2B Cd1 1_555 1_555
N5_2 Co1 1_555 1_555
O5_2 Co1 1_555 1_555
O5A Co1 1_555 1_555
N2 N4 1_555 1_555
O2 Cd1B 1_555 1_555
C9 C10 1_555 1_555
O4 C14 1_555 1_555
C11 C12 1_555 1_555
O5 Co1A 1_555 1_555
C15 C16 1_555 1_555
Cd1_2 O5_2 1_555 1_555
Co1A O5A 1_555 1_555

#END
