
#######################################################################
#
#                 Cambridge Crystallographic Data Centre
#                                CCDC 
#
#######################################################################
#
# If this CIF has been generated from an entry in the Cambridge 
# Structural Database, then it will include bibliographic, chemical, 
# crystal, experimental, refinement or atomic coordinate data resulting 
# from the CCDC's data processing and validation procedures.
#
#######################################################################

data_RUTPAY01
_symmetry_cell_setting           rhombohedral
_symmetry_space_group_name_H-M   'R -3 c'
_symmetry_Int_Tables_number      167
_space_group_name_Hall           '-R 3 2"c'
loop_
_symmetry_equiv_pos_site_id
_symmetry_equiv_pos_as_xyz
1 x,y,z
2 -y,x-y,z
3 -x+y,-x,z
4 y,x,1/2-z
5 x-y,-y,1/2-z
6 -x,-x+y,1/2-z
7 2/3+x,1/3+y,1/3+z
8 2/3-y,1/3+x-y,1/3+z
9 2/3-x+y,1/3-x,1/3+z
10 2/3+y,1/3+x,5/6-z
11 2/3+x-y,1/3-y,5/6-z
12 2/3-x,1/3-x+y,5/6-z
13 1/3+x,2/3+y,2/3+z
14 1/3-y,2/3+x-y,2/3+z
15 1/3-x+y,2/3-x,2/3+z
16 1/3+y,2/3+x,1/6-z
17 1/3+x-y,2/3-y,1/6-z
18 1/3-x,2/3-x+y,1/6-z
19 -x,-y,-z
20 y,-x+y,-z
21 x-y,x,-z
22 -y,-x,1/2+z
23 -x+y,y,1/2+z
24 x,x-y,1/2+z
25 1/3-x,2/3-y,2/3-z
26 1/3+y,2/3-x+y,2/3-z
27 1/3+x-y,2/3+x,2/3-z
28 1/3-y,2/3-x,1/6+z
29 1/3-x+y,2/3+y,1/6+z
30 1/3+x,2/3+x-y,1/6+z
31 2/3-x,1/3-y,1/3-z
32 2/3+y,1/3-x+y,1/3-z
33 2/3+x-y,1/3+x,1/3-z
34 2/3-y,1/3-x,5/6+z
35 2/3-x+y,1/3+y,5/6+z
36 2/3+x,1/3+x-y,5/6+z
_cell_length_a                   31.0845(4)
_cell_length_b                   31.0845(4)
_cell_length_c                   71.018(2)
_cell_angle_alpha                90
_cell_angle_beta                 90
_cell_angle_gamma                120
_cell_volume                     59427.4
loop_
_atom_site_label
_atom_site_type_symbol
_atom_site_fract_x
_atom_site_fract_y
_atom_site_fract_z
C1 C -0.6134(5) -0.3847(5) 0.1184(3)
C2 C -0.5945(5) -0.4057(5) 0.1502(4)
H1 H -0.6156 -0.3953 0.1550
C3 C -0.5704(8) -0.4206(6) 0.1625(3)
H2 H -0.5739 -0.4192 0.1755
C4 C -0.5404(8) -0.4378(5) 0.1548(3)
C5 C -0.5344(6) -0.4401(5) 0.1361(3)
H3 H -0.5149 -0.4523 0.1311
C6 C -0.5596(6) -0.4231(5) 0.1245(2)
H4 H -0.5557 -0.4239 0.1116
C7 C -0.5889(6) -0.4056(5) 0.1309(3)
C8 C -0.5149(7) -0.4573(9) 0.1673(3)
C9 C -0.5085(9) -0.5309(7) 0.1756(3)
H5 H -0.5213 -0.5648 0.1739
C10 C -0.5265(6) -0.5056(11) 0.1646(2)
H6 H -0.5478 -0.5230 0.1548
C11 C -0.4604(9) -0.4570(12) 0.1933(3)
C12 C -0.3867(9) -0.6103(9) 0.2300(3)
C13 C -0.4722(8) -0.5061(9) 0.1890(3)
C14 C -0.4252(8) -0.3742(8) 0.2025(4)
C15 C -0.4791(9) -0.4320(11) 0.1811(4)
C16 C -0.4619(5) -0.3421(6) 0.1798(2)
H7 H -0.4601 -0.3425 0.1663
H8 H -0.4355 -0.3110 0.1844
H9 H -0.4933 -0.3459 0.1835
C17 C -0.4024(6) -0.4258(6) 0.2222(2)
H10 H -0.3771 -0.4324 0.2178
H11 H -0.4257 -0.4530 0.2298
H12 H -0.3874 -0.3958 0.2295
C18 C -0.4499(13) -0.5329(12) 0.2006(3)
C19 C -0.4557(13) -0.5979(7) 0.2193(3)
H13 H -0.4749 -0.6283 0.2252
C20 C -0.3993(13) -0.5132(6) 0.2003(2)
H14 H -0.3802 -0.4847 0.1932
C21 C -0.3748(7) -0.5343(11) 0.2102(4)
H15 H -0.3404 -0.5198 0.2102
C22 C -0.4039(13) -0.5759(11) 0.2194(2)
C23 C -0.4789(8) -0.5751(11) 0.2105(4)
H16 H -0.5130 -0.5882 0.2114
I1 I -0.46209(5) -0.33966(5) 0.238520(18)
I2 I -0.31491(6) -0.29682(6) 0.19399(3)
N1 N -0.4295(5) -0.4196(10) 0.2053(2)
N2 N -0.4568(8) -0.3830(9) 0.1876(2)
N3 N -0.3431(5) -0.2549(7) 0.2330(3)
C24 C -0.3275(8) -0.2597(6) 0.2508(3)
H17 H -0.3390 -0.2910 0.2560
C25 C -0.2945(8) -0.2176(10) 0.2609(2)
H18 H -0.2840 -0.2208 0.2728
C26 C -0.2772(7) -0.1707(7) 0.2531(3)
H19 H -0.2552 -0.1425 0.2599
C27 C -0.2929(9) -0.1659(6) 0.2353(3)
H20 H -0.2813 -0.1345 0.2301
C28 C -0.3258(8) -0.2080(10) 0.22523(19)
H21 H -0.3363 -0.2047 0.2133
O1 O -0.6667 -0.3333 0.08911(12)
O2 O -0.6407(3) -0.3726(3) 0.12742(11)
O3 O -0.6048(3) -0.3847(3) 0.10197(15)
O4 O -0.4154(3) -0.6511(6) 0.23565(15)
O5 O -0.3400(5) -0.5798(4) 0.23307(12)
Pd1 Pd -0.38604(5) -0.31574(5) 0.21750(2)
Zn1 Zn -0.6667 -0.3333 0.11625(3)
Zn2 Zn -0.62897(6) -0.36369(6) 0.07990(2)
C1A C -0.6153(5) -0.2287(7) 0.1184(3)
C1B C -0.7713(7) -0.3866(5) 0.1184(3)
C2A C -0.5943(5) -0.1888(7) 0.1502(4)
C2B C -0.8112(7) -0.4055(5) 0.1502(4)
H1A H -0.6047 -0.2203 0.1550
H1B H -0.7797 -0.3844 0.1550
C3A C -0.5794(6) -0.1498(10) 0.1625(3)
C3B C -0.8502(10) -0.4296(8) 0.1625(3)
H2A H -0.5808 -0.1547 0.1755
H2B H -0.8453 -0.4261 0.1755
C4A C -0.5622(5) -0.1026(9) 0.1548(3)
C4B C -0.8974(9) -0.4596(8) 0.1548(3)
C5A C -0.5599(5) -0.0943(8) 0.1361(3)
C5B C -0.9057(8) -0.4656(6) 0.1361(3)
H3A H -0.5477 -0.0626 0.1311
H3B H -0.9374 -0.4851 0.1311
C6A C -0.5769(5) -0.1365(8) 0.1245(2)
C6B C -0.8635(8) -0.4404(6) 0.1245(2)
H4A H -0.5761 -0.1318 0.1116
H4B H -0.8682 -0.4443 0.1116
C7A C -0.5944(5) -0.1833(8) 0.1309(3)
C7B C -0.8167(8) -0.4111(6) 0.1309(3)
C8A C -0.5427(9) -0.0576(11) 0.1673(3)
C8B C -0.9424(11) -0.4851(7) 0.1673(3)
C9A C -0.4691(7) 0.0224(11) 0.1756(3)
C9B C -1.0224(11) -0.4915(9) 0.1756(3)
H5A H -0.4352 0.0435 0.1739
H5B H -1.0435 -0.4787 0.1739
C10A C -0.4944(11) -0.0209(13) 0.1646(2)
C10B C -0.9791(13) -0.4735(6) 0.1646(2)
H6A H -0.4770 -0.0248 0.1548
H6B H -0.9752 -0.4522 0.1548
C11A C -0.5430(12) -0.0034(15) 0.1933(3)
C11B C -0.9966(15) -0.5396(9) 0.1933(3)
C12A C -0.3897(9) 0.2236(13) 0.2300(3)
C12B C -1.2236(13) -0.6133(9) 0.2300(3)
C13A C -0.4939(9) 0.0339(12) 0.1890(3)
C13B C -1.0339(12) -0.5278(8) 0.1890(3)
C14A C -0.6258(8) -0.0510(11) 0.2025(4)
C14B C -0.9490(11) -0.5748(8) 0.2025(4)
C15A C -0.5680(11) -0.0471(14) 0.1811(4)
C15B C -0.9529(14) -0.5209(9) 0.1811(4)
C16A C -0.6579(6) -0.1198(8) 0.1798(2)
C16B C -0.8802(8) -0.5381(5) 0.1798(2)
H7A H -0.6575 -0.1176 0.1663
H7B H -0.8824 -0.5399 0.1663
H8A H -0.6890 -0.1245 0.1844
H8B H -0.8755 -0.5645 0.1844
H9A H -0.6541 -0.1474 0.1835
H9B H -0.8526 -0.5067 0.1835
C17A C -0.5742(6) 0.0234(8) 0.2222(2)
C17B C -1.0234(8) -0.5976(6) 0.2222(2)
H10A H -0.5676 0.0553 0.2178
H10B H -1.0553 -0.6229 0.2178
H11A H -0.5470 0.0273 0.2298
H11B H -1.0273 -0.5743 0.2298
H12A H -0.6042 0.0084 0.2295
H12B H -1.0084 -0.6126 0.2295
C18A C -0.4671(12) 0.0830(18) 0.2006(3)
C18B C -1.0830(18) -0.5501(13) 0.2006(3)
C19A C -0.4021(7) 0.1422(15) 0.2193(3)
C19B C -1.1422(15) -0.5443(13) 0.2193(3)
H13A H -0.3717 0.1534 0.2252
H13B H -1.1534 -0.5251 0.2252
C20A C -0.4868(6) 0.1139(14) 0.2003(2)
C20B C -1.1139(14) -0.6007(13) 0.2003(2)
H14A H -0.5153 0.1045 0.1932
H14B H -1.1045 -0.6198 0.1932
C21A C -0.4657(11) 0.1595(13) 0.2102(4)
C21B C -1.1595(13) -0.6252(7) 0.2102(4)
H15A H -0.4802 0.1794 0.2102
H15B H -1.1794 -0.6596 0.2102
C22A C -0.4241(11) 0.1720(17) 0.2194(2)
C22B C -1.1720(17) -0.5961(13) 0.2194(2)
C23A C -0.4249(11) 0.0962(14) 0.2105(4)
C23B C -1.0962(14) -0.5211(8) 0.2105(4)
H16A H -0.4118 0.0752 0.2114
H16B H -1.0752 -0.4870 0.2114
I1A I -0.66034(5) -0.12243(7) 0.238520(18)
I1B I -0.87757(7) -0.53791(5) 0.238520(18)
I2A I -0.70318(6) -0.01809(8) 0.19399(3)
I2B I -0.98191(8) -0.68509(6) 0.19399(3)
N1A N -0.5804(10) -0.0099(11) 0.2053(2)
N1B N -0.9901(11) -0.5705(5) 0.2053(2)
N2A N -0.6170(9) -0.0738(12) 0.1876(2)
N2B N -0.9262(12) -0.5432(8) 0.1876(2)
N3A N -0.7451(7) -0.0882(9) 0.2330(3)
N3B N -0.9118(9) -0.6569(5) 0.2330(3)
C24A C -0.7403(6) -0.0678(10) 0.2508(3)
C24B C -0.9322(10) -0.6725(8) 0.2508(3)
H17A H -0.7090 -0.0480 0.2560
H17B H -0.9520 -0.6610 0.2560
C25A C -0.7824(10) -0.0769(13) 0.2609(2)
C25B C -0.9231(13) -0.7055(8) 0.2609(2)
H18A H -0.7792 -0.0632 0.2728
H18B H -0.9368 -0.7160 0.2728
C26A C -0.8293(7) -0.1065(10) 0.2531(3)
C26B C -0.8935(10) -0.7228(7) 0.2531(3)
H19A H -0.8575 -0.1127 0.2599
H19B H -0.8873 -0.7448 0.2599
C27A C -0.8341(6) -0.1270(11) 0.2353(3)
C27B C -0.8730(11) -0.7071(9) 0.2353(3)
H20A H -0.8655 -0.1468 0.2301
H20B H -0.8532 -0.7187 0.2301
C28A C -0.7920(10) -0.1178(13) 0.22523(19)
C28B C -0.8822(13) -0.6742(8) 0.22523(19)
H21A H -0.7953 -0.1316 0.2133
H21B H -0.8684 -0.6637 0.2133
O2A O -0.6274(3) -0.2681(4) 0.12742(11)
O2B O -0.7319(4) -0.3593(3) 0.12742(11)
O3A O -0.6153(3) -0.2201(4) 0.10197(15)
O3B O -0.7799(4) -0.3952(3) 0.10197(15)
O4HA O -0.5690(7) -0.3178(6) 0.06898(15)
O4GA O -0.6822(6) -0.2513(3) 0.06898(15)
O4IA O -0.7487(3) -0.4310(7) 0.06898(15)
O4A O -0.3489(6) 0.2357(7) 0.23565(15)
O4B O -1.2357(7) -0.5846(3) 0.23565(15)
O5IA O -0.6733(5) -0.4269(6) 0.06640(12)
O5HA O -0.5731(6) -0.2465(4) 0.06640(12)
O5GA O -0.7535(4) -0.3267(5) 0.06640(12)
O5A O -0.4202(4) 0.2398(6) 0.23307(12)
O5B O -1.2398(6) -0.6600(5) 0.23307(12)
Pd1A Pd -0.68426(5) -0.07030(7) 0.21750(2)
Pd1B Pd -0.92970(7) -0.61396(5) 0.21750(2)
Zn2BA Zn -0.40139(8) -0.69702(6) 0.24657(2)
Zn2A Zn -0.63631(6) -0.26528(8) 0.07990(2)
Zn2B Zn -0.73472(8) -0.37103(6) 0.07990(2)
Zn2CA Zn -0.29564(6) -0.59861(8) 0.24657(2)
Zn2AA Zn -0.30298(6) 0.29564(6) 0.24657(2)
Zn2BA_2 Zn -0.40139(8) 0.30298(6) 0.24657(2)
Zn2CA_2 Zn -1.29564(6) -0.59861(8) 0.24657(2)
Zn2AA_2 Zn -1.30298(6) -0.70436(6) 0.24657(2)
loop_
_geom_bond_atom_site_label_1
_geom_bond_atom_site_label_2
_geom_bond_site_symmetry_1
_geom_bond_site_symmetry_2
C1 C7 1_555 1_555
C2 H1 1_555 1_555
C3 C2 1_555 1_555
H2 C3 1_555 1_555
C4 C3 1_555 1_555
C5 C4 1_555 1_555
H3 C5 1_555 1_555
C6 C5 1_555 1_555
H4 C6 1_555 1_555
C7 C2 1_555 1_555
C8 C4 1_555 1_555
C9 H5 1_555 1_555
C10 C8 1_555 1_555
H6 C10 1_555 1_555
C11 C13 1_555 1_555
C12 C22 1_555 1_555
C13 C9 1_555 1_555
C14 N1 1_555 1_555
C15 C8 1_555 1_555
C16 H7 1_555 1_555
H8 C16 1_555 1_555
H9 C16 1_555 1_555
C17 H10 1_555 1_555
H11 C17 1_555 1_555
H12 C17 1_555 1_555
C18 C13 1_555 1_555
C19 H13 1_555 1_555
C20 C18 1_555 1_555
H14 C20 1_555 1_555
C21 C20 1_555 1_555
H15 C21 1_555 1_555
C22 C19 1_555 1_555
C23 C18 1_555 1_555
H16 C23 1_555 1_555
I1 Pd1 1_555 1_555
I2 Pd1 1_555 1_555
N1 C11 1_555 1_555
N2 C14 1_555 1_555
N3 C24 1_555 1_555
C24 H17 1_555 1_555
C25 C24 1_555 1_555
H18 C25 1_555 1_555
C26 C25 1_555 1_555
H19 C26 1_555 1_555
C27 C26 1_555 1_555
H20 C27 1_555 1_555
C28 N3 1_555 1_555
H21 C28 1_555 1_555
O1 Zn1 1_555 1_555
O2 C1 1_555 1_555
O3 C1 1_555 1_555
O4 C12 1_555 1_555
O5 C12 1_555 1_555
Pd1 C14 1_555 1_555
Zn1 O2 1_555 1_555
Zn2 O1 1_555 1_555
C1A C7A 1_555 1_555
C1B C7B 1_555 1_555
C2A H1A 1_555 1_555
C2B H1B 1_555 1_555
C3A C2A 1_555 1_555
C3B C2B 1_555 1_555
H2A C3A 1_555 1_555
H2B C3B 1_555 1_555
C4A C3A 1_555 1_555
C4B C3B 1_555 1_555
C5A C4A 1_555 1_555
C5B C4B 1_555 1_555
H3A C5A 1_555 1_555
H3B C5B 1_555 1_555
C6A C5A 1_555 1_555
C6B C5B 1_555 1_555
H4A C6A 1_555 1_555
H4B C6B 1_555 1_555
C7A C2A 1_555 1_555
C7B C2B 1_555 1_555
C8A C4A 1_555 1_555
C8B C4B 1_555 1_555
C9A H5A 1_555 1_555
C9B H5B 1_555 1_555
C10A C8A 1_555 1_555
C10B C8B 1_555 1_555
H6A C10A 1_555 1_555
H6B C10B 1_555 1_555
C11A C13A 1_555 1_555
C11B C13B 1_555 1_555
C12A C22A 1_555 1_555
C12B C22B 1_555 1_555
C13A C9A 1_555 1_555
C13B C9B 1_555 1_555
C14A N1A 1_555 1_555
C14B N1B 1_555 1_555
C15A C8A 1_555 1_555
C15B C8B 1_555 1_555
C16A H7A 1_555 1_555
C16B H7B 1_555 1_555
H8A C16A 1_555 1_555
H8B C16B 1_555 1_555
H9A C16A 1_555 1_555
H9B C16B 1_555 1_555
C17A H10A 1_555 1_555
C17B H10B 1_555 1_555
H11A C17A 1_555 1_555
H11B C17B 1_555 1_555
H12A C17A 1_555 1_555
H12B C17B 1_555 1_555
C18A C13A 1_555 1_555
C18B C13B 1_555 1_555
C19A H13A 1_555 1_555
C19B H13B 1_555 1_555
C20A C18A 1_555 1_555
C20B C18B 1_555 1_555
H14A C20A 1_555 1_555
H14B C20B 1_555 1_555
C21A C20A 1_555 1_555
C21B C20B 1_555 1_555
H15A C21A 1_555 1_555
H15B C21B 1_555 1_555
C22A C19A 1_555 1_555
C22B C19B 1_555 1_555
C23A C18A 1_555 1_555
C23B C18B 1_555 1_555
H16A C23A 1_555 1_555
H16B C23B 1_555 1_555
I1A Pd1A 1_555 1_555
I1B Pd1B 1_555 1_555
I2A Pd1A 1_555 1_555
I2B Pd1B 1_555 1_555
N1A C11A 1_555 1_555
N1B C11B 1_555 1_555
N2A C14A 1_555 1_555
N2B C14B 1_555 1_555
N3A C24A 1_555 1_555
N3B C24B 1_555 1_555
C24A H17A 1_555 1_555
C24B H17B 1_555 1_555
C25A C24A 1_555 1_555
C25B C24B 1_555 1_555
H18A C25A 1_555 1_555
H18B C25B 1_555 1_555
C26A C25A 1_555 1_555
C26B C25B 1_555 1_555
H19A C26A 1_555 1_555
H19B C26B 1_555 1_555
C27A C26A 1_555 1_555
C27B C26B 1_555 1_555
H20A C27A 1_555 1_555
H20B C27B 1_555 1_555
C28A N3A 1_555 1_555
C28B N3B 1_555 1_555
H21A C28A 1_555 1_555
H21B C28B 1_555 1_555
O2A Zn1 1_555 1_555
O2B Zn1 1_555 1_555
O3A C1A 1_555 1_555
O3B C1B 1_555 1_555
O4HA Zn2 1_555 1_555
O4GA Zn2A 1_555 1_555
O4IA Zn2B 1_555 1_555
O4A C12A 1_555 1_555
O4B C12B 1_555 1_555
O5IA Zn2 1_555 1_555
O5HA Zn2A 1_555 1_555
O5GA Zn2B 1_555 1_555
O5A C12A 1_555 1_555
O5B C12B 1_555 1_555
Pd1A C14A 1_555 1_555
Pd1B C14B 1_555 1_555
Zn2BA O4 1_555 1_555
Zn2A O1 1_555 1_555
Zn2B O1 1_555 1_555
Zn2CA O5 1_555 1_555
Zn2AA O4A 1_555 1_555
Zn2BA_2 O5A 1_555 1_555
Zn2CA_2 O4B 1_555 1_555
Zn2AA_2 O5B 1_555 1_555
C6 C7 1_555 1_555
C9 C10 1_555 1_555
C11 C15 1_555 1_555
C15 N2 1_555 1_555
C16 N2 1_555 1_555
C17 N1 1_555 1_555
C19 C23 1_555 1_555
C21 C22 1_555 1_555
N3 Pd1 1_555 1_555
C27 C28 1_555 1_555
O3 Zn2 1_555 1_555
C1A O2A 1_555 1_555
C1B O2B 1_555 1_555
C6A C7A 1_555 1_555
C6B C7B 1_555 1_555
C9A C10A 1_555 1_555
C9B C10B 1_555 1_555
C11A C15A 1_555 1_555
C11B C15B 1_555 1_555
C15A N2A 1_555 1_555
C15B N2B 1_555 1_555
C16A N2A 1_555 1_555
C16B N2B 1_555 1_555
C17A N1A 1_555 1_555
C17B N1B 1_555 1_555
C19A C23A 1_555 1_555
C19B C23B 1_555 1_555
C21A C22A 1_555 1_555
C21B C22B 1_555 1_555
N3A Pd1A 1_555 1_555
N3B Pd1B 1_555 1_555
C27A C28A 1_555 1_555
C27B C28B 1_555 1_555
O3A Zn2A 1_555 1_555
O3B Zn2B 1_555 1_555

#END
