
#######################################################################
#
#                 Cambridge Crystallographic Data Centre
#                                CCDC 
#
#######################################################################
#
# If this CIF has been generated from an entry in the Cambridge 
# Structural Database, then it will include bibliographic, chemical, 
# crystal, experimental, refinement or atomic coordinate data resulting 
# from the CCDC's data processing and validation procedures.
#
#######################################################################

data_RUWXEN
_symmetry_cell_setting           triclinic
_symmetry_space_group_name_H-M   'P -1'
_symmetry_Int_Tables_number      2
_space_group_name_Hall           '-P 1'
loop_
_symmetry_equiv_pos_site_id
_symmetry_equiv_pos_as_xyz
1 x,y,z
2 -x,-y,-z
_cell_length_a                   9.404(3)
_cell_length_b                   9.957(5)
_cell_length_c                   11.459(8)
_cell_angle_alpha                93.381(5)
_cell_angle_beta                 97.716(4)
_cell_angle_gamma                110.242(5)
_cell_volume                     991.154
loop_
_atom_site_label
_atom_site_type_symbol
_atom_site_fract_x
_atom_site_fract_y
_atom_site_fract_z
La1 La 0.21553(5) -0.54726(5) 0.51807(4)
O1 O 0.4436(7) -0.3356(6) 0.5343(5)
O2 O 0.6756(6) -0.2661(6) 0.4815(5)
O3 O 1.0407(7) 0.2452(6) 0.6157(5)
O4 O 0.9164(6) 0.3924(6) 0.5757(5)
O5 O 0.4415(6) 0.1045(6) 0.7744(5)
O6 O 0.7879(7) 0.3899(7) 1.2976(5)
O7 O 0.6212(7) 0.5005(6) 1.2679(5)
C1 C 0.5717(9) -0.2432(9) 0.5312(7)
C2 C 0.6098(8) -0.0924(8) 0.5906(7)
C3 C 0.5080(8) -0.0614(8) 0.6569(7)
H1 H 0.4173 -0.1334 0.6666
C4 C 0.5447(9) 0.0777(9) 0.7074(7)
C5 C 0.6731(9) 0.1886(8) 0.6900(7)
H2 H 0.6921 0.2827 0.7213
C6 C 0.7762(9) 0.1567(8) 0.6232(7)
C7 C 0.9196(9) 0.2713(9) 0.6038(7)
C8 C 0.7452(8) 0.0173(8) 0.5760(7)
H3 H 0.8144 -0.0041 0.5343
C9 C 0.5044(9) 0.1778(8) 0.8877(7)
C10 C 0.4354(10) 0.2680(9) 0.9293(7)
H4 H 0.3544 0.2814 0.8816
C11 C 0.4894(10) 0.3400(10) 1.0456(8)
H5 H 0.4404 0.3976 1.0759
C12 C 0.6139(9) 0.3254(8) 1.1143(7)
C13 C 0.6778(9) 0.4101(9) 1.2337(7)
C14 C 0.6795(10) 0.2293(9) 1.0710(7)
H6 H 0.7603 0.2152 1.1183
C15 C 0.6237(10) 0.1544(9) 0.9565(7)
H7 H 0.6665 0.0904 0.9279
O8 O 0.0093(7) -0.7198(7) 0.3545(6)
O9 O 0.3139(7) -0.5429(8) 0.3163(6)
H13 H -0.056(8) -0.690(9) 0.309(6)
H16 H 0.413(5) -0.523(15) 0.310(13)
H17 H 0.28(2) -0.49(4) 0.26(3)
H18 H -0.021(15) -0.816(2) 0.339(12)
La1A La 0.78447(5) -0.45274(5) 0.48193(4)
La1_2 La 1.21553(5) 0.45274(5) 0.51807(4)
La1A_2 La 0.78447(5) 0.54726(5) 0.48193(4)
La1A_3 La 0.78447(5) 0.54726(5) 1.48193(4)
O2A O 0.3244(6) -0.7339(6) 0.5185(5)
O3_2 O 0.0407(7) -0.7548(6) 0.6157(5)
O4A O 0.0836(6) -0.3924(6) 0.4243(5)
O4_2 O -0.0836(6) -0.6076(6) 0.5757(5)
O6A O 0.2121(7) -0.3899(7) 0.7024(5)
O7A O 0.3788(7) -0.5005(6) 0.7321(5)
N1 N 0.965(5) 0.902(7) 0.994(4)
C16 C 0.889(4) 0.833(4) 0.881(4)
H8 H 0.8650 0.8783 0.8159
C17 C 0.856(3) 0.690(4) 0.882(3)
H9 H 0.8060 0.6321 0.8114
C18 C 0.890(2) 0.618(3) 0.9783(18)
H10 H 0.8605 0.5186 0.9636
C19 C 0.959(3) 0.676(3) 1.087(2)
H11 H 0.9793 0.6287 1.1511
C20 C 0.995(5) 0.829(4) 1.086(6)
H12 H 1.0448 0.8855 1.1572
O10 O 0.1114(8) 0.0127(7) 0.6956(7)
H14 H 0.213(4) 0.059(14) 0.717(13)
H15 H 0.084(18) 0.089(11) 0.681(14)
O11 O 1.042(4) 0.510(3) 1.105(3)
loop_
_geom_bond_atom_site_label_1
_geom_bond_atom_site_label_2
_geom_bond_site_symmetry_1
_geom_bond_site_symmetry_2
La1 O1 1_555 1_555
O1 C1 1_555 1_555
O2 C1 1_555 1_555
O3 C7 1_555 1_555
O4 C7 1_555 1_555
O5 C4 1_555 1_555
O6 C13 1_555 1_555
O7 C13 1_555 1_555
N1 C16 1_555 1_555
C1 C2 1_555 1_555
C2 C3 1_555 1_555
C3 H1 1_555 1_555
C4 C3 1_555 1_555
C5 C4 1_555 1_555
H2 C5 1_555 1_555
C6 C5 1_555 1_555
C7 C6 1_555 1_555
C8 C2 1_555 1_555
H3 C8 1_555 1_555
C9 O5 1_555 1_555
C10 C9 1_555 1_555
H4 C10 1_555 1_555
C11 C10 1_555 1_555
H5 C11 1_555 1_555
C12 C11 1_555 1_555
C13 C12 1_555 1_555
C14 C12 1_555 1_555
H6 C14 1_555 1_555
C15 C9 1_555 1_555
H7 C15 1_555 1_555
C16 H8 1_555 1_555
C17 C16 1_555 1_555
H9 C17 1_555 1_555
C18 C17 1_555 1_555
H10 C18 1_555 1_555
C19 C18 1_555 1_555
H11 C19 1_555 1_555
C20 N1 1_555 1_555
H12 C20 1_555 1_555
O8 La1 1_555 1_555
O9 La1 1_555 1_555
O10 H14 1_555 1_555
H13 O8 1_555 1_555
H15 O10 1_555 1_555
H16 O9 1_555 1_555
H17 O9 1_555 1_555
H18 O8 1_555 1_555
La1A O2 1_555 1_555
La1_2 O3 1_555 1_555
La1A_2 O4 1_555 1_555
La1A_3 O6 1_555 1_555
O2A La1 1_555 1_555
O3_2 La1 1_555 1_555
O4A La1 1_555 1_555
O4_2 La1 1_555 1_555
O6A La1 1_555 1_555
O7A La1 1_555 1_555
O4 La1_2 1_555 1_555
O7 La1A_3 1_555 1_555
C6 C8 1_555 1_555
C14 C15 1_555 1_555
C19 C20 1_555 1_555

#END
