
#######################################################################
#
#                 Cambridge Crystallographic Data Centre
#                                CCDC 
#
#######################################################################
#
# If this CIF has been generated from an entry in the Cambridge 
# Structural Database, then it will include bibliographic, chemical, 
# crystal, experimental, refinement or atomic coordinate data resulting 
# from the CCDC's data processing and validation procedures.
#
#######################################################################

data_SADLIU
_symmetry_cell_setting           tetragonal
_symmetry_space_group_name_H-M   'P 41 2 2'
_symmetry_Int_Tables_number      91
_space_group_name_Hall           'P 4w 2c'
loop_
_symmetry_equiv_pos_site_id
_symmetry_equiv_pos_as_xyz
1 x,y,z
2 -x,-y,1/2+z
3 -y,x,1/4+z
4 y,-x,3/4+z
5 -x,y,-z
6 x,-y,1/2-z
7 y,x,3/4-z
8 -y,-x,1/4-z
_cell_length_a                   10.2410(3)
_cell_length_b                   10.2410(3)
_cell_length_c                   14.4026(5)
_cell_angle_alpha                90
_cell_angle_beta                 90
_cell_angle_gamma                90
_cell_volume                     1510.52
loop_
_atom_site_label
_atom_site_type_symbol
_atom_site_fract_x
_atom_site_fract_y
_atom_site_fract_z
Yb1 Yb 0.14713(3) 0.14713(3) 0.8750
O1 O 0.3323(5) 0.0722(7) 0.8080(4)
O2 O 0.9319(7) 0.1113(6) 0.9013(5)
O3 O 0.7584(6) 0.0922(6) 0.9888(4)
O4 O 0.3135(7) 0.3135(7) 0.8750
C1 C 0.3864(10) 0.0000 0.7500
C2 C 0.5342(9) 0.0000 0.7500
C3 C 0.6019(6) 0.0433(8) 0.8281(5)
H1 H 0.5565 0.0733 0.8798
C4 C 0.7383(6) 0.0414(7) 0.8282(4)
C5 C 0.8041(10) 0.0000 0.7500
H2 H 0.8949 0.0000 0.7500
C6 C 0.8158(7) 0.0849(8) 0.9123(5)
Yb1B Yb 0.85287(3) 0.14713(3) 1.1250
Yb1_2 Yb 1.14713(3) 0.14713(3) 0.8750
Yb1A Yb -0.14713(3) -0.14713(3) 1.3750
Yb1A_2 Yb 0.85287(3) -0.14713(3) 0.3750
Yb1A_3 Yb 0.85287(3) -0.14713(3) 1.3750
Yb1B_2 Yb -0.14713(3) 0.14713(3) 1.1250
Yb1C Yb 0.14713(3) -0.14713(3) 0.6250
Yb1C_2 Yb 0.14713(3) -0.14713(3) 1.6250
Yb1C_3 Yb 1.14713(3) -0.14713(3) 0.6250
O1E O 0.3323(5) -0.0722(7) 0.6920(4)
O1D O 0.6677(5) 0.0722(7) 1.1920(4)
O1A O 0.6677(5) -0.0722(7) 1.3080(4)
O1B O 0.9278(7) 0.3323(5) 1.0580(4)
O1F O 0.0722(7) 0.3323(5) 0.9420(4)
O2E O 0.9319(7) -0.1113(6) 0.5987(5)
O2D O 0.0681(7) 0.1113(6) 1.0987(5)
O2A O 0.0681(7) -0.1113(6) 1.4013(5)
O2_2 O -0.0681(7) 0.1113(6) 0.9013(5)
O2B O 0.8887(6) -0.0681(7) 1.1513(5)
O2D_2 O 1.0681(7) 0.1113(6) 1.0987(5)
O2F O 0.1113(6) -0.0681(7) 0.8487(5)
O3E O 0.7584(6) -0.0922(6) 0.5112(4)
O3D O 0.2416(6) 0.0922(6) 1.0112(4)
O3A O 0.2416(6) -0.0922(6) 1.4888(4)
O3C O 0.0922(6) 0.2416(6) 0.7388(4)
O3G O 0.9078(6) 0.2416(6) 1.2612(4)
O4B O 0.6865(7) 0.3135(7) 1.1250
C1A C 0.6136(10) 0.0000 1.2500
C2A C 0.4658(9) 0.0000 1.2500
C3E C 0.6019(6) -0.0433(8) 0.6719(5)
C3D C 0.3981(6) 0.0433(8) 1.1719(5)
C3A C 0.3981(6) -0.0433(8) 1.3281(5)
H1E H 0.5565 -0.0733 0.6202
H1D H 0.4435 0.0733 1.1202
H1A H 0.4435 -0.0733 1.3798
C4E C 0.7383(6) -0.0414(7) 0.6718(4)
C4D C 0.2617(6) 0.0414(7) 1.1718(4)
C4A C 0.2617(6) -0.0414(7) 1.3282(4)
C5A C 0.1959(10) 0.0000 1.2500
H2A H 0.1051 0.0000 1.2500
C6E C 0.8158(7) -0.0849(8) 0.5877(5)
C6D C 0.1842(7) 0.0849(8) 1.0877(5)
C6A C 0.1842(7) -0.0849(8) 1.4123(5)
loop_
_geom_bond_atom_site_label_1
_geom_bond_atom_site_label_2
_geom_bond_site_symmetry_1
_geom_bond_site_symmetry_2
Yb1 O1 1_555 1_555
O1 C1 1_555 1_555
O2 C6 1_555 1_555
O3 C6 1_555 1_555
O4 Yb1 1_555 1_555
C1 C2 1_555 1_555
C2 C3 1_555 1_555
C3 H1 1_555 1_555
C4 C3 1_555 1_555
C5 C4 1_555 1_555
H2 C5 1_555 1_555
C6 C4 1_555 1_555
Yb1B O3 1_555 1_555
Yb1_2 O2 1_555 1_555
Yb1A O2A 1_555 1_555
Yb1A_2 O3E 1_555 1_555
Yb1A_3 O1A 1_555 1_555
Yb1B_2 O2D 1_555 1_555
Yb1C O1E 1_555 1_555
Yb1C_2 O3A 1_555 1_555
Yb1C_3 O2E 1_555 1_555
O1E C1 1_555 1_555
O1D Yb1B 1_555 1_555
O1A C1A 1_555 1_555
O1B Yb1B 1_555 1_555
O1F Yb1 1_555 1_555
O2E C6E 1_555 1_555
O2D C6D 1_555 1_555
O2A C6A 1_555 1_555
O2_2 Yb1 1_555 1_555
O2B Yb1B 1_555 1_555
O2D_2 Yb1B 1_555 1_555
O2F Yb1 1_555 1_555
O3E C6E 1_555 1_555
O3D Yb1 1_555 1_555
O3A C6A 1_555 1_555
O3C Yb1 1_555 1_555
O3G Yb1B 1_555 1_555
O4B Yb1B 1_555 1_555
C1A O1D 1_555 1_555
C2A C1A 1_555 1_555
C3E C2 1_555 1_555
C3D C2A 1_555 1_555
C3A C2A 1_555 1_555
H1E C3E 1_555 1_555
H1D C3D 1_555 1_555
H1A C3A 1_555 1_555
C4E C5 1_555 1_555
C4D C3D 1_555 1_555
C4A C3A 1_555 1_555
C5A C4D 1_555 1_555
H2A C5A 1_555 1_555
C6E C4E 1_555 1_555
C6D O3D 1_555 1_555
C6A C4A 1_555 1_555
C3E C4E 1_555 1_555
C4D C6D 1_555 1_555
C4A C5A 1_555 1_555

#END
