
#######################################################################
#
#                 Cambridge Crystallographic Data Centre
#                                CCDC 
#
#######################################################################
#
# If this CIF has been generated from an entry in the Cambridge 
# Structural Database, then it will include bibliographic, chemical, 
# crystal, experimental, refinement or atomic coordinate data resulting 
# from the CCDC's data processing and validation procedures.
#
#######################################################################

data_SADMIV
_symmetry_cell_setting           monoclinic
_symmetry_space_group_name_H-M   'C 2/c'
_symmetry_Int_Tables_number      15
_space_group_name_Hall           '-C 2yn'
loop_
_symmetry_equiv_pos_site_id
_symmetry_equiv_pos_as_xyz
1 x,y,z
2 -x,y,1/2-z
3 1/2+x,1/2+y,z
4 1/2-x,1/2+y,1/2-z
5 -x,-y,-z
6 x,-y,1/2+z
7 1/2-x,1/2-y,-z
8 1/2+x,1/2-y,1/2+z
_cell_length_a                   21.1299(1)
_cell_length_b                   7.6427(1)
_cell_length_c                   6.8306(1)
_cell_angle_alpha                90
_cell_angle_beta                 114.935(4)
_cell_angle_gamma                90
_cell_volume                     1000.25
loop_
_atom_site_label
_atom_site_type_symbol
_atom_site_fract_x
_atom_site_fract_y
_atom_site_fract_z
Fe1 Fe 0.0000 0.0000 0.0000
O2 O 0.0000 -0.1135(3) -0.2500
O3 O 0.0637 -0.1789 0.1950
O4 O 0.0889 -0.1307 0.5373
C1 C 0.1815 -0.2125 0.4472
C2 C 0.2019 -0.2618 0.2903
C3 C 0.2296 -0.2007 0.6569
C4 C 0.1081 -0.1722 0.3907
H1 H 0.1674 -0.2703 0.1398
H2 H 0.2150 -0.1653 0.7695
Fe1A Fe 0.0000 0.0000 -0.5000
Fe1A_2 Fe 0.0000 0.0000 0.5000
Fe1B Fe 0.5000 -0.5000 1.0000
Fe1C Fe 0.5000 -0.5000 0.5000
O2D O 0.0000 0.1135(3) 0.2500
O3F O 0.4363 -0.3211 0.8050
O3D O -0.0637 0.1789 -0.1950
O4F O 0.4111 -0.3693 0.4627
O4A O -0.0889 -0.1307 -0.0373
O4E O 0.0889 0.1307 0.0373
C1F C 0.3185 -0.2875 0.5528
C2F C 0.2981 -0.2382 0.7097
C3F C 0.2704 -0.2993 0.3431
C4F C 0.3919 -0.3278 0.6093
H1F H 0.3326 -0.2297 0.8602
H2F H 0.2850 -0.3347 0.2305
O1 O 0.5220(3) 0.0346(5) 0.8321(8)
O1A O 0.4780(3) 0.0346(5) 0.6679(8)
loop_
_geom_bond_atom_site_label_1
_geom_bond_atom_site_label_2
_geom_bond_site_symmetry_1
_geom_bond_site_symmetry_2
O1 O1A 1_555 1_555
Fe1 O2 1_555 1_555
O2 Fe1A 1_555 1_555
O3 Fe1 1_555 1_555
O4 C4 1_555 1_555
C1 C2 1_555 1_555
C2 H1 1_555 1_555
C3 C1 1_555 1_555
C4 O3 1_555 1_555
H2 C3 1_555 1_555
Fe1A_2 O4 1_555 1_555
Fe1B O3F 1_555 1_555
Fe1C O4F 1_555 1_555
O2D Fe1 1_555 1_555
O3F C4F 1_555 1_555
O3D Fe1 1_555 1_555
O4F C4F 1_555 1_555
O4A Fe1 1_555 1_555
O4E Fe1 1_555 1_555
C1F C2F 1_555 1_555
C2F C3 1_555 1_555
C3F C2 1_555 1_555
C4F C1F 1_555 1_555
H1F C2F 1_555 1_555
H2F C3F 1_555 1_555
C1 C4 1_555 1_555
Fe1A_2 O2D 1_555 1_555
C1F C3F 1_555 1_555

#END
