
#######################################################################
#
#                 Cambridge Crystallographic Data Centre
#                                CCDC 
#
#######################################################################
#
# If this CIF has been generated from an entry in the Cambridge 
# Structural Database, then it will include bibliographic, chemical, 
# crystal, experimental, refinement or atomic coordinate data resulting 
# from the CCDC's data processing and validation procedures.
#
#######################################################################

data_SAHYOQ
_symmetry_cell_setting           cubic
_symmetry_space_group_name_H-M   'F m -3 m'
_symmetry_Int_Tables_number      225
_space_group_name_Hall           '-F 4 2 3'
loop_
_symmetry_equiv_pos_site_id
_symmetry_equiv_pos_as_xyz
1 x,y,z
2 -y,x,z
3 x,-y,-z
4 z,x,y
5 -x,-y,z
6 y,x,-z
7 -x,z,y
8 y,-x,z
9 -x,y,-z
10 -z,-x,y
11 -y,-x,-z
12 x,-z,y
13 z,-x,-y
14 -x,-z,-y
15 -z,x,-y
16 x,z,-y
17 y,z,x
18 z,-y,x
19 -z,y,x
20 z,y,-x
21 y,-z,-x
22 -z,-y,-x
23 -y,z,-x
24 -y,-z,x
25 x,1/2+y,1/2+z
26 -y,1/2+x,1/2+z
27 x,1/2-y,1/2-z
28 z,1/2+x,1/2+y
29 -x,1/2-y,1/2+z
30 y,1/2+x,1/2-z
31 -x,1/2+z,1/2+y
32 y,1/2-x,1/2+z
33 -x,1/2+y,1/2-z
34 -z,1/2-x,1/2+y
35 -y,1/2-x,1/2-z
36 x,1/2-z,1/2+y
37 z,1/2-x,1/2-y
38 -x,1/2-z,1/2-y
39 -z,1/2+x,1/2-y
40 x,1/2+z,1/2-y
41 y,1/2+z,1/2+x
42 z,1/2-y,1/2+x
43 -z,1/2+y,1/2+x
44 z,1/2+y,1/2-x
45 y,1/2-z,1/2-x
46 -z,1/2-y,1/2-x
47 -y,1/2+z,1/2-x
48 -y,1/2-z,1/2+x
49 1/2+x,y,1/2+z
50 1/2-y,x,1/2+z
51 1/2+x,-y,1/2-z
52 1/2+z,x,1/2+y
53 1/2-x,-y,1/2+z
54 1/2+y,x,1/2-z
55 1/2-x,z,1/2+y
56 1/2+y,-x,1/2+z
57 1/2-x,y,1/2-z
58 1/2-z,-x,1/2+y
59 1/2-y,-x,1/2-z
60 1/2+x,-z,1/2+y
61 1/2+z,-x,1/2-y
62 1/2-x,-z,1/2-y
63 1/2-z,x,1/2-y
64 1/2+x,z,1/2-y
65 1/2+y,z,1/2+x
66 1/2+z,-y,1/2+x
67 1/2-z,y,1/2+x
68 1/2+z,y,1/2-x
69 1/2+y,-z,1/2-x
70 1/2-z,-y,1/2-x
71 1/2-y,z,1/2-x
72 1/2-y,-z,1/2+x
73 1/2+x,1/2+y,z
74 1/2-y,1/2+x,z
75 1/2+x,1/2-y,-z
76 1/2+z,1/2+x,y
77 1/2-x,1/2-y,z
78 1/2+y,1/2+x,-z
79 1/2-x,1/2+z,y
80 1/2+y,1/2-x,z
81 1/2-x,1/2+y,-z
82 1/2-z,1/2-x,y
83 1/2-y,1/2-x,-z
84 1/2+x,1/2-z,y
85 1/2+z,1/2-x,-y
86 1/2-x,1/2-z,-y
87 1/2-z,1/2+x,-y
88 1/2+x,1/2+z,-y
89 1/2+y,1/2+z,x
90 1/2+z,1/2-y,x
91 1/2-z,1/2+y,x
92 1/2+z,1/2+y,-x
93 1/2+y,1/2-z,-x
94 1/2-z,1/2-y,-x
95 1/2-y,1/2+z,-x
96 1/2-y,1/2-z,x
97 -x,-y,-z
98 y,-x,-z
99 -x,y,z
100 -z,-x,-y
101 x,y,-z
102 -y,-x,z
103 x,-z,-y
104 -y,x,-z
105 x,-y,z
106 z,x,-y
107 y,x,z
108 -x,z,-y
109 -z,x,y
110 x,z,y
111 z,-x,y
112 -x,-z,y
113 -y,-z,-x
114 -z,y,-x
115 z,-y,-x
116 -z,-y,x
117 -y,z,x
118 z,y,x
119 y,-z,x
120 y,z,-x
121 -x,1/2-y,1/2-z
122 y,1/2-x,1/2-z
123 -x,1/2+y,1/2+z
124 -z,1/2-x,1/2-y
125 x,1/2+y,1/2-z
126 -y,1/2-x,1/2+z
127 x,1/2-z,1/2-y
128 -y,1/2+x,1/2-z
129 x,1/2-y,1/2+z
130 z,1/2+x,1/2-y
131 y,1/2+x,1/2+z
132 -x,1/2+z,1/2-y
133 -z,1/2+x,1/2+y
134 x,1/2+z,1/2+y
135 z,1/2-x,1/2+y
136 -x,1/2-z,1/2+y
137 -y,1/2-z,1/2-x
138 -z,1/2+y,1/2-x
139 z,1/2-y,1/2-x
140 -z,1/2-y,1/2+x
141 -y,1/2+z,1/2+x
142 z,1/2+y,1/2+x
143 y,1/2-z,1/2+x
144 y,1/2+z,1/2-x
145 1/2-x,-y,1/2-z
146 1/2+y,-x,1/2-z
147 1/2-x,y,1/2+z
148 1/2-z,-x,1/2-y
149 1/2+x,y,1/2-z
150 1/2-y,-x,1/2+z
151 1/2+x,-z,1/2-y
152 1/2-y,x,1/2-z
153 1/2+x,-y,1/2+z
154 1/2+z,x,1/2-y
155 1/2+y,x,1/2+z
156 1/2-x,z,1/2-y
157 1/2-z,x,1/2+y
158 1/2+x,z,1/2+y
159 1/2+z,-x,1/2+y
160 1/2-x,-z,1/2+y
161 1/2-y,-z,1/2-x
162 1/2-z,y,1/2-x
163 1/2+z,-y,1/2-x
164 1/2-z,-y,1/2+x
165 1/2-y,z,1/2+x
166 1/2+z,y,1/2+x
167 1/2+y,-z,1/2+x
168 1/2+y,z,1/2-x
169 1/2-x,1/2-y,-z
170 1/2+y,1/2-x,-z
171 1/2-x,1/2+y,z
172 1/2-z,1/2-x,-y
173 1/2+x,1/2+y,-z
174 1/2-y,1/2-x,z
175 1/2+x,1/2-z,-y
176 1/2-y,1/2+x,-z
177 1/2+x,1/2-y,z
178 1/2+z,1/2+x,-y
179 1/2+y,1/2+x,z
180 1/2-x,1/2+z,-y
181 1/2-z,1/2+x,y
182 1/2+x,1/2+z,y
183 1/2+z,1/2-x,y
184 1/2-x,1/2-z,y
185 1/2-y,1/2-z,-x
186 1/2-z,1/2+y,-x
187 1/2+z,1/2-y,-x
188 1/2-z,1/2-y,x
189 1/2-y,1/2+z,x
190 1/2+z,1/2+y,x
191 1/2+y,1/2-z,x
192 1/2+y,1/2+z,-x
_cell_length_a                   25.8849(7)
_cell_length_b                   25.8849(7)
_cell_length_c                   25.8849(7)
_cell_angle_alpha                90
_cell_angle_beta                 90
_cell_angle_gamma                90
_cell_volume                     17343.6
loop_
_atom_site_label
_atom_site_type_symbol
_atom_site_fract_x
_atom_site_fract_y
_atom_site_fract_z
Zn1 Zn 0.293490(9) 0.2065 0.2065
O1 O 0.28070(5) 0.2193 0.13387(6)
O2 O 0.2500 0.2500 0.2500
C1 C 0.2500 0.2500 0.11170(13)
C2 C 0.2500 0.2500 0.05377(12)
C3 C 0.28248(8) 0.2175 0.02645(10)
H1 H 0.3055 0.1945 0.0453
O1XB O 0.21930(5) 0.2807 0.13387(6)
Zn1XB Zn 0.206510(9) 0.2935 0.2065
O1RA O 0.2193 0.36613(6) 0.21930(5)
O1QC O 0.2807 0.36613(6) 0.28070(5)
Zn1QC Zn 0.2935 0.2935 0.293490(9)
O1JB O 0.36613(6) 0.28070(5) 0.2807
C1JB C 0.38830(13) 0.2500 0.2500
O1CC O 0.36613(6) 0.21930(5) 0.2193
O1RB O 0.2807 0.13387(6) 0.21930(5)
C1RB C 0.2500 0.11170(13) 0.2500
O1P O 0.2193 0.13387(6) 0.28070(5)
Zn1P Zn 0.2065 0.2065 0.293490(9)
O1JA O 0.13387(6) 0.21930(5) 0.2807
O1C O 0.13387(6) 0.28070(5) 0.2193
O1DB O 0.21930(5) 0.2193 0.36613(6)
O1Z O 0.28070(5) 0.2807 0.36613(6)
C2RB C 0.2500 0.05377(12) 0.2500
C2JB C 0.44623(12) 0.2500 0.2500
C3DC C 0.2825 0.21752(8) -0.02645(10)
C3XB C 0.21752(8) 0.2825 0.02645(10)
C3E C 0.2175 0.28248(8) -0.02645(10)
H1XB H 0.1945 0.3055 0.0453
C3P C 0.2175 0.02645(10) 0.28248(8)
C3RB C 0.2825 0.02645(10) 0.21752(8)
C3JB C 0.47355(10) 0.28248(8) 0.2825
C3CC C 0.47355(10) 0.21752(8) 0.2175
C2E C 0.2500 0.2500 -0.05377(12)
H1DC H 0.3055 0.1945 -0.0453
H1E H 0.1945 0.3055 -0.0453
C3IB C 0.21752(8) -0.02645(10) 0.2825
H1P H 0.1945 0.0453 0.3055
C3K C 0.28248(8) -0.02645(10) 0.2175
H1RB H 0.3055 0.0453 0.1945
C3KC C 0.52645(10) 0.2825 0.28248(8)
H1JB H 0.4547 0.3055 0.3055
C3OB C 0.52645(10) 0.2175 0.21752(8)
H1CC H 0.4547 0.1945 0.1945
C1E C 0.2500 0.2500 -0.11170(13)
C2K C 0.2500 -0.05377(12) 0.2500
H1IB H 0.1945 -0.0453 0.3055
H1K H 0.3055 -0.0453 0.1945
C2OB C 0.55377(12) 0.2500 0.2500
H1KC H 0.5453 0.3055 0.3055
H1OB H 0.5453 0.1945 0.1945
O1E O 0.2193 0.28070(5) -0.13387(6)
O1DC O 0.2807 0.21930(5) -0.13387(6)
C1K C 0.2500 -0.11170(13) 0.2500
C1OB C 0.61170(13) 0.2500 0.2500
Zn1E Zn 0.2065 0.293490(9) -0.2065
Zn1O Zn 0.293490(9) 0.2065 -0.2065
O1K O 0.28070(5) -0.13387(6) 0.2193
O1IB O 0.21930(5) -0.13387(6) 0.2807
O1OB O 0.63387(6) 0.2193 0.21930(5)
O1KC O 0.63387(6) 0.2807 0.28070(5)
Zn1K Zn 0.293490(9) -0.2065 0.2065
Zn1Q Zn 0.2065 -0.2065 0.293490(9)
Zn1F Zn 0.706510(9) 0.2065 0.2065
Zn1KA Zn 0.706510(9) 0.2935 0.2935
loop_
_geom_bond_atom_site_label_1
_geom_bond_atom_site_label_2
_geom_bond_site_symmetry_1
_geom_bond_site_symmetry_2
Zn1 O1 1_555 1_555
O1 C1 1_555 1_555
O2 Zn1 1_555 1_555
C1 C2 1_555 1_555
C2 C3 1_555 1_555
C3 H1 1_555 1_555
O1XB C1 1_555 1_555
Zn1XB O2 1_555 1_555
O1RA Zn1XB 1_555 1_555
O1QC Zn1QC 1_555 1_555
Zn1QC O2 1_555 1_555
O1JB Zn1QC 1_555 1_555
C1JB O1JB 1_555 1_555
O1CC Zn1 1_555 1_555
O1RB Zn1 1_555 1_555
C1RB O1RB 1_555 1_555
O1P C1RB 1_555 1_555
Zn1P O2 1_555 1_555
O1JA Zn1P 1_555 1_555
O1C Zn1XB 1_555 1_555
O1DB Zn1P 1_555 1_555
O1Z Zn1QC 1_555 1_555
C2RB C1RB 1_555 1_555
C2JB C1JB 1_555 1_555
C3DC C3 1_555 1_555
C3XB C2 1_555 1_555
C3E C3XB 1_555 1_555
H1XB C3XB 1_555 1_555
C3P C2RB 1_555 1_555
C3RB C2RB 1_555 1_555
C3JB C2JB 1_555 1_555
C3CC C2JB 1_555 1_555
C2E C3DC 1_555 1_555
H1DC C3DC 1_555 1_555
H1E C3E 1_555 1_555
C3IB C3P 1_555 1_555
H1P C3P 1_555 1_555
C3K C3RB 1_555 1_555
H1RB C3RB 1_555 1_555
C3KC C3JB 1_555 1_555
H1JB C3JB 1_555 1_555
C3OB C3CC 1_555 1_555
H1CC C3CC 1_555 1_555
C1E C2E 1_555 1_555
C2K C3IB 1_555 1_555
H1IB C3IB 1_555 1_555
H1K C3K 1_555 1_555
C2OB C3KC 1_555 1_555
H1KC C3KC 1_555 1_555
H1OB C3OB 1_555 1_555
O1E C1E 1_555 1_555
O1DC C1E 1_555 1_555
C1K C2K 1_555 1_555
C1OB C2OB 1_555 1_555
Zn1E O1E 1_555 1_555
Zn1O O1DC 1_555 1_555
O1K C1K 1_555 1_555
O1IB C1K 1_555 1_555
O1OB C1OB 1_555 1_555
O1KC C1OB 1_555 1_555
Zn1K O1K 1_555 1_555
Zn1Q O1IB 1_555 1_555
Zn1F O1OB 1_555 1_555
Zn1KA O1KC 1_555 1_555
O1XB Zn1XB 1_555 1_555
C1JB O1CC 1_555 1_555
O1P Zn1P 1_555 1_555
C3E C2E 1_555 1_555
C3K C2K 1_555 1_555
C3OB C2OB 1_555 1_555

#END
