
#######################################################################
#
#                 Cambridge Crystallographic Data Centre
#                                CCDC 
#
#######################################################################
#
# If this CIF has been generated from an entry in the Cambridge 
# Structural Database, then it will include bibliographic, chemical, 
# crystal, experimental, refinement or atomic coordinate data resulting 
# from the CCDC's data processing and validation procedures.
#
#######################################################################

data_SAHYIK
_symmetry_cell_setting           cubic
_symmetry_space_group_name_H-M   'F m -3 m'
_symmetry_Int_Tables_number      225
_space_group_name_Hall           '-F 4 2 3'
loop_
_symmetry_equiv_pos_site_id
_symmetry_equiv_pos_as_xyz
1 x,y,z
2 -y,x,z
3 x,-y,-z
4 z,x,y
5 -x,-y,z
6 y,x,-z
7 -x,z,y
8 y,-x,z
9 -x,y,-z
10 -z,-x,y
11 -y,-x,-z
12 x,-z,y
13 z,-x,-y
14 -x,-z,-y
15 -z,x,-y
16 x,z,-y
17 y,z,x
18 z,-y,x
19 -z,y,x
20 z,y,-x
21 y,-z,-x
22 -z,-y,-x
23 -y,z,-x
24 -y,-z,x
25 x,1/2+y,1/2+z
26 -y,1/2+x,1/2+z
27 x,1/2-y,1/2-z
28 z,1/2+x,1/2+y
29 -x,1/2-y,1/2+z
30 y,1/2+x,1/2-z
31 -x,1/2+z,1/2+y
32 y,1/2-x,1/2+z
33 -x,1/2+y,1/2-z
34 -z,1/2-x,1/2+y
35 -y,1/2-x,1/2-z
36 x,1/2-z,1/2+y
37 z,1/2-x,1/2-y
38 -x,1/2-z,1/2-y
39 -z,1/2+x,1/2-y
40 x,1/2+z,1/2-y
41 y,1/2+z,1/2+x
42 z,1/2-y,1/2+x
43 -z,1/2+y,1/2+x
44 z,1/2+y,1/2-x
45 y,1/2-z,1/2-x
46 -z,1/2-y,1/2-x
47 -y,1/2+z,1/2-x
48 -y,1/2-z,1/2+x
49 1/2+x,y,1/2+z
50 1/2-y,x,1/2+z
51 1/2+x,-y,1/2-z
52 1/2+z,x,1/2+y
53 1/2-x,-y,1/2+z
54 1/2+y,x,1/2-z
55 1/2-x,z,1/2+y
56 1/2+y,-x,1/2+z
57 1/2-x,y,1/2-z
58 1/2-z,-x,1/2+y
59 1/2-y,-x,1/2-z
60 1/2+x,-z,1/2+y
61 1/2+z,-x,1/2-y
62 1/2-x,-z,1/2-y
63 1/2-z,x,1/2-y
64 1/2+x,z,1/2-y
65 1/2+y,z,1/2+x
66 1/2+z,-y,1/2+x
67 1/2-z,y,1/2+x
68 1/2+z,y,1/2-x
69 1/2+y,-z,1/2-x
70 1/2-z,-y,1/2-x
71 1/2-y,z,1/2-x
72 1/2-y,-z,1/2+x
73 1/2+x,1/2+y,z
74 1/2-y,1/2+x,z
75 1/2+x,1/2-y,-z
76 1/2+z,1/2+x,y
77 1/2-x,1/2-y,z
78 1/2+y,1/2+x,-z
79 1/2-x,1/2+z,y
80 1/2+y,1/2-x,z
81 1/2-x,1/2+y,-z
82 1/2-z,1/2-x,y
83 1/2-y,1/2-x,-z
84 1/2+x,1/2-z,y
85 1/2+z,1/2-x,-y
86 1/2-x,1/2-z,-y
87 1/2-z,1/2+x,-y
88 1/2+x,1/2+z,-y
89 1/2+y,1/2+z,x
90 1/2+z,1/2-y,x
91 1/2-z,1/2+y,x
92 1/2+z,1/2+y,-x
93 1/2+y,1/2-z,-x
94 1/2-z,1/2-y,-x
95 1/2-y,1/2+z,-x
96 1/2-y,1/2-z,x
97 -x,-y,-z
98 y,-x,-z
99 -x,y,z
100 -z,-x,-y
101 x,y,-z
102 -y,-x,z
103 x,-z,-y
104 -y,x,-z
105 x,-y,z
106 z,x,-y
107 y,x,z
108 -x,z,-y
109 -z,x,y
110 x,z,y
111 z,-x,y
112 -x,-z,y
113 -y,-z,-x
114 -z,y,-x
115 z,-y,-x
116 -z,-y,x
117 -y,z,x
118 z,y,x
119 y,-z,x
120 y,z,-x
121 -x,1/2-y,1/2-z
122 y,1/2-x,1/2-z
123 -x,1/2+y,1/2+z
124 -z,1/2-x,1/2-y
125 x,1/2+y,1/2-z
126 -y,1/2-x,1/2+z
127 x,1/2-z,1/2-y
128 -y,1/2+x,1/2-z
129 x,1/2-y,1/2+z
130 z,1/2+x,1/2-y
131 y,1/2+x,1/2+z
132 -x,1/2+z,1/2-y
133 -z,1/2+x,1/2+y
134 x,1/2+z,1/2+y
135 z,1/2-x,1/2+y
136 -x,1/2-z,1/2+y
137 -y,1/2-z,1/2-x
138 -z,1/2+y,1/2-x
139 z,1/2-y,1/2-x
140 -z,1/2-y,1/2+x
141 -y,1/2+z,1/2+x
142 z,1/2+y,1/2+x
143 y,1/2-z,1/2+x
144 y,1/2+z,1/2-x
145 1/2-x,-y,1/2-z
146 1/2+y,-x,1/2-z
147 1/2-x,y,1/2+z
148 1/2-z,-x,1/2-y
149 1/2+x,y,1/2-z
150 1/2-y,-x,1/2+z
151 1/2+x,-z,1/2-y
152 1/2-y,x,1/2-z
153 1/2+x,-y,1/2+z
154 1/2+z,x,1/2-y
155 1/2+y,x,1/2+z
156 1/2-x,z,1/2-y
157 1/2-z,x,1/2+y
158 1/2+x,z,1/2+y
159 1/2+z,-x,1/2+y
160 1/2-x,-z,1/2+y
161 1/2-y,-z,1/2-x
162 1/2-z,y,1/2-x
163 1/2+z,-y,1/2-x
164 1/2-z,-y,1/2+x
165 1/2-y,z,1/2+x
166 1/2+z,y,1/2+x
167 1/2+y,-z,1/2+x
168 1/2+y,z,1/2-x
169 1/2-x,1/2-y,-z
170 1/2+y,1/2-x,-z
171 1/2-x,1/2+y,z
172 1/2-z,1/2-x,-y
173 1/2+x,1/2+y,-z
174 1/2-y,1/2-x,z
175 1/2+x,1/2-z,-y
176 1/2-y,1/2+x,-z
177 1/2+x,1/2-y,z
178 1/2+z,1/2+x,-y
179 1/2+y,1/2+x,z
180 1/2-x,1/2+z,-y
181 1/2-z,1/2+x,y
182 1/2+x,1/2+z,y
183 1/2+z,1/2-x,y
184 1/2-x,1/2-z,y
185 1/2-y,1/2-z,-x
186 1/2-z,1/2+y,-x
187 1/2+z,1/2-y,-x
188 1/2-z,1/2-y,x
189 1/2-y,1/2+z,x
190 1/2+z,1/2+y,x
191 1/2+y,1/2-z,x
192 1/2+y,1/2+z,-x
_cell_length_a                   25.6690(3)
_cell_length_b                   25.6690(3)
_cell_length_c                   25.6690(3)
_cell_angle_alpha                90
_cell_angle_beta                 90
_cell_angle_gamma                90
_cell_volume                     16913.2
loop_
_atom_site_label
_atom_site_type_symbol
_atom_site_fract_x
_atom_site_fract_y
_atom_site_fract_z
Zn1 Zn 0.2935(1) 0.2065(1) 0.2065(1)
O1 O 0.2500 0.2500 0.2500
O2 O 0.2818(3) 0.2182(3) 0.1339(4)
C1 C 0.2500 0.2500 0.1105(7)
C2 C 0.2831(4) 0.2169(4) 0.0263(6)
C3 C 0.2500 0.2500 0.0538(6)
H1 H 0.3059 0.1941 0.0452
Zn1P Zn 0.2065(1) 0.2065(1) 0.2935(1)
O2P O 0.2182(3) 0.1339(4) 0.2818(3)
C1P C 0.2500 0.1105(7) 0.2500
O2RB O 0.2818(3) 0.1339(4) 0.2182(3)
O2XB O 0.2182(3) 0.2818(3) 0.1339(4)
Zn1XB Zn 0.2065(1) 0.2935(1) 0.2065(1)
Zn1Z Zn 0.2935(1) 0.2935(1) 0.2935(1)
O2Z O 0.2818(3) 0.2818(3) 0.3661(4)
O2DB O 0.2182(3) 0.2182(3) 0.3661(4)
O2JA O 0.1339(4) 0.2182(3) 0.2818(3)
O2C O 0.1339(4) 0.2818(3) 0.2182(3)
O2RA O 0.2182(3) 0.3661(4) 0.2182(3)
O2QC O 0.2818(3) 0.3661(4) 0.2818(3)
O2JB O 0.3661(4) 0.2818(3) 0.2818(3)
C1JB C 0.3895(7) 0.2500 0.2500
O2CC O 0.3661(4) 0.2182(3) 0.2182(3)
C3JB C 0.4462(6) 0.2500 0.2500
C2JB C 0.4737(6) 0.2831(4) 0.2831(4)
C2KC C 0.5263(6) 0.2831(4) 0.2831(4)
C3KC C 0.5538(6) 0.2500 0.2500
C1KC C 0.6105(7) 0.2500 0.2500
O2KC O 0.6339(4) 0.2818(3) 0.2818(3)
Zn1KC Zn 0.7065(1) 0.2935(1) 0.2935(1)
Zn1AC Zn 0.7065(1) 0.2065(1) 0.2065(1)
O2OB O 0.6339(4) 0.2182(3) 0.2182(3)
C2OB C 0.5263(6) 0.2169(4) 0.2169(4)
C2CC C 0.4737(6) 0.2169(4) 0.2169(4)
H1CC H 0.4548 0.1941 0.1941
H1OB H 0.5452 0.1941 0.1941
H1KC H 0.5452 0.3059 0.3059
H1JB H 0.4548 0.3059 0.3059
C3P C 0.2500 0.0538(6) 0.2500
C2DC C 0.2831(4) 0.2169(4) -0.0263(6)
C2XB C 0.2169(4) 0.2831(4) 0.0263(6)
C2E C 0.2169(4) 0.2831(4) -0.0263(6)
H1XB H 0.1941 0.3059 0.0452
C2P C 0.2169(4) 0.0263(6) 0.2831(4)
C2RB C 0.2831(4) 0.0263(6) 0.2169(4)
C3E C 0.2500 0.2500 -0.0538(6)
H1DC H 0.3059 0.1941 -0.0452
H1E H 0.1941 0.3059 -0.0452
C2IB C 0.2169(4) -0.0263(6) 0.2831(4)
H1P H 0.1941 0.0452 0.3059
C2K C 0.2831(4) -0.0263(6) 0.2169(4)
H1RB H 0.3059 0.0452 0.1941
C1E C 0.2500 0.2500 -0.1105(7)
C3K C 0.2500 -0.0538(6) 0.2500
H1IB H 0.1941 -0.0452 0.3059
H1K H 0.3059 -0.0452 0.1941
O2E O 0.2182(3) 0.2818(3) -0.1339(4)
O2DC O 0.2818(3) 0.2182(3) -0.1339(4)
C1K C 0.2500 -0.1105(7) 0.2500
Zn1E Zn 0.2065(1) 0.2935(1) -0.2065(1)
Zn1O Zn 0.2935(1) 0.2065(1) -0.2065(1)
O2K O 0.2818(3) -0.1339(4) 0.2182(3)
O2IB O 0.2182(3) -0.1339(4) 0.2818(3)
Zn1K Zn 0.2935(1) -0.2065(1) 0.2065(1)
Zn1Q Zn 0.2065(1) -0.2065(1) 0.2935(1)
loop_
_geom_bond_atom_site_label_1
_geom_bond_atom_site_label_2
_geom_bond_site_symmetry_1
_geom_bond_site_symmetry_2
Zn1 O1 1_555 1_555
O1 Zn1P 1_555 1_555
O2 Zn1 1_555 1_555
C1 O2 1_555 1_555
C2 C3 1_555 1_555
C3 C1 1_555 1_555
H1 C2 1_555 1_555
Zn1P O2P 1_555 1_555
O2P C1P 1_555 1_555
C1P O2RB 1_555 1_555
O2RB Zn1 1_555 1_555
O2XB C1 1_555 1_555
Zn1XB O1 1_555 1_555
Zn1Z O1 1_555 1_555
O2Z Zn1Z 1_555 1_555
O2DB Zn1P 1_555 1_555
O2JA Zn1P 1_555 1_555
O2C Zn1XB 1_555 1_555
O2RA Zn1XB 1_555 1_555
O2QC Zn1Z 1_555 1_555
O2JB Zn1Z 1_555 1_555
C1JB O2JB 1_555 1_555
O2CC Zn1 1_555 1_555
C3JB C1JB 1_555 1_555
C2JB C3JB 1_555 1_555
C2KC C2JB 1_555 1_555
C3KC C2KC 1_555 1_555
C1KC C3KC 1_555 1_555
O2KC C1KC 1_555 1_555
Zn1KC O2KC 1_555 1_555
Zn1AC O2OB 1_555 1_555
O2OB C1KC 1_555 1_555
C2OB C3KC 1_555 1_555
C2CC C3JB 1_555 1_555
H1CC C2CC 1_555 1_555
H1OB C2OB 1_555 1_555
H1KC C2KC 1_555 1_555
H1JB C2JB 1_555 1_555
C3P C1P 1_555 1_555
C2DC C2 1_555 1_555
C2XB C3 1_555 1_555
C2E C2XB 1_555 1_555
H1XB C2XB 1_555 1_555
C2P C3P 1_555 1_555
C2RB C3P 1_555 1_555
C3E C2DC 1_555 1_555
H1DC C2DC 1_555 1_555
H1E C2E 1_555 1_555
C2IB C2P 1_555 1_555
H1P C2P 1_555 1_555
C2K C2RB 1_555 1_555
H1RB C2RB 1_555 1_555
C1E C3E 1_555 1_555
C3K C2IB 1_555 1_555
H1IB C2IB 1_555 1_555
H1K C2K 1_555 1_555
O2E C1E 1_555 1_555
O2DC C1E 1_555 1_555
C1K C3K 1_555 1_555
Zn1E O2E 1_555 1_555
Zn1O O2DC 1_555 1_555
O2K C1K 1_555 1_555
O2IB C1K 1_555 1_555
Zn1K O2K 1_555 1_555
Zn1Q O2IB 1_555 1_555
O2XB Zn1XB 1_555 1_555
C1JB O2CC 1_555 1_555
C2OB C2CC 1_555 1_555
C2E C3E 1_555 1_555
C2K C3K 1_555 1_555

#END
