
#######################################################################
#
#                 Cambridge Crystallographic Data Centre
#                                CCDC 
#
#######################################################################
#
# If this CIF has been generated from an entry in the Cambridge 
# Structural Database, then it will include bibliographic, chemical, 
# crystal, experimental, refinement or atomic coordinate data resulting 
# from the CCDC's data processing and validation procedures.
#
#######################################################################

data_SALRON
_symmetry_cell_setting           monoclinic
_symmetry_space_group_name_H-M   'C 2/c'
_symmetry_Int_Tables_number      15
_space_group_name_Hall           '-C 2yn'
loop_
_symmetry_equiv_pos_site_id
_symmetry_equiv_pos_as_xyz
1 x,y,z
2 1/2+x,1/2+y,z
3 x,-y,1/2+z
4 1/2+x,1/2-y,1/2+z
5 -x,-y,-z
6 1/2-x,1/2-y,-z
7 -x,y,1/2-z
8 1/2-x,1/2+y,1/2-z
_cell_length_a                   15.379(2)
_cell_length_b                   8.1970(12)
_cell_length_c                   12.937(2)
_cell_angle_alpha                90
_cell_angle_beta                 118.856(2)
_cell_angle_gamma                90
_cell_volume                     1428.36
loop_
_atom_site_label
_atom_site_type_symbol
_atom_site_fract_x
_atom_site_fract_y
_atom_site_fract_z
Mn1 Mn 0.5000 0.57756(7) 0.7500
N1 N 0.7154(2) 0.6817(4) 1.3550(2)
N2 N 0.60069(16) 0.5908(3) 0.94820(19)
N3 N 0.88531(16) 0.7504(3) 1.24393(19)
O1 O 0.57139(12) 0.6083(2) 1.19981(15)
C1 C 0.66186(18) 0.6477(3) 1.2421(2)
C2 C 0.70560(17) 0.6578(3) 1.1666(2)
C3 C 0.64759(18) 0.6203(3) 1.0466(2)
C4 C 0.80431(19) 0.7090(3) 1.2086(2)
H1 H 0.776(2) 0.718(4) 1.383(3)
H2 H 0.685(3) 0.685(4) 1.395(3)
N1F N 0.2846(2) 0.6817(4) 0.1450(2)
N2F N 0.39931(16) 0.5908(3) 0.55180(19)
N3F N 0.11469(16) 0.7504(3) 0.25607(19)
O1F O 0.42861(12) 0.6083(2) 0.30019(15)
C1F C 0.33814(18) 0.6477(3) 0.2579(2)
C2F C 0.29440(17) 0.6578(3) 0.3334(2)
C3F C 0.35241(18) 0.6203(3) 0.4534(2)
C4F C 0.19569(19) 0.7090(3) 0.2914(2)
H1F H 0.224(2) 0.718(4) 0.117(3)
H2F H 0.315(3) 0.685(4) 0.105(3)
N3C N 0.38531(16) 0.7496(3) 0.74393(19)
N3E N 0.61469(16) 0.7496(3) 0.75607(19)
O1B O 0.57139(12) 0.3917(2) 0.69981(15)
O1D O 0.42861(12) 0.3917(2) 0.80019(15)
Mn1C Mn 1.0000 0.92244(7) 1.2500
Mn1B Mn 0.5000 0.42244(7) 1.2500
Mn1C_2 Mn 0.0000 0.92244(7) 0.2500
Mn1B_2 Mn 0.5000 0.42244(7) 0.2500
O2 O 0.58620(16) 0.2053(3) 0.96824(19)
C5 C 0.5645(6) 0.0524(6) 0.9167(7)
H3 H 0.540(2) 0.276(4) 0.926(3)
H4 H 0.609(3) -0.024(6) 0.974(4)
H5 H 0.569(4) 0.019(9) 0.848(3)
H6 H 0.5009(18) 0.006(7) 0.898(5)
loop_
_geom_bond_atom_site_label_1
_geom_bond_atom_site_label_2
_geom_bond_site_symmetry_1
_geom_bond_site_symmetry_2
Mn1 N2 1_555 1_555
N1 C1 1_555 1_555
N2 C3 1_555 1_555
N3 C4 1_555 1_555
O1 C1 1_555 1_555
O2 C5 1_555 1_555
C1 C2 1_555 1_555
C2 C3 1_555 1_555
C4 C2 1_555 1_555
C5 H4 1_555 1_555
H1 N1 1_555 1_555
H2 N1 1_555 1_555
H3 O2 1_555 1_555
H5 C5 1_555 1_555
H6 C5 1_555 1_555
N1F C1F 1_555 1_555
N2F Mn1 1_555 1_555
N3F C4F 1_555 1_555
O1F C1F 1_555 1_555
C1F C2F 1_555 1_555
C2F C3F 1_555 1_555
C3F N2F 1_555 1_555
C4F C2F 1_555 1_555
H1F N1F 1_555 1_555
H2F N1F 1_555 1_555
N3C Mn1 1_555 1_555
N3E Mn1 1_555 1_555
O1B Mn1 1_555 1_555
O1D Mn1 1_555 1_555
Mn1C N3 1_555 1_555
Mn1B O1 1_555 1_555
Mn1C_2 N3F 1_555 1_555
Mn1B_2 O1F 1_555 1_555

#END
