
#######################################################################
#
#                 Cambridge Crystallographic Data Centre
#                                CCDC 
#
#######################################################################
#
# If this CIF has been generated from an entry in the Cambridge 
# Structural Database, then it will include bibliographic, chemical, 
# crystal, experimental, refinement or atomic coordinate data resulting 
# from the CCDC's data processing and validation procedures.
#
#######################################################################

data_SANHOF
_symmetry_cell_setting           monoclinic
_symmetry_space_group_name_H-M   'P 2/n'
_symmetry_Int_Tables_number      13
_space_group_name_Hall           '-P 2yac'
loop_
_symmetry_equiv_pos_site_id
_symmetry_equiv_pos_as_xyz
1 x,y,z
2 1/2-x,y,1/2-z
3 -x,-y,-z
4 1/2+x,-y,1/2+z
_cell_length_a                   13.958(3)
_cell_length_b                   11.345(4)
_cell_length_c                   15.902(4)
_cell_angle_alpha                90
_cell_angle_beta                 115.63(2)
_cell_angle_gamma                90
_cell_volume                     2270.37
loop_
_atom_site_label
_atom_site_type_symbol
_atom_site_fract_x
_atom_site_fract_y
_atom_site_fract_z
Ag1 Ag 0.1271(2) 0.0897(2) 0.16615(15)
N1 N 0.1144(14) -0.0965(18) 0.1650(14)
C1 C 0.1289(18) -0.6603(20) 0.0956(17)
H1 H 0.1423(18) -0.7044(20) 0.0502(17)
C2 C 0.1240(19) -0.1592(21) 0.2400(19)
H2 H 0.1332(19) -0.1182(21) 0.2958(19)
C3 C 0.1147(18) -0.2793(20) 0.2366(17)
H3 H 0.1170(18) -0.3214(20) 0.2898(17)
C4 C 0.1064(19) -0.3479(23) 0.1602(18)
C5 C 0.1036(18) -0.2776(20) 0.0862(17)
H4 H 0.1037(18) -0.3193(20) 0.0336(17)
C6 C 0.1050(20) -0.1609(23) 0.0876(19)
H5 H 0.1007(20) -0.1179(23) 0.0341(19)
C7 C 0.1097(18) -0.4758(19) 0.1612(17)
C8 C 0.1052(19) -0.5412(21) 0.2314(17)
H6 H 0.0996(19) -0.5021(21) 0.2827(17)
C9 C 0.1004(18) -0.6606(20) 0.2225(17)
H7 H 0.0893(18) -0.7053(20) 0.2688(17)
C10 C 0.1221(19) -0.5415(22) 0.0913(18)
H8 H 0.1268(19) -0.5016(22) 0.0400(18)
N2 N 0.1178(15) -0.7216(18) 0.1636(15)
N2_2 N 0.1178(15) 0.2784(18) 0.1636(15)
Ag1_2 Ag 0.1271(2) -0.9103(2) 0.16615(15)
Ag2 Ag 0.1220(2) 0.61066(15) -0.2768(2)
N3 N 0.1136(17) 0.8001(19) -0.2747(16)
C11 C 0.1126(18) 0.8618(21) -0.3492(17)
H9 H 0.1129(18) 0.8173(21) -0.4004(17)
C12 C 0.1034(21) 0.9836(24) -0.3547(20)
H10 H 0.1005(21) 1.0251(24) -0.4084(20)
C13 C 0.1067(17) 1.0452(18) -0.2791(16)
C14 C 0.1099(19) 0.9800(21) -0.2049(18)
H11 H 0.1087(19) 1.0212(21) -0.1527(18)
C15 C 0.1162(21) 0.8626(24) -0.2073(21)
H12 H 0.1208(21) 0.8199(24) -0.1535(21)
C16 C 0.1039(18) 1.1727(19) -0.2785(17)
C17 C 0.0584(18) 1.2411(20) -0.3605(17)
H13 H 0.0267(18) 1.2003(20) -0.4191(17)
C18 C 0.0644(20) 1.3604(21) -0.3567(18)
H14 H 0.0307(20) 1.4044(21) -0.4136(18)
C19 C 0.1576(19) 1.3569(21) -0.2002(18)
H15 H 0.1941(19) 1.3988(21) -0.1425(18)
C20 C 0.1562(18) 1.2360(21) -0.1968(17)
H16 H 0.1913(18) 1.1932(21) -0.1394(17)
N4 N 0.1122(14) 1.4203(16) -0.2773(13)
N4_2 N 0.1122(14) 0.4203(16) -0.2773(13)
Ag2_2 Ag 0.1220(2) 1.61066(15) -0.2768(2)
B1 B 0.2877(12) 0.0782(15) 0.0531(11)
F1 F 0.1850(14) 0.0877(18) 0.0154(13)
F2 F 0.3258(15) 0.0951(18) 0.1426(12)
F3 F 0.3289(15) 0.1504(18) 0.0146(14)
F4 F 0.3147(15) -0.0301(16) 0.0401(14)
B2 B 0.2273(13) 0.6236(15) -0.4716(12)
F5 F 0.3272(14) 0.6121(18) -0.4203(14)
F6 F 0.1711(16) 0.5986(18) -0.4280(14)
F7 F 0.1957(16) 0.5601(18) -0.5469(14)
F8 F 0.2080(16) 0.7324(17) -0.5019(15)
O1 O -0.0817(25) 0.6322(29) -0.4294(23)
loop_
_geom_bond_atom_site_label_1
_geom_bond_atom_site_label_2
_geom_bond_site_symmetry_1
_geom_bond_site_symmetry_2
Ag1 N1 1_555 1_555
N1 C2 1_555 1_555
C1 H1 1_555 1_555
C2 H2 1_555 1_555
C3 C2 1_555 1_555
H3 C3 1_555 1_555
C4 C3 1_555 1_555
C5 C4 1_555 1_555
H4 C5 1_555 1_555
C6 N1 1_555 1_555
H5 C6 1_555 1_555
C7 C4 1_555 1_555
C8 C7 1_555 1_555
H6 C8 1_555 1_555
C9 C8 1_555 1_555
H7 C9 1_555 1_555
C10 C1 1_555 1_555
H8 C10 1_555 1_555
N2 C1 1_555 1_555
Ag2 N3 1_555 1_555
N3 C11 1_555 1_555
C11 H9 1_555 1_555
C12 C11 1_555 1_555
H10 C12 1_555 1_555
C13 C12 1_555 1_555
C14 C13 1_555 1_555
H11 C14 1_555 1_555
C15 N3 1_555 1_555
H12 C15 1_555 1_555
C16 C13 1_555 1_555
C17 C16 1_555 1_555
H13 C17 1_555 1_555
C18 C17 1_555 1_555
H14 C18 1_555 1_555
C19 H15 1_555 1_555
C20 C16 1_555 1_555
H16 C20 1_555 1_555
N4 C18 1_555 1_555
B1 F1 1_555 1_555
F2 B1 1_555 1_555
F3 B1 1_555 1_555
F4 B1 1_555 1_555
B2 F5 1_555 1_555
F6 B2 1_555 1_555
F7 B2 1_555 1_555
F8 B2 1_555 1_555
N2_2 Ag1 1_555 1_555
Ag1_2 N2 1_555 1_555
N4_2 Ag2 1_555 1_555
Ag2_2 N4 1_555 1_555
C5 C6 1_555 1_555
C7 C10 1_555 1_555
C9 N2 1_555 1_555
C14 C15 1_555 1_555
C19 C20 1_555 1_555
C19 N4 1_555 1_555

#END
