
#######################################################################
#
#                 Cambridge Crystallographic Data Centre
#                                CCDC 
#
#######################################################################
#
# If this CIF has been generated from an entry in the Cambridge 
# Structural Database, then it will include bibliographic, chemical, 
# crystal, experimental, refinement or atomic coordinate data resulting 
# from the CCDC's data processing and validation procedures.
#
#######################################################################

data_SECWUT
_symmetry_cell_setting           monoclinic
_symmetry_space_group_name_H-M   'P 2/c'
_symmetry_Int_Tables_number      13
_space_group_name_Hall           '-P 2yc'
loop_
_symmetry_equiv_pos_site_id
_symmetry_equiv_pos_as_xyz
1 x,y,z
2 -x,y,1/2-z
3 -x,-y,-z
4 x,-y,1/2+z
_cell_length_a                   10.821(2)
_cell_length_b                   11.576(2)
_cell_length_c                   20.641(4)
_cell_angle_alpha                90
_cell_angle_beta                 101.96(3)
_cell_angle_gamma                90
_cell_volume                     2529.45
loop_
_atom_site_label
_atom_site_type_symbol
_atom_site_fract_x
_atom_site_fract_y
_atom_site_fract_z
V1 V 0.79832(4) 0.62244(4) 0.991309(19)
N1 N 0.98063(18) 0.74208(18) 1.02441(9)
P1 P 1.04555(6) 0.54209(5) 1.09073(3)
C1 C 1.0937(2) 0.6695(2) 1.04963(12)
H1 H 1.1568 0.7144 1.0814
H2 H 1.1327 0.6454 1.0124
C2 C 0.9858(2) 0.8039(2) 0.96262(13)
H3 H 1.0256 0.7542 0.9336
H4 H 1.0371 0.8749 0.9727
C3 C 0.8520(3) 0.8349(2) 0.92758(13)
C4 C 0.9517(3) 0.8224(2) 1.07477(13)
H5 H 0.9409 0.9010 1.0555
H6 H 1.0247 0.8245 1.1127
C5 C 0.8351(3) 0.7912(3) 1.10007(13)
O1 O 0.66491(17) 0.55785(17) 0.97600(10)
O2 O 0.91018(15) 0.51975(15) 1.05367(8)
O3 O 1.13035(16) 0.43933(15) 1.08348(8)
O4 O 1.05396(18) 0.56993(16) 1.16341(8)
O5 O 0.76339(15) 0.77128(15) 0.93891(8)
O6 O 0.8372(2) 0.9185(2) 0.88967(14)
O7 O 0.76569(17) 0.70936(17) 1.07183(9)
O8 O 0.8124(2) 0.8492(2) 1.14733(10)
V1B V 1.20168(4) 0.37756(4) 1.008691(19)
N1B N 1.01937(18) 0.25792(18) 0.97559(9)
P1B P 0.95445(6) 0.45791(5) 0.90927(3)
C1B C 0.9063(2) 0.3305(2) 0.95037(12)
H1B H 0.8432 0.2856 0.9186
H2B H 0.8673 0.3546 0.9876
C2B C 1.0142(2) 0.1961(2) 1.03738(13)
H3B H 0.9744 0.2458 1.0664
H4B H 0.9629 0.1251 1.0273
C3B C 1.1480(3) 0.1651(2) 1.07242(13)
C4B C 1.0483(3) 0.1776(2) 0.92523(13)
H5B H 1.0591 0.0990 0.9445
H6B H 0.9753 0.1755 0.8873
C5B C 1.1649(3) 0.2088(3) 0.89993(13)
O1B O 1.33509(17) 0.44215(17) 1.02400(10)
O2B O 1.08982(15) 0.48025(15) 0.94633(8)
O3B O 0.86965(16) 0.56067(15) 0.91652(8)
O4B O 0.94604(18) 0.43007(16) 0.83659(8)
O5B O 1.23661(15) 0.22872(15) 1.06109(8)
O6B O 1.1628(2) 0.0815(2) 1.11033(14)
O7B O 1.23431(17) 0.29064(17) 0.92817(9)
O8B O 1.1876(2) 0.1508(2) 0.85267(10)
Mn1 Mn 0.5000 -0.06367(4) 0.2500
O9 O 0.31190(16) -0.07163(16) 0.18715(9)
H7 H 0.253(2) -0.120(2) 0.2002(14)
H8 H 0.271(2) -0.0128(19) 0.1594(13)
O10 O 0.57908(17) -0.06043(16) 0.16132(8)
H9 H 0.6602(13) -0.085(3) 0.1591(13)
H10 H 0.527(2) -0.065(3) 0.1189(7)
N2 N 0.5000 0.1289(2) 0.2500
N3 N 0.5000 0.7420(2) 0.2500
C6 C 0.4536(2) 0.1894(2) 0.19468(11)
H11 H 0.4211 0.1482 0.1550
C7 C 0.4510(2) 0.3085(2) 0.19286(11)
H12 H 0.4160 0.3475 0.1528
C8 C 0.5000 0.3713(3) 0.2500
C9 C 0.5000 0.4997(3) 0.2500
C10 C 0.4414(3) 0.5623(2) 0.19462(12)
H13 H 0.3996 0.5234 0.1557
C11 C 0.4443(3) 0.6812(2) 0.19673(12)
H14 H 0.4046 0.7225 0.1582
Mn1_2 Mn 0.5000 0.93633(4) 0.2500
O9A O 0.68810(16) -0.07163(16) 0.31285(9)
H7A H 0.747(2) -0.120(2) 0.2998(14)
H8A H 0.729(2) -0.0128(19) 0.3406(13)
O10A O 0.42092(17) -0.06043(16) 0.33868(8)
H9A H 0.3398(13) -0.085(3) 0.3409(13)
H10A H 0.473(2) -0.065(3) 0.3811(7)
N3_2 N 0.5000 -0.2580(2) 0.2500
C6A C 0.5464(2) 0.1894(2) 0.30532(11)
H11A H 0.5789 0.1482 0.3450
C7A C 0.5490(2) 0.3085(2) 0.30714(11)
H12A H 0.5840 0.3475 0.3472
C10A C 0.5586(3) 0.5623(2) 0.30538(12)
H13A H 0.6004 0.5234 0.3443
C11A C 0.5557(3) 0.6812(2) 0.30327(12)
H14A H 0.5954 0.7225 0.3418
N4 N 0.8323(2) 0.4335(2) 0.24513(11)
H15 H 0.869(3) 0.481(3) 0.2819(16)
N5 N 0.5668(2) 0.1144(2) -0.03931(11)
C12 C 0.8310(3) 0.3189(3) 0.25030(13)
H16 H 0.8667 0.2833 0.2914
C13 C 0.7781(3) 0.2511(3) 0.19625(13)
H17 H 0.7775 0.1693 0.2000
C14 C 0.7259(2) 0.3044(3) 0.13645(12)
C15 C 0.7271(3) 0.4246(3) 0.13348(13)
H18 H 0.6901 0.4633 0.0936
C16 C 0.7821(3) 0.4870(3) 0.18861(13)
H19 H 0.7844 0.5689 0.1864
C17 C 0.6560(3) 0.0676(3) 0.00787(13)
H20 H 0.6845 -0.0082 0.0011
C18 C 0.7090(2) 0.1239(2) 0.06619(12)
H21 H 0.7709 0.0866 0.0989
C19 C 0.6703(2) 0.2359(2) 0.07626(12)
C20 C 0.5765(3) 0.2846(3) 0.02769(13)
H22 H 0.5462 0.3603 0.0329
C21 C 0.5282(3) 0.2205(3) -0.02841(14)
H23 H 0.4636 0.2543 -0.0611
O11 O 0.1529(3) 0.7741(2) 0.22233(11)
H24 H 0.117(4) 0.7025(19) 0.2073(17)
H25 H 0.138(4) 0.794(3) 0.2639(11)
O12 O 0.9796(4) 0.0633(4) 0.18563(19)
loop_
_geom_bond_atom_site_label_1
_geom_bond_atom_site_label_2
_geom_bond_site_symmetry_1
_geom_bond_site_symmetry_2
V1 N1 1_555 1_555
N1 C1 1_555 1_555
P1 C1 1_555 1_555
C1 H1 1_555 1_555
H2 C1 1_555 1_555
C2 N1 1_555 1_555
H3 C2 1_555 1_555
H4 C2 1_555 1_555
C3 C2 1_555 1_555
C4 N1 1_555 1_555
H5 C4 1_555 1_555
H6 C4 1_555 1_555
C5 C4 1_555 1_555
O1 V1 1_555 1_555
O2 V1 1_555 1_555
O3 P1 1_555 1_555
O4 P1 1_555 1_555
O5 V1 1_555 1_555
O6 C3 1_555 1_555
O7 V1 1_555 1_555
O8 C5 1_555 1_555
Mn1 O9 1_555 1_555
O9 H7 1_555 1_555
H8 O9 1_555 1_555
O10 Mn1 1_555 1_555
H9 O10 1_555 1_555
H10 O10 1_555 1_555
N2 Mn1 1_555 1_555
N3 C11 1_555 1_555
C6 N2 1_555 1_555
H11 C6 1_555 1_555
C7 C6 1_555 1_555
H12 C7 1_555 1_555
C8 C7 1_555 1_555
C9 C8 1_555 1_555
C10 C9 1_555 1_555
H13 C10 1_555 1_555
C11 C10 1_555 1_555
H14 C11 1_555 1_555
N4 H15 1_555 1_555
N5 C17 1_555 1_555
C12 N4 1_555 1_555
H16 C12 1_555 1_555
C13 C12 1_555 1_555
H17 C13 1_555 1_555
C14 C13 1_555 1_555
C15 C14 1_555 1_555
H18 C15 1_555 1_555
C16 N4 1_555 1_555
H19 C16 1_555 1_555
C17 H20 1_555 1_555
C18 C17 1_555 1_555
H21 C18 1_555 1_555
C19 C14 1_555 1_555
C20 C19 1_555 1_555
H22 C20 1_555 1_555
C21 N5 1_555 1_555
H23 C21 1_555 1_555
O11 H24 1_555 1_555
H25 O11 1_555 1_555
V1B O3 1_555 1_555
N1B V1B 1_555 1_555
P1B C1B 1_555 1_555
C1B N1B 1_555 1_555
H1B C1B 1_555 1_555
H2B C1B 1_555 1_555
C2B N1B 1_555 1_555
H3B C2B 1_555 1_555
H4B C2B 1_555 1_555
C3B C2B 1_555 1_555
C4B N1B 1_555 1_555
H5B C4B 1_555 1_555
H6B C4B 1_555 1_555
C5B C4B 1_555 1_555
O1B V1B 1_555 1_555
O2B V1B 1_555 1_555
O3B V1 1_555 1_555
O4B P1B 1_555 1_555
O5B V1B 1_555 1_555
O6B C3B 1_555 1_555
O7B V1B 1_555 1_555
O8B C5B 1_555 1_555
Mn1_2 N3 1_555 1_555
O9A Mn1 1_555 1_555
H7A O9A 1_555 1_555
H8A O9A 1_555 1_555
O10A Mn1 1_555 1_555
H9A O10A 1_555 1_555
H10A O10A 1_555 1_555
N3_2 Mn1 1_555 1_555
C6A N2 1_555 1_555
H11A C6A 1_555 1_555
C7A C8 1_555 1_555
H12A C7A 1_555 1_555
C10A C9 1_555 1_555
H13A C10A 1_555 1_555
C11A N3 1_555 1_555
H14A C11A 1_555 1_555
P1 O2 1_555 1_555
C3 O5 1_555 1_555
C5 O7 1_555 1_555
C15 C16 1_555 1_555
C18 C19 1_555 1_555
C20 C21 1_555 1_555
P1B O2B 1_555 1_555
P1B O3B 1_555 1_555
C3B O5B 1_555 1_555
C5B O7B 1_555 1_555
C6A C7A 1_555 1_555
C10A C11A 1_555 1_555

#END
