
#######################################################################
#
#                 Cambridge Crystallographic Data Centre
#                                CCDC 
#
#######################################################################
#
# If this CIF has been generated from an entry in the Cambridge 
# Structural Database, then it will include bibliographic, chemical, 
# crystal, experimental, refinement or atomic coordinate data resulting 
# from the CCDC's data processing and validation procedures.
#
#######################################################################

data_SEDPAU
_symmetry_cell_setting           monoclinic
_symmetry_space_group_name_H-M   'P 21/n'
_symmetry_Int_Tables_number      14
_space_group_name_Hall           '-P 2yn'
loop_
_symmetry_equiv_pos_site_id
_symmetry_equiv_pos_as_xyz
1 x,y,z
2 1/2-x,1/2+y,1/2-z
3 -x,-y,-z
4 1/2+x,1/2-y,1/2+z
_cell_length_a                   16.395(3)
_cell_length_b                   18.608(3)
_cell_length_c                   20.103(3)
_cell_angle_alpha                90
_cell_angle_beta                 103.874(3)
_cell_angle_gamma                90
_cell_volume                     5954.06
loop_
_atom_site_label
_atom_site_type_symbol
_atom_site_fract_x
_atom_site_fract_y
_atom_site_fract_z
Ag1 Ag 0.16021(3) -0.25909(3) 0.67588(3)
Ag4 Ag 0.28289(3) -0.25265(3) 0.56723(3)
C1 C 0.2539(5) -0.0988(4) 0.6210(4)
C2 C 0.3329(4) -0.0432(3) 0.7307(3)
H1 H 0.3257 -0.0860 0.7525
C3 C 0.3035(4) 0.0299(3) 0.6282(3)
C4 C 0.2629(4) 0.0395(3) 0.5533(4)
C5 C 0.2949(4) -0.0346(3) 0.6619(4)
C6 C 0.3494(4) 0.0842(3) 0.6667(3)
H2 H 0.3543 0.1280 0.6456
C7 C 0.3882(4) 0.0762(3) 0.7353(3)
H3 H 0.4183 0.1142 0.7595
C8 C 0.3823(4) 0.0120(3) 0.7680(3)
C9 C 0.5949(4) -0.0056(3) 0.9213(3)
H4 H 0.5724 -0.0053 0.9596
C10 C 0.5409(4) -0.0041(3) 0.8562(3)
C11 C 0.5734(4) -0.0035(3) 0.7987(3)
H5 H 0.5378 -0.0025 0.7551
C12 C 0.6605(4) -0.0045(3) 0.8074(3)
H6 H 0.6823 -0.0040 0.7687
C13 C 0.7158(4) -0.0063(3) 0.8718(3)
C14 C 0.6815(4) -0.0077(3) 0.9302(3)
C15 C 0.8093(4) -0.0008(3) 0.8779(3)
C16 C 0.7348(4) -0.0145(3) 1.0033(3)
C17 C 0.0296(4) -0.3208(3) 0.5505(3)
H7 H 0.0570 -0.3639 0.5647
C18 C 0.0127(4) -0.2008(3) 0.5669(3)
H8 H 0.0285 -0.1593 0.5926
C19 C -0.0517(4) -0.1956(3) 0.5092(3)
H9 H -0.0790 -0.1520 0.4970
C20 C -0.0759(4) -0.2578(3) 0.4687(3)
C21 C -0.0338(4) -0.3209(3) 0.4918(3)
H10 H -0.0485 -0.3634 0.4675
C22 C -0.1407(4) -0.2535(3) 0.4045(3)
C23 C -0.1497(4) -0.1916(3) 0.3646(3)
H11 H -0.1166 -0.1515 0.3798
C24 C -0.1933(4) -0.3119(3) 0.3789(3)
H12 H -0.1896 -0.3545 0.4037
C25 C -0.2500(4) -0.3054(3) 0.3172(3)
H13 H -0.2851 -0.3442 0.3015
C26 C -0.2078(4) -0.1900(3) 0.3026(3)
H14 H -0.2124 -0.1481 0.2766
C47 C 0.1667(4) -0.3011(3) 0.4334(3)
H31 H 0.1957 -0.3437 0.4466
C48 C 0.1082(4) -0.3002(3) 0.3721(3)
H32 H 0.0982 -0.3413 0.3451
C49 C 0.0634(4) -0.2369(3) 0.3502(3)
C50 C 0.0819(4) -0.1777(3) 0.3942(3)
H33 H 0.0537 -0.1344 0.3824
C51 C 0.1417(4) -0.1836(3) 0.4547(3)
H34 H 0.1532 -0.1435 0.4830
C52 C 0.0021(4) -0.2345(3) 0.2850(3)
C53 C -0.0230(4) -0.1715(3) 0.2479(3)
H35 H 0.0004 -0.1278 0.2652
C54 C -0.0818(4) -0.1730(3) 0.1863(3)
H36 H -0.0981 -0.1299 0.1637
C55 C -0.0911(4) -0.2958(4) 0.1916(4)
H37 H -0.1118 -0.3392 0.1716
C56 C -0.0362(4) -0.2974(3) 0.2543(3)
H38 H -0.0239 -0.3411 0.2770
N1 N 0.0543(3) -0.2613(3) 0.5888(3)
N2 N -0.2582(3) -0.2456(3) 0.2775(3)
N7 N 0.1847(3) -0.2450(3) 0.4755(3)
N8 N -0.1170(3) -0.2347(3) 0.1571(3)
O1 O 0.2796(4) -0.1143(3) 0.5682(3)
O2 O 0.2094(4) -0.1383(3) 0.6411(3)
O3 O 0.1853(3) 0.0335(3) 0.5344(2)
O4 O 0.3118(3) 0.0541(3) 0.5156(2)
O5 O 0.8356(3) -0.0185(3) 0.8265(2)
O6 O 0.8537(3) 0.0211(3) 0.9336(2)
O7 O 0.7705(3) -0.0736(2) 1.0195(2)
O8 O 0.7331(3) 0.0372(2) 1.0427(2)
S1 S 0.43227(10) -0.00326(9) 0.85515(9)
Ag1C Ag -0.33979(3) -0.24091(3) 0.17588(3)
Ag4C Ag -0.21711(3) -0.24735(3) 0.06723(3)
N2C N 0.2418(3) -0.2544(3) 0.7775(3)
N8C N 0.3830(3) -0.2653(3) 0.6571(3)
Ag2 Ag 0.12158(3) -0.22185(3) -0.06488(3)
Ag3 Ag -0.02511(3) -0.24699(3) 0.02748(3)
C27 C 0.2449(4) -0.2970(4) 0.0553(3)
H15 H 0.2135 -0.3369 0.0368
C28 C 0.3071(4) -0.3065(3) 0.1128(3)
H16 H 0.3176 -0.3520 0.1322
C29 C 0.3550(4) -0.2484(3) 0.1426(3)
C30 C 0.3367(4) -0.1826(3) 0.1094(3)
H17 H 0.3673 -0.1419 0.1272
C31 C 0.2739(4) -0.1773(3) 0.0508(3)
H18 H 0.2642 -0.1330 0.0290
C32 C 0.4187(4) -0.2557(3) 0.2074(3)
C33 C 0.4645(4) -0.3177(3) 0.2271(3)
H19 H 0.4567 -0.3572 0.1978
C34 C 0.5209(4) -0.3217(3) 0.2891(3)
H20 H 0.5516 -0.3639 0.2998
C35 C 0.4913(4) -0.2076(3) 0.3166(3)
H21 H 0.5000 -0.1694 0.3473
C36 C 0.4351(4) -0.1984(3) 0.2553(3)
H22 H 0.4075 -0.1546 0.2448
C37 C 0.1009(4) -0.3082(3) 0.1528(3)
H23 H 0.0757 -0.3513 0.1356
C38 C 0.1617(4) -0.3093(3) 0.2128(3)
H24 H 0.1772 -0.3528 0.2350
C39 C 0.2006(4) -0.2460(3) 0.2411(3)
C40 C 0.1759(4) -0.1835(3) 0.2038(3)
H25 H 0.2012 -0.1400 0.2194
C41 C 0.1144(4) -0.1859(3) 0.1441(3)
H26 H 0.0984 -0.1431 0.1207
C42 C 0.2633(4) -0.2469(3) 0.3061(3)
C43 C 0.3103(4) -0.3084(3) 0.3305(3)
H27 H 0.3027 -0.3502 0.3044
C44 C 0.3670(4) -0.3071(3) 0.3922(3)
H28 H 0.3966 -0.3490 0.4072
C45 C 0.3381(4) -0.1892(3) 0.4090(3)
H29 H 0.3475 -0.1480 0.4360
C46 C 0.2800(4) -0.1856(3) 0.3480(3)
H30 H 0.2517 -0.1428 0.3341
N3 N 0.2256(3) -0.2332(3) 0.0233(3)
N4 N 0.5349(3) -0.2684(3) 0.3357(3)
N5 N 0.0759(3) -0.2468(3) 0.1176(3)
N6 N 0.3827(3) -0.2486(3) 0.4329(3)
O12 O 0.0589(3) -0.1025(3) -0.0371(3)
H41 H 0.045(5) -0.078(5) -0.072(4)
H42 H 0.090(5) -0.089(5) -0.010(4)
Ag2C Ag 0.62158(3) -0.27815(3) 0.43512(3)
Ag3C Ag 0.47489(3) -0.25301(3) 0.52748(3)
N4C N 0.0349(3) -0.2316(3) -0.1643(3)
N6C N -0.1173(3) -0.2514(3) -0.0671(3)
O9 O 0.1054(4) -0.0635(4) 0.7083(3)
O10 O 1.0650(3) 0.0291(3) 0.6093(3)
O11 O 0.6918(4) -0.0249(4) 0.6186(3)
H39 H 0.708(6) -0.041(4) 0.584(3)
H40 H 0.695(7) 0.0215(12) 0.620(5)
O13 O 0.0611(3) 0.1019(3) -0.0443(2)
H43 H 0.041(3) 0.094(4) -0.010(2)
H44 H 0.1133(16) 0.094(4) -0.038(3)
O14 O -0.0063(3) 0.0034(3) 0.1424(3)
H45 H -0.024(4) -0.023(4) 0.107(3)
H46 H 0.0464(16) 0.011(4) 0.153(4)
O15 O 0.7250(3) -0.1161(3) 0.1386(3)
H47 H 0.737(5) -0.109(5) 0.104(4)
H48 H 0.754(5) -0.074(5) 0.162(4)
O16 O 0.4636(4) -0.0077(4) 0.3670(3)
H49 H 0.419(6) 0.002(6) 0.371(5)
H50 H 0.481(6) -0.058(5) 0.393(5)
O17 O 0.5577(4) 0.0982(3) 0.4431(3)
H51 H 0.608(2) 0.108(5) 0.443(4)
H52 H 0.532(4) 0.071(4) 0.411(3)
O18 O 0.5370(3) -0.1187(3) 0.4591(3)
H53 H 0.584(3) -0.098(4) 0.472(4)
H54 H 0.500(3) -0.110(5) 0.481(4)
O19 O 0.1671(4) -0.0169(4) -0.1692(3)
H55 H 0.1143(15) -0.014(5) -0.174(4)
H56 H 0.194(4) -0.031(5) -0.129(2)
O20 O 0.9072(3) -0.0335(3) 0.6009(3)
H57 H 0.875(5) -0.033(5) 0.559(4)
H58 H 0.949(5) -0.026(5) 0.597(5)
O21 O 0.8382(4) 0.0354(3) 0.6957(3)
H59 H 0.840(6) 0.013(4) 0.732(2)
H60 H 0.862(5) 0.015(4) 0.667(3)
loop_
_geom_bond_atom_site_label_1
_geom_bond_atom_site_label_2
_geom_bond_site_symmetry_1
_geom_bond_site_symmetry_2
Ag1 Ag4 1_555 1_555
Ag2 Ag3 1_555 1_555
Ag3 N5 1_555 1_555
Ag4 N7 1_555 1_555
C1 C5 1_555 1_555
C2 H1 1_555 1_555
C3 C4 1_555 1_555
C4 O3 1_555 1_555
C5 C2 1_555 1_555
C6 C3 1_555 1_555
H2 C6 1_555 1_555
C7 C6 1_555 1_555
H3 C7 1_555 1_555
C8 C2 1_555 1_555
C9 H4 1_555 1_555
C10 C9 1_555 1_555
C11 C10 1_555 1_555
H5 C11 1_555 1_555
C12 C11 1_555 1_555
H6 C12 1_555 1_555
C13 C12 1_555 1_555
C14 C9 1_555 1_555
C15 C13 1_555 1_555
C16 C14 1_555 1_555
C17 H7 1_555 1_555
C18 H8 1_555 1_555
C19 C18 1_555 1_555
H9 C19 1_555 1_555
C20 C19 1_555 1_555
C21 C17 1_555 1_555
H10 C21 1_555 1_555
C22 C20 1_555 1_555
C23 C22 1_555 1_555
H11 C23 1_555 1_555
C24 C22 1_555 1_555
H12 C24 1_555 1_555
C25 C24 1_555 1_555
H13 C25 1_555 1_555
C26 C23 1_555 1_555
H14 C26 1_555 1_555
C27 H15 1_555 1_555
C28 C27 1_555 1_555
H16 C28 1_555 1_555
C29 C28 1_555 1_555
C30 C29 1_555 1_555
H17 C30 1_555 1_555
C31 C30 1_555 1_555
H18 C31 1_555 1_555
C32 C29 1_555 1_555
C33 C32 1_555 1_555
H19 C33 1_555 1_555
C34 C33 1_555 1_555
H20 C34 1_555 1_555
C35 H21 1_555 1_555
C36 C32 1_555 1_555
H22 C36 1_555 1_555
C37 H23 1_555 1_555
C38 C37 1_555 1_555
H24 C38 1_555 1_555
C39 C38 1_555 1_555
C40 C39 1_555 1_555
H25 C40 1_555 1_555
C41 C40 1_555 1_555
H26 C41 1_555 1_555
C42 C39 1_555 1_555
C43 C42 1_555 1_555
H27 C43 1_555 1_555
C44 C43 1_555 1_555
H28 C44 1_555 1_555
C45 H29 1_555 1_555
C46 C42 1_555 1_555
H30 C46 1_555 1_555
C47 H31 1_555 1_555
C48 C47 1_555 1_555
H32 C48 1_555 1_555
C49 C48 1_555 1_555
C50 C49 1_555 1_555
H33 C50 1_555 1_555
C51 C50 1_555 1_555
H34 C51 1_555 1_555
C52 C49 1_555 1_555
C53 C52 1_555 1_555
H35 C53 1_555 1_555
C54 C53 1_555 1_555
H36 C54 1_555 1_555
C55 H37 1_555 1_555
C56 C52 1_555 1_555
H38 C56 1_555 1_555
N1 Ag1 1_555 1_555
N2 C25 1_555 1_555
N3 Ag2 1_555 1_555
N4 C34 1_555 1_555
N5 C37 1_555 1_555
N6 C44 1_555 1_555
N7 C47 1_555 1_555
N8 C54 1_555 1_555
O1 Ag4 1_555 1_555
O2 Ag1 1_555 1_555
O4 C4 1_555 1_555
O5 C15 1_555 1_555
O6 C15 1_555 1_555
O7 C16 1_555 1_555
O8 C16 1_555 1_555
S1 C8 1_555 1_555
O11 H39 1_555 1_555
H40 O11 1_555 1_555
O12 Ag2 1_555 1_555
H41 O12 1_555 1_555
H42 O12 1_555 1_555
O13 H43 1_555 1_555
H44 O13 1_555 1_555
O14 H45 1_555 1_555
H46 O14 1_555 1_555
O15 H47 1_555 1_555
H48 O15 1_555 1_555
O16 H49 1_555 1_555
H50 O16 1_555 1_555
O17 H51 1_555 1_555
H52 O17 1_555 1_555
O18 H53 1_555 1_555
H54 O18 1_555 1_555
O19 H55 1_555 1_555
H56 O19 1_555 1_555
O20 H57 1_555 1_555
H58 O20 1_555 1_555
O21 H59 1_555 1_555
H60 O21 1_555 1_555
Ag1C N2 1_555 1_555
Ag2C N4 1_555 1_555
Ag3C N6 1_555 1_555
Ag4C N8 1_555 1_555
N2C Ag1 1_555 1_555
N4C Ag2 1_555 1_555
N6C Ag3 1_555 1_555
N8C Ag4 1_555 1_555
C1 O1 1_555 1_555
C1 O2 1_555 1_555
C3 C5 1_555 1_555
C7 C8 1_555 1_555
C10 S1 1_555 1_555
C13 C14 1_555 1_555
C17 N1 1_555 1_555
C18 N1 1_555 1_555
C20 C21 1_555 1_555
C26 N2 1_555 1_555
C27 N3 1_555 1_555
C31 N3 1_555 1_555
C35 C36 1_555 1_555
C35 N4 1_555 1_555
C41 N5 1_555 1_555
C45 C46 1_555 1_555
C45 N6 1_555 1_555
C51 N7 1_555 1_555
C55 C56 1_555 1_555
C55 N8 1_555 1_555
Ag1C Ag4C 1_555 1_555
Ag2C Ag3C 1_555 1_555

#END
