
#######################################################################
#
#                 Cambridge Crystallographic Data Centre
#                                CCDC 
#
#######################################################################
#
# If this CIF has been generated from an entry in the Cambridge 
# Structural Database, then it will include bibliographic, chemical, 
# crystal, experimental, refinement or atomic coordinate data resulting 
# from the CCDC's data processing and validation procedures.
#
#######################################################################

data_SEHXIN
_symmetry_cell_setting           tetragonal
_symmetry_space_group_name_H-M   'P 43 2 2'
_symmetry_Int_Tables_number      95
_space_group_name_Hall           'P 4cw 2c'
loop_
_symmetry_equiv_pos_site_id
_symmetry_equiv_pos_as_xyz
1 x,y,z
2 -x,-y,1/2+z
3 x,-y,1/2-z
4 -x,y,-z
5 -y,-x,3/4-z
6 y,x,1/4-z
7 y,-x,1/4+z
8 -y,x,3/4+z
_cell_length_a                   10.3627(15)
_cell_length_b                   10.3627(15)
_cell_length_c                   14.332(3)
_cell_angle_alpha                90
_cell_angle_beta                 90
_cell_angle_gamma                90
_cell_volume                     1539.05
loop_
_atom_site_label
_atom_site_type_symbol
_atom_site_fract_x
_atom_site_fract_y
_atom_site_fract_z
C1 C 0.8069(13) 0.0784(11) 0.5853(7)
C2 C 0.7339(9) 0.0409(11) 0.6718(6)
C3 C 0.5993(9) 0.0370(10) 0.6716(6)
H1 H 0.5547 0.0597 0.6178
C4 C 0.5313(13) 0.0000 0.7500
C5 C 0.3849(13) 0.0000 0.7500
C6 C 0.7985(16) 0.0000 0.7500
H2 H 0.8882 0.0000 0.7500
O1 O 0.7466(10) 0.0822(10) 0.5107(5)
O2 O 0.9220(8) 0.0994(8) 0.5914(6)
O3 O 0.3316(7) 0.0655(9) 0.6911(5)
O4 O 0.6897(11) 0.3103(11) 0.3750
Eu1 Eu 0.85821(5) 0.14179(5) 0.3750
C1B C 0.8069(13) -0.0784(11) 0.9147(7)
C2B C 0.7339(9) -0.0409(11) 0.8282(6)
C3B C 0.5993(9) -0.0370(10) 0.8284(6)
H1B H 0.5547 -0.0597 0.8822
O1B O 0.7466(10) -0.0822(10) 0.9893(5)
O1D O 0.9178(10) 0.2534(10) 0.2393(5)
O2B O 0.9220(8) -0.0994(8) 0.9086(6)
O2C O 1.0780(8) 0.0994(8) 0.4086(6)
O2G O 0.9006(8) -0.0780(8) 0.3414(6)
O3B O 0.3316(7) -0.0655(9) 0.8089(5)
O3C O 0.6684(7) 0.0655(9) 0.3089(5)
O3G O 0.9345(9) 0.3316(7) 0.4411(5)
Eu1C Eu 1.14179(5) 0.14179(5) 0.6250
Eu1C_2 Eu 0.14179(5) 0.14179(5) 0.6250
Eu1B Eu 0.85821(5) -0.14179(5) 1.1250
Eu1A Eu 1.14179(5) -0.14179(5) 0.8750
Eu1A_2 Eu 0.14179(5) -0.14179(5) 0.8750
loop_
_geom_bond_atom_site_label_1
_geom_bond_atom_site_label_2
_geom_bond_site_symmetry_1
_geom_bond_site_symmetry_2
C1 C2 1_555 1_555
C2 C3 1_555 1_555
C3 H1 1_555 1_555
C4 C3 1_555 1_555
C5 C4 1_555 1_555
C6 C2 1_555 1_555
H2 C6 1_555 1_555
O1 C1 1_555 1_555
O2 C1 1_555 1_555
O3 C5 1_555 1_555
O4 Eu1 1_555 1_555
Eu1 O1 1_555 1_555
C1B C2B 1_555 1_555
C2B C6 1_555 1_555
C3B C4 1_555 1_555
H1B C3B 1_555 1_555
O1B C1B 1_555 1_555
O1D Eu1 1_555 1_555
O2B C1B 1_555 1_555
O2C Eu1 1_555 1_555
O2G Eu1 1_555 1_555
O3B C5 1_555 1_555
O3C Eu1 1_555 1_555
O3G Eu1 1_555 1_555
Eu1C O2 1_555 1_555
Eu1C_2 O3 1_555 1_555
Eu1B O1B 1_555 1_555
Eu1A O2B 1_555 1_555
Eu1A_2 O3B 1_555 1_555
C2B C3B 1_555 1_555

#END
