
#######################################################################
#
#                 Cambridge Crystallographic Data Centre
#                                CCDC 
#
#######################################################################
#
# If this CIF has been generated from an entry in the Cambridge 
# Structural Database, then it will include bibliographic, chemical, 
# crystal, experimental, refinement or atomic coordinate data resulting 
# from the CCDC's data processing and validation procedures.
#
#######################################################################

data_SETDOM
_symmetry_cell_setting           triclinic
_symmetry_space_group_name_H-M   'P -1'
_symmetry_Int_Tables_number      2
_space_group_name_Hall           '-P 1'
loop_
_symmetry_equiv_pos_site_id
_symmetry_equiv_pos_as_xyz
1 x,y,z
2 -x,-y,-z
_cell_length_a                   7.260(16)
_cell_length_b                   11.77(3)
_cell_length_c                   13.15(3)
_cell_angle_alpha                74.55(3)
_cell_angle_beta                 76.47(3)
_cell_angle_gamma                76.55(3)
_cell_volume                     1035.48
loop_
_atom_site_label
_atom_site_type_symbol
_atom_site_fract_x
_atom_site_fract_y
_atom_site_fract_z
Br1 Br 0.3413(4) -0.1299(2) 0.3993(2)
C1 C 0.041(3) 0.2516(15) 0.4124(14)
H1 H -0.0900 0.2736 0.4033
C2 C 0.339(3) 0.2543(15) 0.4109(14)
H2 H 0.4606 0.2773 0.3999
C3 C 0.130(3) 0.4621(17) 0.3488(17)
H3 H 0.0443 0.4836 0.2954
H4 H 0.2524 0.4902 0.3132
C4 C 0.024(3) 0.5293(19) 0.4528(16)
H5 H -0.0014 0.6143 0.4391
C5 C 0.036(3) -0.0746(15) 0.7379(15)
H6 H -0.0951 -0.0836 0.7622
C6 C 0.327(3) -0.0718(15) 0.7372(15)
H7 H 0.4431 -0.0775 0.7608
C7 C 0.125(3) -0.1230(18) 0.9192(17)
H8 H 0.2409 -0.1767 0.9430
H9 H 0.0163 -0.1676 0.9458
C8 C 0.077(3) -0.0118(18) 0.9680(17)
H10 H 0.1679 0.0405 0.9493
N1 N 0.310(2) 0.1500(15) 0.4469(11)
N2 N 0.117(2) 0.1491(15) 0.4458(11)
N3 N 0.1663(19) 0.3349(12) 0.3883(11)
N4 N 0.307(2) -0.0438(12) 0.6325(11)
N5 N 0.118(2) -0.0438(11) 0.6313(11)
N6 N 0.1577(19) -0.0904(12) 0.8030(11)
Cu1 Cu 0.0000 0.0000 0.5000
Cu2 Cu 0.5000 0.0000 0.5000
C1A C -0.041(3) 0.7484(15) 0.5876(14)
H1A H 0.0900 0.7264 0.5967
C2A C -0.339(3) 0.7457(15) 0.5891(14)
H2A H -0.4606 0.7227 0.6001
C3A C -0.130(3) 0.5379(17) 0.6512(17)
H3A H -0.0443 0.5164 0.7046
H4A H -0.2524 0.5098 0.6868
C4A C -0.024(3) 0.4707(19) 0.5472(16)
H5A H 0.0014 0.3857 0.5609
N1A N -0.310(2) 0.8500(15) 0.5531(11)
N2A N -0.117(2) 0.8509(15) 0.5542(11)
N3A N -0.1663(19) 0.6651(12) 0.6117(11)
C5A C -0.036(3) 0.0746(15) 1.2621(15)
H6A H 0.0951 0.0836 1.2378
C6A C -0.327(3) 0.0718(15) 1.2628(15)
H7A H -0.4431 0.0775 1.2392
C7A C -0.125(3) 0.1230(18) 1.0808(17)
H8A H -0.2409 0.1767 1.0570
H9A H -0.0163 0.1676 1.0542
C8A C -0.077(3) 0.0118(18) 1.0320(17)
H10A H -0.1679 -0.0405 1.0507
N4A N -0.307(2) 0.0438(12) 1.3675(11)
N5A N -0.118(2) 0.0438(11) 1.3687(11)
N6A N -0.1577(19) 0.0904(12) 1.1970(11)
Br1A Br -0.3413(4) 0.1299(2) 0.6007(2)
Br1A_2 Br 0.6587(4) 0.1299(2) 0.6007(2)
N1A_2 N 0.690(2) -0.1500(15) 0.5531(11)
N2A_2 N -0.117(2) -0.1491(15) 0.5542(11)
N4A_2 N 0.693(2) 0.0438(12) 0.3675(11)
N5A_2 N -0.118(2) 0.0438(11) 0.3687(11)
Cu1_2 Cu 0.0000 0.0000 1.5000
Cu1_3 Cu 0.0000 1.0000 0.5000
Cu2_2 Cu -0.5000 0.0000 0.5000
Cu2_3 Cu -0.5000 0.0000 1.5000
Cu2_4 Cu -0.5000 1.0000 0.5000
O1 O 0.624(7) 0.873(3) 0.887(5)
O2 O 0.772(7) 0.628(6) 1.017(3)
O3 O 0.918(5) 0.693(5) 0.774(3)
O4 O 0.507(6) 0.651(5) 0.860(4)
S1 S 0.703(2) 0.712(3) 0.8839(12)
loop_
_geom_bond_atom_site_label_1
_geom_bond_atom_site_label_2
_geom_bond_site_symmetry_1
_geom_bond_site_symmetry_2
O1 S1 1_555 1_555
O2 S1 1_555 1_555
O3 S1 1_555 1_555
O4 S1 1_555 1_555
Br1 Cu1 1_555 1_555
C1 H1 1_555 1_555
C2 H2 1_555 1_555
C3 H3 1_555 1_555
H4 C3 1_555 1_555
C4 C3 1_555 1_555
H5 C4 1_555 1_555
C5 H6 1_555 1_555
C6 H7 1_555 1_555
C7 H8 1_555 1_555
H9 C7 1_555 1_555
C8 C7 1_555 1_555
H10 C8 1_555 1_555
N1 C2 1_555 1_555
N2 C1 1_555 1_555
N3 C1 1_555 1_555
N4 C6 1_555 1_555
N5 C5 1_555 1_555
N6 C5 1_555 1_555
Cu1 N2 1_555 1_555
Cu2 Br1 1_555 1_555
C1A H1A 1_555 1_555
C2A H2A 1_555 1_555
C3A H3A 1_555 1_555
H4A C3A 1_555 1_555
C4A C4 1_555 1_555
H5A C4A 1_555 1_555
N1A C2A 1_555 1_555
N2A C1A 1_555 1_555
N3A C1A 1_555 1_555
C5A H6A 1_555 1_555
C6A H7A 1_555 1_555
C7A H8A 1_555 1_555
H9A C7A 1_555 1_555
C8A C8 1_555 1_555
H10A C8A 1_555 1_555
N4A C6A 1_555 1_555
N5A C5A 1_555 1_555
N6A C5A 1_555 1_555
Br1A Cu1 1_555 1_555
Br1A_2 Cu2 1_555 1_555
N1A_2 Cu2 1_555 1_555
N2A_2 Cu1 1_555 1_555
N4A_2 Cu2 1_555 1_555
N5A_2 Cu1 1_555 1_555
Cu1_2 N5A 1_555 1_555
Cu1_3 N2A 1_555 1_555
Cu2_2 Br1A 1_555 1_555
Cu2_3 N4A 1_555 1_555
Cu2_4 N1A 1_555 1_555
C2 N3 1_555 1_555
C3 N3 1_555 1_555
C6 N6 1_555 1_555
C7 N6 1_555 1_555
N1 N2 1_555 1_555
N1 Cu2 1_555 1_555
N4 N5 1_555 1_555
N4 Cu2 1_555 1_555
N5 Cu1 1_555 1_555
C2A N3A 1_555 1_555
C3A C4A 1_555 1_555
C3A N3A 1_555 1_555
N1A N2A 1_555 1_555
C6A N6A 1_555 1_555
C7A C8A 1_555 1_555
C7A N6A 1_555 1_555
N4A N5A 1_555 1_555

#END
