
#######################################################################
#
#                 Cambridge Crystallographic Data Centre
#                                CCDC 
#
#######################################################################
#
# If this CIF has been generated from an entry in the Cambridge 
# Structural Database, then it will include bibliographic, chemical, 
# crystal, experimental, refinement or atomic coordinate data resulting 
# from the CCDC's data processing and validation procedures.
#
#######################################################################

data_SIDCAL
_symmetry_cell_setting           triclinic
_symmetry_space_group_name_H-M   'P -1'
_symmetry_Int_Tables_number      2
_space_group_name_Hall           '-P 1'
loop_
_symmetry_equiv_pos_site_id
_symmetry_equiv_pos_as_xyz
1 x,y,z
2 -x,-y,-z
_cell_length_a                   9.8523(7)
_cell_length_b                   19.5244(15)
_cell_length_c                   19.6699(15)
_cell_angle_alpha                89.715(2)
_cell_angle_beta                 83.058(2)
_cell_angle_gamma                87.776(2)
_cell_volume                     3753.14
loop_
_atom_site_label
_atom_site_type_symbol
_atom_site_fract_x
_atom_site_fract_y
_atom_site_fract_z
Cd1 Cd 0.99924(7) 0.15416(4) 0.07684(4)
Cd2 Cd 1.06366(7) 0.57392(4) 0.34431(4)
Cd3 Cd 1.0000 0.0000 0.0000
Cd4 Cd 1.0000 0.5000 0.5000
C1 C 0.9839(12) 0.2223(6) 0.1960(6)
C2 C 0.9857(11) 0.2587(5) 0.2638(5)
C3 C 1.0055(11) 0.3293(5) 0.2663(5)
H1 H 1.0159 0.3553 0.2263
C4 C 1.0094(10) 0.3599(5) 0.3299(5)
C5 C 0.9971(11) 0.3201(5) 0.3902(5)
H2 H 1.0001 0.3411 0.4324
C6 C 0.9807(13) 0.2508(6) 0.3874(6)
C7 C 0.9707(13) 0.2204(6) 0.3237(6)
H3 H 0.9538 0.1740 0.3216
C8 C 1.0334(10) 0.4344(5) 0.3326(6)
C9 C 0.9744(18) 0.2076(6) 0.4524(6)
C10 C 0.984(2) 0.1321(7) 0.4426(10)
H4 H 1.0664 0.1197 0.4134
H5 H 0.9063 0.1179 0.4218
H6 H 0.9851 0.1099 0.4862
C11 C 1.092(2) 0.2221(14) 0.4916(13)
H7 H 1.0918 0.2703 0.5012
H8 H 1.1766 0.2084 0.4648
H9 H 1.0829 0.1970 0.5339
C12 C 0.846(2) 0.2274(13) 0.4970(13)
H10 H 0.8407 0.2763 0.5030
H11 H 0.8467 0.2055 0.5408
H12 H 0.7689 0.2133 0.4760
C13 C 0.7524(10) 0.0847(6) 0.0837(5)
C14 C 0.6261(9) 0.0448(6) 0.0894(5)
C15 C 0.5000(11) 0.0733(5) 0.0789(5)
H13 H 0.4921 0.1195 0.0676
C16 C 0.3872(10) 0.0348(6) 0.0849(5)
C17 C 0.4013(12) -0.0341(6) 0.1035(6)
H14 H 0.3241 -0.0605 0.1062
C18 C 0.5207(10) -0.0651(6) 0.1179(6)
C19 C 0.6375(10) -0.0251(6) 0.1082(5)
H15 H 0.7227 -0.0448 0.1141
C20 C 0.2488(12) 0.0628(6) 0.0736(5)
C21 C 0.407(2) -0.1679(13) 0.1703(12)
H16 H 0.3353 -0.1560 0.1428
H17 H 0.3839 -0.1489 0.2154
H18 H 0.4170 -0.2168 0.1734
C22 C 0.558(3) -0.1809(12) 0.0719(10)
H19 H 0.6416 -0.1673 0.0460
H20 H 0.4831 -0.1717 0.0458
H21 H 0.5645 -0.2290 0.0818
C23 C 0.668(2) -0.1667(13) 0.1583(13)
H22 H 0.7411 -0.1492 0.1268
H23 H 0.6725 -0.2159 0.1565
H24 H 0.6783 -0.1520 0.2038
C24 C 0.7948(11) 0.5827(5) 0.4120(6)
C25 C 0.6571(11) 0.5891(5) 0.4534(6)
C26 C 0.5405(10) 0.5777(5) 0.4240(6)
H25 H 0.5470 0.5658 0.3780
C27 C 0.4121(11) 0.5838(5) 0.4628(6)
C28 C 0.4048(12) 0.6040(6) 0.5324(6)
H26 H 0.3197 0.6074 0.5586
C29 C 0.5186(11) 0.6185(6) 0.5621(6)
C30 C 0.6511(12) 0.6080(6) 0.5214(6)
H27 H 0.7312 0.6141 0.5409
C31 C 0.2802(12) 0.5712(6) 0.4355(6)
C32 C 0.502(2) 0.6414(9) 0.6379(9)
C33 C 0.633(2) 0.6446(14) 0.6684(14)
H28 H 0.6932 0.6071 0.6515
H29 H 0.6145 0.6416 0.7174
H30 H 0.6749 0.6871 0.6560
C34 C 0.422(2) 0.5864(12) 0.6773(14)
H31 H 0.3415 0.5781 0.6563
H32 H 0.3968 0.6012 0.7237
H33 H 0.4781 0.5449 0.6770
C35 C 0.400(2) 0.6994(12) 0.6513(15)
H34 H 0.3146 0.6869 0.6374
H35 H 0.4325 0.7389 0.6258
H36 H 0.3882 0.7100 0.6993
C36 C 1.0668(11) 0.6934(6) 0.2740(5)
C37 C 1.0486(11) 0.7595(5) 0.2381(5)
C38 C 1.0341(14) 0.8196(6) 0.2757(6)
H37 H 1.0308 0.8165 0.3230
C39 C 1.0242(11) 0.8851(5) 0.2464(5)
C40 C 1.0425(10) 0.7642(5) 0.1680(5)
H38 H 1.0508 0.7248 0.1411
C41 C 1.0241(10) 0.8270(5) 0.1388(5)
C42 C 1.0161(11) 0.8859(5) 0.1750(5)
H39 H 1.0052 0.9275 0.1527
C43 C 1.0076(10) 0.8323(5) 0.0625(5)
C44 C 1.0111(15) 0.9501(6) 0.2884(7)
C45 C 1.119(2) 1.0002(11) 0.2593(12)
H40 H 1.1160 1.0050 0.2109
H41 H 1.2077 0.9829 0.2676
H42 H 1.0998 1.0440 0.2810
C46 C 0.889(3) 0.9935(14) 0.2779(15)
H43 H 0.8849 0.9995 0.2297
H44 H 0.8949 1.0374 0.2989
H45 H 0.8083 0.9718 0.2982
C47 C 1.012(3) 0.9443(10) 0.3601(9)
H46 H 1.0919 0.9182 0.3695
H47 H 0.9315 0.9216 0.3796
H48 H 1.0121 0.9892 0.3797
O1 O 0.9721(13) 0.1602(4) 0.1965(4)
O2 O 0.9970(9) 0.2564(4) 0.1411(4)
O3 O 1.0480(9) 0.4584(4) 0.3923(4)
O4 O 1.0455(8) 0.4713(4) 0.2812(4)
O5 O 0.7391(8) 0.1494(4) 0.0747(4)
O6 O 0.8691(7) 0.0544(4) 0.0885(4)
O7 O 0.1616(8) 0.0194(5) 0.0649(4)
O8 O 0.2247(9) 0.1272(5) 0.0728(4)
O9 O 0.7985(7) 0.5773(4) 0.3498(4)
O10 O 0.9007(7) 0.5864(4) 0.4436(4)
O11 O 0.1798(7) 0.5655(4) 0.4785(5)
O12 O 0.2761(8) 0.5696(4) 0.3704(5)
O13 O 1.0599(8) 0.6370(4) 0.2409(4)
O14 O 1.0739(11) 0.6935(4) 0.3368(4)
O15 O 1.0217(8) 0.7790(4) 0.0257(4)
O16 O 0.9826(8) 0.8907(4) 0.0377(4)
C48 C 0.5342(19) -0.1404(7) 0.1391(8)
Cd1A Cd 0.00076(7) -0.15416(4) -0.07684(4)
Cd2A Cd -0.06366(7) -0.57392(4) -0.34431(4)
C1A C 0.0161(12) -0.2223(6) -0.1960(6)
C2A C 0.0143(11) -0.2587(5) -0.2638(5)
C3A C -0.0055(11) -0.3293(5) -0.2663(5)
H1A H -0.0159 -0.3553 -0.2263
C4A C -0.0094(10) -0.3599(5) -0.3299(5)
C5A C 0.0029(11) -0.3201(5) -0.3902(5)
H2A H -0.0001 -0.3411 -0.4324
C6A C 0.0193(13) -0.2508(6) -0.3874(6)
C7A C 0.0293(13) -0.2204(6) -0.3237(6)
H3A H 0.0462 -0.1740 -0.3216
C8A C -0.0334(10) -0.4344(5) -0.3326(6)
C9A C 0.0256(18) -0.2076(6) -0.4524(6)
C10A C 0.016(2) -0.1321(7) -0.4426(10)
H4A H -0.0664 -0.1197 -0.4134
H5A H 0.0937 -0.1179 -0.4218
H6A H 0.0149 -0.1099 -0.4862
C11A C -0.092(2) -0.2221(14) -0.4916(13)
H7A H -0.0918 -0.2703 -0.5012
H8A H -0.1766 -0.2084 -0.4648
H9A H -0.0829 -0.1970 -0.5339
C12A C 0.154(2) -0.2274(13) -0.4970(13)
H10A H 0.1593 -0.2763 -0.5030
H11A H 0.1533 -0.2055 -0.5408
H12A H 0.2311 -0.2133 -0.4760
C13A C 0.2476(10) -0.0847(6) -0.0837(5)
C14A C 0.3739(9) -0.0448(6) -0.0894(5)
C15A C 0.5000(11) -0.0733(5) -0.0789(5)
H13A H 0.5079 -0.1195 -0.0676
C16A C 0.6128(10) -0.0348(6) -0.0849(5)
C17A C 0.5987(12) 0.0341(6) -0.1035(6)
H14A H 0.6759 0.0605 -0.1062
C18A C 0.4793(10) 0.0651(6) -0.1179(6)
C19A C 0.3625(10) 0.0251(6) -0.1082(5)
H15A H 0.2773 0.0448 -0.1141
C20A C 0.7512(12) -0.0628(6) -0.0736(5)
C21A C 0.593(2) 0.1679(13) -0.1703(12)
H16A H 0.6647 0.1560 -0.1428
H17A H 0.6161 0.1489 -0.2154
H18A H 0.5830 0.2168 -0.1734
C22A C 0.442(3) 0.1809(12) -0.0719(10)
H19A H 0.3584 0.1673 -0.0460
H20A H 0.5169 0.1717 -0.0458
H21A H 0.4355 0.2290 -0.0818
C23A C 0.332(2) 0.1667(13) -0.1583(13)
H22A H 0.2589 0.1492 -0.1268
H23A H 0.3275 0.2159 -0.1565
H24A H 0.3217 0.1520 -0.2038
C24A C 0.2052(11) -0.5827(5) -0.4120(6)
C25A C 0.3429(11) -0.5891(5) -0.4534(6)
C26A C 0.4595(10) -0.5777(5) -0.4240(6)
H25A H 0.4530 -0.5658 -0.3780
C27A C 0.5879(11) -0.5838(5) -0.4628(6)
C28A C 0.5952(12) -0.6040(6) -0.5324(6)
H26A H 0.6803 -0.6074 -0.5586
C29A C 0.4814(11) -0.6185(6) -0.5621(6)
C30A C 0.3489(12) -0.6080(6) -0.5214(6)
H27A H 0.2688 -0.6141 -0.5409
C31A C 0.7198(12) -0.5712(6) -0.4355(6)
C32A C 0.498(2) -0.6414(9) -0.6379(9)
C33A C 0.367(2) -0.6446(14) -0.6684(14)
H28A H 0.3068 -0.6071 -0.6515
H29A H 0.3855 -0.6416 -0.7174
H30A H 0.3251 -0.6871 -0.6560
C34A C 0.578(2) -0.5864(12) -0.6773(14)
H31A H 0.6585 -0.5781 -0.6563
H32A H 0.6032 -0.6012 -0.7237
H33A H 0.5219 -0.5449 -0.6770
C35A C 0.600(2) -0.6994(12) -0.6513(15)
H34A H 0.6854 -0.6869 -0.6374
H35A H 0.5675 -0.7389 -0.6258
H36A H 0.6118 -0.7100 -0.6993
C36A C -0.0668(11) -0.6934(6) -0.2740(5)
C37A C -0.0486(11) -0.7595(5) -0.2381(5)
C38A C -0.0341(14) -0.8196(6) -0.2757(6)
H37A H -0.0308 -0.8165 -0.3230
C39A C -0.0242(11) -0.8851(5) -0.2464(5)
C40A C -0.0425(10) -0.7642(5) -0.1680(5)
H38A H -0.0508 -0.7248 -0.1411
C41A C -0.0241(10) -0.8270(5) -0.1388(5)
C42A C -0.0161(11) -0.8859(5) -0.1750(5)
H39A H -0.0052 -0.9275 -0.1527
C43A C -0.0076(10) -0.8323(5) -0.0625(5)
C44A C -0.0111(15) -0.9501(6) -0.2884(7)
C45A C -0.119(2) -1.0002(11) -0.2593(12)
H40A H -0.1160 -1.0050 -0.2109
H41A H -0.2077 -0.9829 -0.2676
H42A H -0.0998 -1.0440 -0.2810
C46A C 0.111(3) -0.9935(14) -0.2779(15)
H43A H 0.1151 -0.9995 -0.2297
H44A H 0.1051 -1.0374 -0.2989
H45A H 0.1917 -0.9718 -0.2982
C47A C -0.012(3) -0.9443(10) -0.3601(9)
H46A H -0.0919 -0.9182 -0.3695
H47A H 0.0685 -0.9216 -0.3796
H48A H -0.0121 -0.9892 -0.3797
O1A O 0.0279(13) -0.1602(4) -0.1965(4)
O2A O 0.0030(9) -0.2564(4) -0.1411(4)
O3A O -0.0480(9) -0.4584(4) -0.3923(4)
O4A O -0.0455(8) -0.4713(4) -0.2812(4)
O5A O 0.2609(8) -0.1494(4) -0.0747(4)
O6A O 0.1309(7) -0.0544(4) -0.0885(4)
O7A O 0.8384(8) -0.0194(5) -0.0649(4)
O8A O 0.7753(9) -0.1272(5) -0.0728(4)
O9A O 0.2015(7) -0.5773(4) -0.3498(4)
O10A O 0.0993(7) -0.5864(4) -0.4436(4)
O11A O 0.8202(7) -0.5655(4) -0.4785(5)
O12A O 0.7239(8) -0.5696(4) -0.3704(5)
O13A O -0.0599(8) -0.6370(4) -0.2409(4)
O14A O -0.0739(11) -0.6935(4) -0.3368(4)
O15A O -0.0217(8) -0.7790(4) -0.0257(4)
O16A O 0.0174(8) -0.8907(4) -0.0377(4)
C48A C 0.4658(19) 0.1404(7) -0.1391(8)
Cd1_2 Cd -0.00076(7) -0.84584(4) 0.07684(4)
Cd1_3 Cd -0.00076(7) 0.15416(4) 0.07684(4)
Cd1A_2 Cd 1.00076(7) -0.15416(4) -0.07684(4)
Cd1A_3 Cd 1.00076(7) 0.84584(4) -0.07684(4)
Cd2_2 Cd 0.06366(7) 0.57392(4) 0.34431(4)
Cd2A_2 Cd 0.93634(7) -0.57392(4) -0.34431(4)
Cd3_2 Cd 0.0000 -1.0000 0.0000
Cd3_3 Cd 0.0000 0.0000 0.0000
Cd3_4 Cd 1.0000 1.0000 0.0000
Cd4_2 Cd 0.0000 -0.5000 -0.5000
Cd4_3 Cd 0.0000 0.5000 0.5000
Cd4_4 Cd 1.0000 -0.5000 -0.5000
O3A_2 O 0.9520(9) 0.5416(4) 0.6077(4)
O6A_2 O 1.1309(7) -0.0544(4) -0.0885(4)
O7_2 O 1.1616(8) 0.0194(5) 0.0649(4)
O8_2 O 1.2247(9) 0.1272(5) 0.0728(4)
O8A_2 O -0.2247(9) -0.1272(5) -0.0728(4)
O10A_2 O 1.0993(7) 0.4136(4) 0.5564(4)
O11_2 O 1.1798(7) 0.5655(4) 0.4785(5)
O11A_2 O 0.8202(7) 0.4345(4) 0.5215(5)
O12_2 O 1.2761(8) 0.5696(4) 0.3704(5)
O12A_2 O -0.2761(8) -0.5696(4) -0.3704(5)
O15_2 O 0.0217(8) -0.2210(4) 0.0257(4)
O15A_2 O 0.9783(8) 0.2210(4) -0.0257(4)
O16_2 O -0.0174(8) -0.1093(4) 0.0377(4)
O16_3 O 0.9826(8) -0.1093(4) 0.0377(4)
O16A_2 O 1.0174(8) 0.1093(4) -0.0377(4)
C49 C 0.803(3) 0.6222(18) 0.1316(14)
H49 H 0.8188 0.6704 0.1322
H50 H 0.7129 0.6154 0.1193
H51 H 0.8698 0.5999 0.0986
N1 N 0.814(2) 0.5927(13) 0.2006(10)
H52 H 0.8977 0.5997 0.2124
H53 H 0.7519 0.6140 0.2316
C50 C 0.790(3) 0.5182(12) 0.2014(11)
H54 H 0.7958 0.5003 0.2466
H55 H 0.8578 0.4952 0.1694
H56 H 0.7006 0.5107 0.1887
C51 C 0.681(4) 0.2998(18) 0.0138(19)
H57 H 0.6797 0.2537 -0.0029
H58 H 0.7319 0.3274 -0.0202
H59 H 0.5895 0.3184 0.0233
C52 C 0.731(5) 0.3702(16) 0.106(3)
H60 H 0.7672 0.3712 0.1489
H61 H 0.6358 0.3837 0.1122
H62 H 0.7797 0.4012 0.0744
N2 N 0.748(4) 0.2994(17) 0.077(2)
H63 H 0.8374 0.2873 0.0680
H64 H 0.7084 0.2694 0.1076
C53 C 0.498(3) 0.6923(12) 0.2971(13)
H65 H 0.4056 0.6834 0.3007
C54 C 0.702(3) 0.7535(19) 0.342(2)
H66 H 0.7062 0.7816 0.3818
H67 H 0.7315 0.7789 0.3016
H68 H 0.7608 0.7134 0.3447
C55 C 0.475(5) 0.7650(18) 0.3980(16)
H69 H 0.5299 0.7912 0.4245
H70 H 0.4309 0.7301 0.4263
H71 H 0.4065 0.7947 0.3810
N3 N 0.561(2) 0.7330(9) 0.3404(11)
O17 O 0.586(3) 0.6707(13) 0.2540(14)
C56 C 0.531(5) 0.104(2) 0.267(2)
H72 H 0.4550 0.0789 0.2881
H73 H 0.5838 0.1191 0.3017
H74 H 0.5880 0.0742 0.2356
C57 C 0.332(3) 0.168(2) 0.2341(19)
H75 H 0.2930 0.1299 0.2595
H76 H 0.3055 0.1679 0.1887
H77 H 0.2987 0.2101 0.2567
C58 C 0.556(3) 0.2117(13) 0.1935(11)
H78 H 0.6506 0.2087 0.1909
N4 N 0.482(3) 0.1627(14) 0.2303(10)
O18 O 0.504(3) 0.2580(15) 0.1648(16)
loop_
_geom_bond_atom_site_label_1
_geom_bond_atom_site_label_2
_geom_bond_site_symmetry_1
_geom_bond_site_symmetry_2
Cd1 O1 1_555 1_555
Cd2 O3 1_555 1_555
Cd3 O6 1_555 1_555
Cd4 O3 1_555 1_555
C1 C2 1_555 1_555
C2 C3 1_555 1_555
C3 H1 1_555 1_555
C4 C3 1_555 1_555
C5 C4 1_555 1_555
H2 C5 1_555 1_555
C6 C5 1_555 1_555
C7 C2 1_555 1_555
H3 C7 1_555 1_555
C8 C4 1_555 1_555
C9 C6 1_555 1_555
C10 C9 1_555 1_555
H4 C10 1_555 1_555
H5 C10 1_555 1_555
H6 C10 1_555 1_555
C11 C9 1_555 1_555
H7 C11 1_555 1_555
H8 C11 1_555 1_555
H9 C11 1_555 1_555
C12 C9 1_555 1_555
H10 C12 1_555 1_555
H11 C12 1_555 1_555
H12 C12 1_555 1_555
C13 C14 1_555 1_555
C14 C15 1_555 1_555
C15 H13 1_555 1_555
C16 C15 1_555 1_555
C17 C16 1_555 1_555
H14 C17 1_555 1_555
C18 C17 1_555 1_555
C19 C14 1_555 1_555
H15 C19 1_555 1_555
C20 C16 1_555 1_555
C21 H16 1_555 1_555
H17 C21 1_555 1_555
H18 C21 1_555 1_555
C22 H19 1_555 1_555
H20 C22 1_555 1_555
H21 C22 1_555 1_555
C23 H22 1_555 1_555
H23 C23 1_555 1_555
H24 C23 1_555 1_555
C24 C25 1_555 1_555
C25 C26 1_555 1_555
C26 H25 1_555 1_555
C27 C26 1_555 1_555
C28 C27 1_555 1_555
H26 C28 1_555 1_555
C29 C28 1_555 1_555
C30 C25 1_555 1_555
H27 C30 1_555 1_555
C31 C27 1_555 1_555
C32 C29 1_555 1_555
C33 C32 1_555 1_555
H28 C33 1_555 1_555
H29 C33 1_555 1_555
H30 C33 1_555 1_555
C34 C32 1_555 1_555
H31 C34 1_555 1_555
H32 C34 1_555 1_555
H33 C34 1_555 1_555
C35 C32 1_555 1_555
H34 C35 1_555 1_555
H35 C35 1_555 1_555
H36 C35 1_555 1_555
C36 C37 1_555 1_555
C37 C38 1_555 1_555
C38 H37 1_555 1_555
C39 C38 1_555 1_555
C40 C37 1_555 1_555
H38 C40 1_555 1_555
C41 C40 1_555 1_555
C42 C39 1_555 1_555
H39 C42 1_555 1_555
C43 C41 1_555 1_555
C44 C39 1_555 1_555
C45 C44 1_555 1_555
H40 C45 1_555 1_555
H41 C45 1_555 1_555
H42 C45 1_555 1_555
C46 C44 1_555 1_555
H43 C46 1_555 1_555
H44 C46 1_555 1_555
H45 C46 1_555 1_555
C47 C44 1_555 1_555
H46 C47 1_555 1_555
H47 C47 1_555 1_555
H48 C47 1_555 1_555
O1 C1 1_555 1_555
O2 Cd1 1_555 1_555
O3 C8 1_555 1_555
O4 Cd2 1_555 1_555
O5 Cd1 1_555 1_555
O6 Cd1 1_555 1_555
O7 C20 1_555 1_555
O8 C20 1_555 1_555
O9 Cd2 1_555 1_555
O10 Cd2 1_555 1_555
O11 C31 1_555 1_555
O12 C31 1_555 1_555
O13 Cd2 1_555 1_555
O14 Cd2 1_555 1_555
O15 C43 1_555 1_555
O16 C43 1_555 1_555
C48 C18 1_555 1_555
C49 H49 1_555 1_555
H50 C49 1_555 1_555
H51 C49 1_555 1_555
N1 C49 1_555 1_555
H52 N1 1_555 1_555
H53 N1 1_555 1_555
C50 N1 1_555 1_555
H54 C50 1_555 1_555
H55 C50 1_555 1_555
H56 C50 1_555 1_555
C51 H57 1_555 1_555
H58 C51 1_555 1_555
H59 C51 1_555 1_555
C52 H60 1_555 1_555
H61 C52 1_555 1_555
H62 C52 1_555 1_555
N2 C51 1_555 1_555
H63 N2 1_555 1_555
H64 N2 1_555 1_555
C53 H65 1_555 1_555
C54 H66 1_555 1_555
H67 C54 1_555 1_555
H68 C54 1_555 1_555
C55 H69 1_555 1_555
H70 C55 1_555 1_555
H71 C55 1_555 1_555
N3 C53 1_555 1_555
O17 C53 1_555 1_555
C56 H72 1_555 1_555
H73 C56 1_555 1_555
H74 C56 1_555 1_555
C57 H75 1_555 1_555
H76 C57 1_555 1_555
H77 C57 1_555 1_555
C58 H78 1_555 1_555
N4 C56 1_555 1_555
O18 C58 1_555 1_555
Cd1A O1A 1_555 1_555
Cd2A O3A 1_555 1_555
C1A C2A 1_555 1_555
C2A C3A 1_555 1_555
C3A H1A 1_555 1_555
C4A C3A 1_555 1_555
C5A C4A 1_555 1_555
H2A C5A 1_555 1_555
C6A C5A 1_555 1_555
C7A C2A 1_555 1_555
H3A C7A 1_555 1_555
C8A C4A 1_555 1_555
C9A C6A 1_555 1_555
C10A C9A 1_555 1_555
H4A C10A 1_555 1_555
H5A C10A 1_555 1_555
H6A C10A 1_555 1_555
C11A C9A 1_555 1_555
H7A C11A 1_555 1_555
H8A C11A 1_555 1_555
H9A C11A 1_555 1_555
C12A C9A 1_555 1_555
H10A C12A 1_555 1_555
H11A C12A 1_555 1_555
H12A C12A 1_555 1_555
C13A C14A 1_555 1_555
C14A C15A 1_555 1_555
C15A H13A 1_555 1_555
C16A C15A 1_555 1_555
C17A C16A 1_555 1_555
H14A C17A 1_555 1_555
C18A C17A 1_555 1_555
C19A C14A 1_555 1_555
H15A C19A 1_555 1_555
C20A C16A 1_555 1_555
C21A H16A 1_555 1_555
H17A C21A 1_555 1_555
H18A C21A 1_555 1_555
C22A H19A 1_555 1_555
H20A C22A 1_555 1_555
H21A C22A 1_555 1_555
C23A H22A 1_555 1_555
H23A C23A 1_555 1_555
H24A C23A 1_555 1_555
C24A C25A 1_555 1_555
C25A C26A 1_555 1_555
C26A H25A 1_555 1_555
C27A C26A 1_555 1_555
C28A C27A 1_555 1_555
H26A C28A 1_555 1_555
C29A C28A 1_555 1_555
C30A C25A 1_555 1_555
H27A C30A 1_555 1_555
C31A C27A 1_555 1_555
C32A C29A 1_555 1_555
C33A C32A 1_555 1_555
H28A C33A 1_555 1_555
H29A C33A 1_555 1_555
H30A C33A 1_555 1_555
C34A C32A 1_555 1_555
H31A C34A 1_555 1_555
H32A C34A 1_555 1_555
H33A C34A 1_555 1_555
C35A C32A 1_555 1_555
H34A C35A 1_555 1_555
H35A C35A 1_555 1_555
H36A C35A 1_555 1_555
C36A C37A 1_555 1_555
C37A C38A 1_555 1_555
C38A H37A 1_555 1_555
C39A C38A 1_555 1_555
C40A C37A 1_555 1_555
H38A C40A 1_555 1_555
C41A C40A 1_555 1_555
C42A C39A 1_555 1_555
H39A C42A 1_555 1_555
C43A C41A 1_555 1_555
C44A C39A 1_555 1_555
C45A C44A 1_555 1_555
H40A C45A 1_555 1_555
H41A C45A 1_555 1_555
H42A C45A 1_555 1_555
C46A C44A 1_555 1_555
H43A C46A 1_555 1_555
H44A C46A 1_555 1_555
H45A C46A 1_555 1_555
C47A C44A 1_555 1_555
H46A C47A 1_555 1_555
H47A C47A 1_555 1_555
H48A C47A 1_555 1_555
O1A C1A 1_555 1_555
O2A Cd1A 1_555 1_555
O3A C8A 1_555 1_555
O4A Cd2A 1_555 1_555
O5A Cd1A 1_555 1_555
O6A Cd1A 1_555 1_555
O7A Cd3 1_555 1_555
O8A C20A 1_555 1_555
O9A Cd2A 1_555 1_555
O10A Cd2A 1_555 1_555
O11A C31A 1_555 1_555
O12A C31A 1_555 1_555
O13A Cd2A 1_555 1_555
O14A Cd2A 1_555 1_555
O15A C43A 1_555 1_555
O16A C43A 1_555 1_555
C48A C18A 1_555 1_555
Cd1_2 O15A 1_555 1_555
Cd1_3 O8 1_555 1_555
Cd1A_2 O8A 1_555 1_555
Cd1A_3 O15 1_555 1_555
Cd2_2 O12 1_555 1_555
Cd2A_2 O12A 1_555 1_555
Cd3_2 O16A 1_555 1_555
Cd3_3 O7 1_555 1_555
Cd3_4 O16 1_555 1_555
Cd4_2 O3A 1_555 1_555
Cd4_3 O11 1_555 1_555
Cd4_4 O11A 1_555 1_555
O3A_2 Cd4 1_555 1_555
O6A_2 Cd3 1_555 1_555
O7_2 Cd3 1_555 1_555
O8_2 Cd1 1_555 1_555
O8A_2 Cd1A 1_555 1_555
O10A_2 Cd4 1_555 1_555
O11_2 Cd4 1_555 1_555
O11A_2 Cd4 1_555 1_555
O12_2 Cd2 1_555 1_555
O12A_2 Cd2A 1_555 1_555
O15_2 Cd1A 1_555 1_555
O15A_2 Cd1 1_555 1_555
O16_2 Cd1A 1_555 1_555
O16_3 Cd3 1_555 1_555
O16A_2 Cd1 1_555 1_555
Cd3 O16A_2 1_555 1_555
Cd4 O10 1_555 1_555
C1 O2 1_555 1_555
C6 C7 1_555 1_555
C8 O4 1_555 1_555
C13 O5 1_555 1_555
C13 O6 1_555 1_555
C18 C19 1_555 1_555
C21 C48 1_555 1_555
C22 C48 1_555 1_555
C23 C48 1_555 1_555
C24 O9 1_555 1_555
C24 O10 1_555 1_555
C29 C30 1_555 1_555
C36 O13 1_555 1_555
C36 O14 1_555 1_555
C41 C42 1_555 1_555
O16 Cd1A_3 1_555 1_555
C52 N2 1_555 1_555
C54 N3 1_555 1_555
C55 N3 1_555 1_555
C57 N4 1_555 1_555
C58 N4 1_555 1_555
C1A O2A 1_555 1_555
C6A C7A 1_555 1_555
C8A O4A 1_555 1_555
C13A O5A 1_555 1_555
C13A O6A 1_555 1_555
C18A C19A 1_555 1_555
C20A O7A 1_555 1_555
C21A C48A 1_555 1_555
C22A C48A 1_555 1_555
C23A C48A 1_555 1_555
C24A O9A 1_555 1_555
C24A O10A 1_555 1_555
C29A C30A 1_555 1_555
C36A O13A 1_555 1_555
C36A O14A 1_555 1_555
C41A C42A 1_555 1_555
O6A Cd3_3 1_555 1_555
O10A Cd4_2 1_555 1_555
O16A Cd1_2 1_555 1_555
Cd1A_2 O6A_2 1_555 1_555
Cd1A_2 O16_3 1_555 1_555
Cd3_3 O16_2 1_555 1_555

#END
