
#######################################################################
#
#                 Cambridge Crystallographic Data Centre
#                                CCDC 
#
#######################################################################
#
# If this CIF has been generated from an entry in the Cambridge 
# Structural Database, then it will include bibliographic, chemical, 
# crystal, experimental, refinement or atomic coordinate data resulting 
# from the CCDC's data processing and validation procedures.
#
#######################################################################

data_SIVVAW
_symmetry_cell_setting           monoclinic
_symmetry_space_group_name_H-M   'P 21/c'
_symmetry_Int_Tables_number      14
_space_group_name_Hall           '-P 2ybc'
loop_
_symmetry_equiv_pos_site_id
_symmetry_equiv_pos_as_xyz
1 x,y,z
2 -x,1/2+y,1/2-z
3 -x,-y,-z
4 x,1/2-y,1/2+z
_cell_length_a                   9.860(2)
_cell_length_b                   13.113(3)
_cell_length_c                   11.650(2)
_cell_angle_alpha                90
_cell_angle_beta                 101.99(3)
_cell_angle_gamma                90
_cell_volume                     1473.42
loop_
_atom_site_label
_atom_site_type_symbol
_atom_site_fract_x
_atom_site_fract_y
_atom_site_fract_z
Cd1 Cd 0.74328(10) 0.49531(7) 0.50598(8)
O1 O 0.5837(11) 0.3795(8) 0.4126(10)
O2 O 0.3808(12) 0.4562(8) 0.3527(10)
O3 O 1.0964(11) 0.1078(8) 0.8942(10)
O4 O 0.8821(11) 0.0464(8) 0.8728(9)
N1 N 0.3317(12) 0.1324(9) 0.1216(10)
N2 N 0.8254(12) 0.3577(9) 0.6213(10)
C1 C 0.4184(13) 0.2960(11) 0.2712(12)
C2 C 0.3537(18) 0.3117(12) 0.1538(14)
H1 H 0.3368 0.3775 0.1245
C3 C 0.3152(18) 0.2284(13) 0.0815(14)
H2 H 0.2766 0.2394 0.0026
C4 C 0.3934(18) 0.1163(12) 0.2323(14)
H3 H 0.4055 0.0495 0.2592
C5 C 0.4412(18) 0.1963(12) 0.3107(14)
H4 H 0.4872 0.1827 0.3873
C6 C 0.4633(13) 0.3848(10) 0.3537(11)
C7 C 0.9193(14) 0.1953(10) 0.7688(12)
C8 C 0.7790(17) 0.2155(15) 0.737(2)
H5 H 0.7142 0.1754 0.7638
C9 C 0.7390(17) 0.2984(16) 0.664(2)
H6 H 0.6448 0.3133 0.6431
C10 C 0.9603(16) 0.3317(12) 0.6454(15)
H7 H 1.0211 0.3672 0.6088
C11 C 1.0117(15) 0.2541(12) 0.7226(14)
H8 H 1.1065 0.2416 0.7430
C12 C 0.9696(14) 0.1092(10) 0.8529(11)
Cd1A Cd 0.25672(10) -0.00469(7) -0.00598(8)
Cd1A_2 Cd 1.25672(10) -0.00469(7) 0.99402(8)
Cd1B Cd 0.25672(10) 0.50469(7) 0.49402(8)
Cd1C Cd 0.74328(10) 0.00469(7) 1.00598(8)
O2B O 0.6192(12) 0.5438(8) 0.6473(10)
O3A O 0.9036(11) 0.6078(8) 0.6058(10)
O4C O 0.8821(11) 0.4536(8) 0.3728(9)
N1A N 0.6683(12) 0.6324(9) 0.3784(10)
O5 O 0.915(7) 0.034(4) 0.471(8)
H9 H 0.8596 -0.0160 0.4676
H10 H 0.8869 0.0734 0.4127
O6 O 0.296(14) 0.993(6) 0.454(5)
H11 H 0.3373 1.0275 0.4102
H12 H 0.3311 1.0064 0.5258
loop_
_geom_bond_atom_site_label_1
_geom_bond_atom_site_label_2
_geom_bond_site_symmetry_1
_geom_bond_site_symmetry_2
Cd1 O1 1_555 1_555
O1 C6 1_555 1_555
O2 C6 1_555 1_555
O3 C12 1_555 1_555
O4 C12 1_555 1_555
N1 C3 1_555 1_555
N2 Cd1 1_555 1_555
C1 C2 1_555 1_555
C2 H1 1_555 1_555
C3 C2 1_555 1_555
H2 C3 1_555 1_555
C4 N1 1_555 1_555
H3 C4 1_555 1_555
C5 C1 1_555 1_555
H4 C5 1_555 1_555
C6 C1 1_555 1_555
C7 C8 1_555 1_555
C8 H5 1_555 1_555
C9 N2 1_555 1_555
H6 C9 1_555 1_555
C10 N2 1_555 1_555
H7 C10 1_555 1_555
C11 C7 1_555 1_555
H8 C11 1_555 1_555
C12 C7 1_555 1_555
O5 H9 1_555 1_555
H10 O5 1_555 1_555
O6 H11 1_555 1_555
H12 O6 1_555 1_555
Cd1A N1 1_555 1_555
Cd1A_2 O3 1_555 1_555
Cd1B O2 1_555 1_555
Cd1C O4 1_555 1_555
O2B Cd1 1_555 1_555
O3A Cd1 1_555 1_555
O4C Cd1 1_555 1_555
N1A Cd1 1_555 1_555
C4 C5 1_555 1_555
C8 C9 1_555 1_555
C10 C11 1_555 1_555

#END
