
#######################################################################
#
#                 Cambridge Crystallographic Data Centre
#                                CCDC 
#
#######################################################################
#
# If this CIF has been generated from an entry in the Cambridge 
# Structural Database, then it will include bibliographic, chemical, 
# crystal, experimental, refinement or atomic coordinate data resulting 
# from the CCDC's data processing and validation procedures.
#
#######################################################################

data_SOBTUY
_symmetry_cell_setting           monoclinic
_symmetry_space_group_name_H-M   'C 2/c'
_symmetry_Int_Tables_number      15
_space_group_name_Hall           '-C 2yn'
loop_
_symmetry_equiv_pos_site_id
_symmetry_equiv_pos_as_xyz
1 x,y,z
2 1/2+x,1/2+y,z
3 -x,y,1/2-z
4 1/2-x,1/2+y,1/2-z
5 -x,-y,-z
6 1/2-x,1/2-y,-z
7 x,-y,1/2+z
8 1/2+x,1/2-y,1/2+z
_cell_length_a                   16.520(9)
_cell_length_b                   34.60(1)
_cell_length_c                   9.361(8)
_cell_angle_alpha                90
_cell_angle_beta                 112.40(6)
_cell_angle_gamma                90
_cell_volume                     4946.94
loop_
_atom_site_label
_atom_site_type_symbol
_atom_site_fract_x
_atom_site_fract_y
_atom_site_fract_z
Cd1 Cd 0.500 0.1484(2) 0.750
Cd2 Cd 0.250 -0.25 0.500
N1 N -0.113(3) 0.016(1) -0.170(5)
N2 N -0.028(2) -0.055(1) -0.055(4)
C1 C -0.173(3) -0.010(1) -0.271(5)
C2 C -0.172(4) -0.047(2) -0.277(7)
C3 C -0.105(3) -0.071(1) -0.179(6)
C4 C -0.096(3) -0.112(1) -0.192(5)
C5 C -0.020(3) -0.124(1) -0.069(6)
C6 C 0.021(3) -0.087(2) -0.006(7)
C7 C 0.094(4) -0.084(2) 0.151(7)
C8 C -0.139(3) 0.052(2) -0.215(6)
C9 C -0.222(4) 0.051(2) -0.352(7)
C10 C -0.245(4) 0.017(2) -0.378(7)
C11 C -0.256(3) -0.069(2) -0.369(6)
C12 C -0.300(4) -0.096(2) -0.333(6)
C13 C -0.375(3) -0.118(2) -0.432(6)
C14 C -0.351(4) -0.079(2) -0.623(6)
C15 C -0.276(3) -0.059(2) -0.542(6)
C16 C 0.137(4) -0.124(2) 0.204(7)
C17 C 0.184(4) -0.149(2) 0.169(6)
C18 C 0.221(4) -0.184(2) 0.235(7)
C19 C 0.158(5) -0.169(3) 0.415(9)
C20 C 0.131(5) -0.132(2) 0.337(10)
O1 O 0.452(4) 0.158(2) 0.916(7)
O2 O 0.385(4) 0.144(2) 1.096(7)
O3 O 0.427(3) 0.102(2) 1.003(6)
O4 O 0.595(3) 0.199(1) 0.850(6)
O5 O 0.174(3) -0.233(2) 0.689(6)
O6 O 0.199(5) -0.206(2) 0.885(10)
O7 O 0.310(6) -0.211(3) 0.800(10)
O8 O 0.102(3) -0.271(1) 0.397(6)
N3 N -0.393(3) -0.107(1) -0.592(5)
N4 N 0.205(3) -0.194(1) 0.370(6)
N5 N 0.423(4) 0.143(2) 0.999(8)
N6 N 0.237(5) -0.210(2) 0.776(10)
Pd1 Pd 0.000 0.0000 0.000
C7D C -0.094(4) 0.084(2) -0.151(7)
C6D C -0.021(3) 0.087(2) 0.006(7)
N2D N 0.028(2) 0.055(1) 0.055(4)
C3D C 0.105(3) 0.071(1) 0.179(6)
C2D C 0.172(4) 0.047(2) 0.277(7)
C1D C 0.173(3) 0.010(1) 0.271(5)
N1D N 0.113(3) -0.016(1) 0.170(5)
C8D C 0.139(3) -0.052(2) 0.215(6)
O5E O 0.326(3) -0.267(2) 0.311(6)
N6E N 0.263(5) -0.290(2) 0.224(10)
O6E O 0.301(5) -0.294(2) 0.115(10)
O7E O 0.190(6) -0.289(3) 0.200(10)
O8E O 0.398(3) -0.229(1) 0.603(6)
N4E N 0.295(3) -0.306(1) 0.630(6)
C9D C 0.222(4) -0.051(2) 0.352(7)
C10D C 0.245(4) -0.017(2) 0.378(7)
C11D C 0.256(3) 0.069(2) 0.369(6)
C12D C 0.300(4) 0.096(2) 0.333(6)
C13D C 0.375(3) 0.118(2) 0.432(6)
N3D N 0.393(3) 0.107(1) 0.592(5)
Cd1D Cd -0.500 -0.1484(2) -0.750
O1B O 0.548(4) 0.158(2) 0.584(7)
N5B N 0.577(4) 0.143(2) 0.501(8)
O2B O 0.615(4) 0.144(2) 0.404(7)
O3B O 0.573(3) 0.102(2) 0.497(6)
O4B O 0.405(3) 0.199(1) 0.650(6)
N3F N 0.607(3) 0.107(1) 0.908(5)
C14D C 0.351(4) 0.079(2) 0.623(6)
C15D C 0.276(3) 0.059(2) 0.542(6)
C4D C 0.096(3) 0.112(1) 0.192(5)
C5D C 0.020(3) 0.124(1) 0.069(6)
C16D C -0.137(4) 0.124(2) -0.204(7)
C17D C -0.184(4) 0.149(2) -0.169(6)
C20D C -0.131(5) 0.132(2) -0.337(10)
C18D C -0.221(4) 0.184(2) -0.235(7)
C19D C -0.158(5) 0.169(3) -0.415(9)
N4D N -0.205(3) 0.194(1) -0.370(6)
Cd2A Cd -0.250 0.25 -0.500
O9 O 0.980(5) 0.478(2) 0.603(8)
O10 O 0.516(6) 0.254(2) 0.041(9)
O11 O 0.547(7) 0.280(3) -0.16(12)
loop_
_geom_bond_atom_site_label_1
_geom_bond_atom_site_label_2
_geom_bond_site_symmetry_1
_geom_bond_site_symmetry_2
Cd1 O1 1_555 1_555
Cd2 O5 1_555 1_555
N1 C1 1_555 1_555
N2 C3 1_555 1_555
C1 C2 1_555 1_555
C2 C3 1_555 1_555
C3 C4 1_555 1_555
C4 C5 1_555 1_555
C5 C6 1_555 1_555
C6 N2 1_555 1_555
C7 C6 1_555 1_555
C8 N1 1_555 1_555
C9 C8 1_555 1_555
C10 C1 1_555 1_555
C11 C2 1_555 1_555
C12 C11 1_555 1_555
C13 C12 1_555 1_555
C14 C15 1_555 1_555
C15 C11 1_555 1_555
C16 C7 1_555 1_555
C17 C16 1_555 1_555
C18 C17 1_555 1_555
C19 C20 1_555 1_555
C20 C16 1_555 1_555
O1 N5 1_555 1_555
O2 N5 1_555 1_555
O3 N5 1_555 1_555
O4 Cd1 1_555 1_555
O5 N6 1_555 1_555
O6 N6 1_555 1_555
O7 N6 1_555 1_555
O8 Cd2 1_555 1_555
N3 C13 1_555 1_555
N4 Cd2 1_555 1_555
Pd1 N1 1_555 1_555
C7D C8 1_555 1_555
C6D C7D 1_555 1_555
N2D Pd1 1_555 1_555
C3D N2D 1_555 1_555
C2D C3D 1_555 1_555
C1D C2D 1_555 1_555
N1D Pd1 1_555 1_555
C8D C7 1_555 1_555
O5E Cd2 1_555 1_555
N6E O5E 1_555 1_555
O6E N6E 1_555 1_555
O7E N6E 1_555 1_555
O8E Cd2 1_555 1_555
N4E Cd2 1_555 1_555
C9D C8D 1_555 1_555
C10D C1D 1_555 1_555
C11D C2D 1_555 1_555
C12D C11D 1_555 1_555
C13D C12D 1_555 1_555
N3D Cd1 1_555 1_555
Cd1D N3 1_555 1_555
O1B Cd1 1_555 1_555
N5B O1B 1_555 1_555
O2B N5B 1_555 1_555
O3B N5B 1_555 1_555
O4B Cd1 1_555 1_555
N3F Cd1 1_555 1_555
C14D N3D 1_555 1_555
C15D C11D 1_555 1_555
C4D C3D 1_555 1_555
C5D C6D 1_555 1_555
C16D C7D 1_555 1_555
C17D C16D 1_555 1_555
C20D C16D 1_555 1_555
C18D C17D 1_555 1_555
C19D C20D 1_555 1_555
N4D C18D 1_555 1_555
Cd2A N4D 1_555 1_555
N2 Pd1 1_555 1_555
C9 C10 1_555 1_555
C14 N3 1_555 1_555
C18 N4 1_555 1_555
C19 N4 1_555 1_555
C6D N2D 1_555 1_555
C1D N1D 1_555 1_555
N1D C8D 1_555 1_555
C9D C10D 1_555 1_555
C13D N3D 1_555 1_555
C14D C15D 1_555 1_555
C4D C5D 1_555 1_555
C19D N4D 1_555 1_555

#END
