
#######################################################################
#
#                 Cambridge Crystallographic Data Centre
#                                CCDC 
#
#######################################################################
#
# If this CIF has been generated from an entry in the Cambridge 
# Structural Database, then it will include bibliographic, chemical, 
# crystal, experimental, refinement or atomic coordinate data resulting 
# from the CCDC's data processing and validation procedures.
#
#######################################################################

data_SODZIV
_symmetry_cell_setting           orthorhombic
_symmetry_space_group_name_H-M   'P n a 21'
_symmetry_Int_Tables_number      33
_space_group_name_Hall           'P 2c -2n'
loop_
_symmetry_equiv_pos_site_id
_symmetry_equiv_pos_as_xyz
1 x,y,z
2 -x,-y,1/2+z
3 1/2+x,1/2-y,z
4 1/2-x,1/2+y,1/2+z
_cell_length_a                   14.4979(16)
_cell_length_b                   17.5125(19)
_cell_length_c                   15.4716(17)
_cell_angle_alpha                90
_cell_angle_beta                 90
_cell_angle_gamma                90
_cell_volume                     3928.15
loop_
_atom_site_label
_atom_site_type_symbol
_atom_site_fract_x
_atom_site_fract_y
_atom_site_fract_z
Cd1 Cd 0.127860(18) 0.040716(15) 0.22703(2)
Cd2 Cd 0.069980(19) -0.424150(17) 0.77303(2)
N1 N 0.1275(3) -0.0564(2) 0.3332(3)
N2 N 0.0972(3) -0.3335(2) 0.6652(2)
N3 N 0.1370(3) 0.1512(2) 0.1390(3)
N4 N 0.0940(3) 0.4755(2) -0.1310(3)
O1 O 0.0406(2) 0.11453(19) 0.3260(2)
O2 O -0.0422(2) 0.0449(2) 0.2377(3)
O3 O -0.1084(3) 0.0357(2) 0.6137(3)
O4 O -0.2539(3) 0.0258(3) 0.6271(3)
O5 O -0.4497(2) 0.1405(2) 0.3321(3)
O6 O -0.3977(3) 0.0362(3) 0.2821(4)
O7 O 0.2604(2) 0.08599(17) 0.2899(2)
O8 O 0.3443(3) 0.1576(3) 0.3746(3)
O9 O 0.0668(3) -0.5089(2) 0.6596(3)
H1 H 0.1213(17) -0.519(4) 0.645(5)
H2 H 0.031(4) -0.546(2) 0.659(5)
C1 C -0.1205(3) 0.1096(3) 0.3532(3)
H3 H -0.1192 0.1648 0.3632
C2 C -0.1145(3) 0.0693(3) 0.4416(3)
H4 H -0.1125 0.0145 0.4328
H5 H -0.0578 0.0844 0.4703
C3 C -0.1961(3) 0.0891(3) 0.4989(3)
H6 H -0.1939 0.1442 0.5097
C4 C -0.2875(3) 0.0721(3) 0.4541(3)
H7 H -0.3380 0.0893 0.4903
H8 H -0.2939 0.0174 0.4462
C5 C -0.2933(3) 0.1117(3) 0.3663(3)
H9 H -0.2902 0.1668 0.3765
C6 C -0.2112(3) 0.0901(3) 0.3093(3)
H10 H -0.2131 0.0358 0.2972
H11 H -0.2153 0.1172 0.2548
C7 C -0.0358(3) 0.0885(3) 0.3014(3)
C8 C -0.1860(3) 0.0489(3) 0.5864(3)
C9 C -0.3856(3) 0.0948(3) 0.3229(3)
C10 C 0.2696(3) 0.1338(3) 0.3494(3)
H12 H 0.2166 0.1523 0.3761
C11 C 0.1151(4) -0.1287(3) 0.3166(3)
H13 H 0.1090 -0.1433 0.2591
C12 C 0.1104(4) -0.1851(3) 0.3792(3)
H14 H 0.1010 -0.2357 0.3634
C13 C 0.1197(3) -0.1655(3) 0.4650(3)
C14 C 0.1327(4) -0.0890(3) 0.4830(3)
H15 H 0.1389 -0.0728 0.5400
C15 C 0.1366(4) -0.0364(3) 0.4163(4)
H16 H 0.1458 0.0149 0.4297
C16 C 0.0814(3) -0.2601(3) 0.6808(3)
H17 H 0.0628 -0.2461 0.7361
C17 C 0.0910(3) -0.2033(2) 0.6190(3)
H18 H 0.0814 -0.1524 0.6337
C18 C 0.1151(3) -0.2230(3) 0.5355(3)
C19 C 0.1342(3) -0.3003(3) 0.5194(3)
H19 H 0.1532 -0.3164 0.4649
C20 C 0.1241(3) -0.3512(3) 0.5855(3)
H20 H 0.1369 -0.4022 0.5740
C21 C 0.1235(3) 0.1464(3) 0.0537(3)
H21 H 0.1174 0.0981 0.0294
C22 C 0.1181(3) 0.2090(3) -0.0004(3)
H22 H 0.1090 0.2024 -0.0594
C23 C 0.1265(3) 0.2821(3) 0.0342(3)
C24 C 0.1414(3) 0.2871(3) 0.1227(3)
H23 H 0.1485 0.3345 0.1488
C25 C 0.1455(3) 0.2213(3) 0.1718(3)
H24 H 0.1547 0.2261 0.2310
C26 C 0.1284(4) 0.4088(3) -0.1600(3)
H25 H 0.1449 0.4054 -0.2180
C27 C 0.1402(4) 0.3462(3) -0.1093(3)
H26 H 0.1634 0.3012 -0.1329
C28 C 0.1178(3) 0.3494(3) -0.0224(3)
C29 C 0.0848(4) 0.4191(3) 0.0087(4)
H27 H 0.0694 0.4249 0.0666
C30 C 0.0754(4) 0.4792(3) -0.0485(4)
H28 H 0.0545 0.5256 -0.0267
Cd1A Cd -0.127860(18) -0.040716(15) 0.72703(2)
Cd2C Cd 0.430020(19) 0.075850(17) 0.27303(2)
Cd2C_2 Cd -0.569980(19) 0.075850(17) 0.27303(2)
Cd2_2 Cd 0.069980(19) 0.575850(17) -0.22697(2)
N4_2 N 0.0940(3) -0.5245(2) 0.8690(3)
O3A O 0.1084(3) -0.0357(2) 0.1137(3)
O4A O 0.2539(3) -0.0258(3) 0.1271(3)
O5C O -0.0503(2) -0.3595(2) 0.8321(3)
O6C O -0.1023(3) -0.4638(3) 0.7821(4)
O7C O 0.2396(2) -0.41401(17) 0.7899(2)
O8C O 0.1557(3) -0.3424(3) 0.8746(3)
N5 N 0.1462(6) 0.1611(5) 0.6690(6)
O10 O 0.1821(8) 0.1616(5) 0.8100(5)
C31 C 0.1442(8) 0.1331(7) 0.7495(7)
H29 H 0.1110 0.0884 0.7590
C32 C 0.0964(13) 0.1166(11) 0.6017(11)
H30 H 0.0648 0.0745 0.6284
H31 H 0.1397 0.0976 0.5601
H32 H 0.0523 0.1490 0.5733
C33 C 0.1896(11) 0.2336(8) 0.6543(11)
H33 H 0.1474 0.2739 0.6690
H34 H 0.2065 0.2379 0.5945
H35 H 0.2438 0.2376 0.6896
O11 O 0.5626(3) 0.2657(3) 0.4374(3)
O12 O 0.5910(5) 0.7786(4) 0.0309(4)
O13 O 0.5322(6) 0.8610(4) 0.1689(6)
O14 O 0.6342(5) 0.8799(3) 0.3186(4)
loop_
_geom_bond_atom_site_label_1
_geom_bond_atom_site_label_2
_geom_bond_site_symmetry_1
_geom_bond_site_symmetry_2
Cd1 N1 1_555 1_555
Cd2 N2 1_555 1_555
N1 C11 1_555 1_555
N2 C16 1_555 1_555
N3 Cd1 1_555 1_555
N4 C26 1_555 1_555
O1 Cd1 1_555 1_555
O2 Cd1 1_555 1_555
O3 C8 1_555 1_555
O4 C8 1_555 1_555
O5 C9 1_555 1_555
O6 C9 1_555 1_555
O7 Cd1 1_555 1_555
O8 C10 1_555 1_555
O9 Cd2 1_555 1_555
H1 O9 1_555 1_555
H2 O9 1_555 1_555
C1 H3 1_555 1_555
C2 C1 1_555 1_555
H4 C2 1_555 1_555
H5 C2 1_555 1_555
C3 C2 1_555 1_555
H6 C3 1_555 1_555
C4 C3 1_555 1_555
H7 C4 1_555 1_555
H8 C4 1_555 1_555
C5 C4 1_555 1_555
H9 C5 1_555 1_555
C6 C1 1_555 1_555
H10 C6 1_555 1_555
H11 C6 1_555 1_555
C7 O1 1_555 1_555
C8 C3 1_555 1_555
C9 C5 1_555 1_555
C10 O7 1_555 1_555
H12 C10 1_555 1_555
C11 H13 1_555 1_555
C12 C11 1_555 1_555
H14 C12 1_555 1_555
C13 C12 1_555 1_555
C14 C13 1_555 1_555
H15 C14 1_555 1_555
C15 N1 1_555 1_555
H16 C15 1_555 1_555
C16 H17 1_555 1_555
C17 C16 1_555 1_555
H18 C17 1_555 1_555
C18 C13 1_555 1_555
C19 C18 1_555 1_555
H19 C19 1_555 1_555
C20 N2 1_555 1_555
H20 C20 1_555 1_555
C21 N3 1_555 1_555
H21 C21 1_555 1_555
C22 C21 1_555 1_555
H22 C22 1_555 1_555
C23 C22 1_555 1_555
C24 C23 1_555 1_555
H23 C24 1_555 1_555
C25 N3 1_555 1_555
H24 C25 1_555 1_555
C26 H25 1_555 1_555
C27 C26 1_555 1_555
H26 C27 1_555 1_555
C28 C23 1_555 1_555
C29 C28 1_555 1_555
H27 C29 1_555 1_555
C30 N4 1_555 1_555
H28 C30 1_555 1_555
N5 C31 1_555 1_555
O10 C31 1_555 1_555
C31 H29 1_555 1_555
C32 N5 1_555 1_555
H30 C32 1_555 1_555
H31 C32 1_555 1_555
H32 C32 1_555 1_555
C33 N5 1_555 1_555
H33 C33 1_555 1_555
H34 C33 1_555 1_555
H35 C33 1_555 1_555
Cd1A O3 1_555 1_555
Cd2C O7 1_555 1_555
Cd2C_2 O5 1_555 1_555
Cd2_2 N4 1_555 1_555
N4_2 Cd2 1_555 1_555
O3A Cd1 1_555 1_555
O4A Cd1 1_555 1_555
O5C Cd2 1_555 1_555
O6C Cd2 1_555 1_555
O7C Cd2 1_555 1_555
O8C Cd2 1_555 1_555
O2 C7 1_555 1_555
O4 Cd1A 1_555 1_555
O6 Cd2C_2 1_555 1_555
O8 Cd2C 1_555 1_555
C1 C7 1_555 1_555
C5 C6 1_555 1_555
C14 C15 1_555 1_555
C17 C18 1_555 1_555
C19 C20 1_555 1_555
C24 C25 1_555 1_555
C27 C28 1_555 1_555
C29 C30 1_555 1_555

#END
