
#######################################################################
#
#                 Cambridge Crystallographic Data Centre
#                                CCDC 
#
#######################################################################
#
# If this CIF has been generated from an entry in the Cambridge 
# Structural Database, then it will include bibliographic, chemical, 
# crystal, experimental, refinement or atomic coordinate data resulting 
# from the CCDC's data processing and validation procedures.
#
#######################################################################

data_SOJTOA
_symmetry_cell_setting           orthorhombic
_symmetry_space_group_name_H-M   'P 21 21 21'
_symmetry_Int_Tables_number      19
_space_group_name_Hall           'P 2ac 2ab'
loop_
_symmetry_equiv_pos_site_id
_symmetry_equiv_pos_as_xyz
1 x,y,z
2 1/2-x,-y,1/2+z
3 1/2+x,1/2-y,-z
4 -x,1/2+y,1/2-z
_cell_length_a                   22.088(7)
_cell_length_b                   14.414(6)
_cell_length_c                   8.807(6)
_cell_angle_alpha                90
_cell_angle_beta                 90
_cell_angle_gamma                90
_cell_volume                     2803.94
loop_
_atom_site_label
_atom_site_type_symbol
_atom_site_fract_x
_atom_site_fract_y
_atom_site_fract_z
Cu1 Cu 0.4646(2) 0.2079(3) 0.5062(4)
I1 I 0.5430(1) 0.1945(2) 0.2992(3)
S1 S 0.3720(3) 0.1470(6) 0.4851(8)
S2 S 0.3522(3) 0.1549(5) -0.1362(8)
S3 S 0.2632(3) 0.1130(5) -0.1596(8)
S4 S 0.4827(3) 0.2915(5) 0.7178(8)
S5 S 0.2856(3) -0.1062(5) -0.0687(8)
S6 S 0.2653(3) -0.0178(5) -0.2489(7)
N1 N 0.3964(10) 0.0336(16) 0.2487(26)
N2 N 0.3593(9) 0.1671(13) 0.1782(22)
N3 N 0.5397(9) 0.4246(13) 0.5466(19)
N4 N 0.6022(10) 0.3321(14) 0.6583(23)
C1 C 0.3759(10) 0.1152(17) 0.2992(30)
C2 C 0.3674(10) 0.1139(16) 0.0475(25)
C3 C 0.3919(11) 0.0341(19) 0.0891(30)
C4 C 0.4042(15) -0.0506(23) 0.3416(38)
C5 C 0.4718(18) -0.0485(26) 0.4041(43)
C6 C 0.3350(13) 0.2609(19) 0.1908(34)
C7 C 0.3841(15) 0.3338(22) 0.1637(38)
C8 C 0.5425(12) 0.3509(18) 0.6362(28)
C9 C 0.3666(11) -0.1075(16) -0.0789(26)
C10 C 0.4041(12) -0.0487(18) -0.0056(31)
C11 C 0.4817(12) 0.4713(18) 0.5062(33)
C12 C 0.4644(16) 0.5429(23) 0.6273(36)
C13 C 0.6272(14) 0.2392(20) 0.7264(35)
C14 C 0.6402(22) 0.2605(31) 0.8861(46)
H1 H 0.3722 -0.0505 0.4343
H2 H 0.3976 -0.1120 0.2734
H3 H 0.4806 -0.1084 0.4742
H4 H 0.4775 0.0138 0.4706
H5 H 0.5029 -0.0477 0.3096
H6 H 0.3005 0.2701 0.1053
H7 H 0.3154 0.2708 0.3020
H8 H 0.3669 0.4038 0.1714
H9 H 0.4035 0.3228 0.0526
H10 H 0.4184 0.3234 0.2493
H11 H 0.4870 0.5065 0.3988
H12 H 0.4463 0.4199 0.4967
H13 H 0.4224 0.5768 0.5978
H14 H 0.4999 0.5941 0.6366
H15 H 0.4592 0.5074 0.7345
H16 H 0.6686 0.2204 0.6686
H17 H 0.5944 0.1841 0.7137
H18 H 0.6582 0.1988 0.9390
H19 H 0.5985 0.2800 0.9415
H20 H 0.6726 0.3163 0.8964
C10C C 0.5959(12) 0.4513(18) 0.5056(31)
C9C C 0.6334(11) 0.3925(16) 0.5789(26)
N4C N 0.3978(10) -0.1679(14) -0.1583(23)
N3C N 0.4603(9) -0.0754(13) -0.0466(19)
C3C C 0.6081(11) 0.5341(19) 0.4109(30)
S5C S 0.7144(3) 0.3938(5) 0.5687(8)
C8C C 0.4575(12) -0.1491(18) -0.1362(28)
C13C C 0.3728(14) -0.2608(20) -0.2264(35)
C11C C 0.5183(12) -0.0287(18) -0.0062(33)
N1C N 0.6036(10) 0.5336(16) 0.2513(26)
C2C C 0.6326(10) 0.6139(16) 0.4525(25)
S6C S 0.7347(3) 0.4822(5) 0.7489(7)
S4C S 0.5173(3) -0.2085(5) -0.2178(8)
C14C C 0.3598(22) -0.2395(31) -0.3861(46)
H16C H 0.3314 -0.2796 -0.1686
H17C H 0.4056 -0.3159 -0.2137
C12C C 0.5356(16) 0.0429(23) -0.1273(36)
H11C H 0.5130 0.0065 0.1012
H12C H 0.5537 -0.0801 0.0033
C1C C 0.6241(10) 0.6152(17) 0.2008(30)
C4C C 0.5958(15) 0.4494(23) 0.1584(38)
S2C S 0.6478(3) 0.6549(5) 0.6362(8)
N2C N 0.6407(9) 0.6671(13) 0.3218(22)
S3C S 0.7368(3) 0.6130(5) 0.6596(8)
Cu1C Cu 0.5354(2) -0.2921(3) -0.0062(4)
H18C H 0.3418 -0.3012 -0.4390
H19C H 0.4015 -0.2200 -0.4415
H20C H 0.3274 -0.1837 -0.3964
H13C H 0.5776 0.0768 -0.0978
H14C H 0.5001 0.0941 -0.1366
H15C H 0.5408 0.0074 -0.2345
S1C S 0.6280(3) 0.6470(6) 0.0149(8)
C5C C 0.5282(18) 0.4515(26) 0.0959(43)
H1C H 0.6278 0.4495 0.0657
H2C H 0.6024 0.3880 0.2266
C6C C 0.6650(13) 0.7609(19) 0.3092(34)
I1C I 0.4570(1) -0.3055(2) 0.2008(3)
S1C_2 S 0.6280(3) -0.3530(6) 0.0149(8)
Cu1C_2 Cu 0.5354(2) 0.7079(3) -0.0062(4)
H3C H 0.5194 0.3916 0.0258
H4C H 0.5225 0.5138 0.0294
H5C H 0.4971 0.4523 0.1904
C7C C 0.6159(15) 0.8338(22) 0.3363(38)
H6C H 0.6995 0.7701 0.3947
H7C H 0.6846 0.7708 0.1980
H8C H 0.6331 0.9038 0.3286
H9C H 0.5965 0.8228 0.4474
H10C H 0.5816 0.8234 0.2507
O1 O 0.1760(42) 0.5791(59) 0.252(14)
C15 C 0.2375(31) 0.4567(39) 0.1806(86)
C16 C 0.2291(39) 0.5548(45) 0.216(12)
C17 C 0.2657(49) 0.6225(52) 0.134(14)
loop_
_geom_bond_atom_site_label_1
_geom_bond_atom_site_label_2
_geom_bond_site_symmetry_1
_geom_bond_site_symmetry_2
Cu1 I1 1_555 1_555
S1 Cu1 1_555 1_555
S2 S3 1_555 1_555
S3 S6 1_555 1_555
S4 Cu1 1_555 1_555
S5 S6 1_555 1_555
N1 C1 1_555 1_555
N2 C1 1_555 1_555
N3 C8 1_555 1_555
N4 C8 1_555 1_555
C1 S1 1_555 1_555
C2 S2 1_555 1_555
C3 N1 1_555 1_555
C4 N1 1_555 1_555
C5 C4 1_555 1_555
C6 N2 1_555 1_555
C7 C6 1_555 1_555
C8 S4 1_555 1_555
C9 S5 1_555 1_555
C10 C3 1_555 1_555
C11 N3 1_555 1_555
C12 C11 1_555 1_555
C13 N4 1_555 1_555
C14 C13 1_555 1_555
O1 C16 1_555 1_555
C15 C16 1_555 1_555
C16 C17 1_555 1_555
H1 C4 1_555 1_555
H2 C4 1_555 1_555
H3 C5 1_555 1_555
H4 C5 1_555 1_555
H5 C5 1_555 1_555
H6 C6 1_555 1_555
H7 C6 1_555 1_555
H8 C7 1_555 1_555
H9 C7 1_555 1_555
H10 C7 1_555 1_555
H11 C11 1_555 1_555
H12 C11 1_555 1_555
H13 C12 1_555 1_555
H14 C12 1_555 1_555
H15 C12 1_555 1_555
H16 C13 1_555 1_555
H17 C13 1_555 1_555
H18 C14 1_555 1_555
H19 C14 1_555 1_555
H20 C14 1_555 1_555
C10C N3 1_555 1_555
C9C N4 1_555 1_555
N4C C9 1_555 1_555
N3C C10 1_555 1_555
C3C C10C 1_555 1_555
S5C C9C 1_555 1_555
C8C N4C 1_555 1_555
C13C N4C 1_555 1_555
C11C N3C 1_555 1_555
N1C C3C 1_555 1_555
C2C C3C 1_555 1_555
S6C S5C 1_555 1_555
S4C C8C 1_555 1_555
C14C C13C 1_555 1_555
H16C C13C 1_555 1_555
H17C C13C 1_555 1_555
C12C C11C 1_555 1_555
H11C C11C 1_555 1_555
H12C C11C 1_555 1_555
C1C N1C 1_555 1_555
C4C N1C 1_555 1_555
S2C C2C 1_555 1_555
N2C C2C 1_555 1_555
S3C S6C 1_555 1_555
Cu1C S4C 1_555 1_555
H18C C14C 1_555 1_555
H19C C14C 1_555 1_555
H20C C14C 1_555 1_555
H13C C12C 1_555 1_555
H14C C12C 1_555 1_555
H15C C12C 1_555 1_555
S1C C1C 1_555 1_555
C5C C4C 1_555 1_555
H1C C4C 1_555 1_555
H2C C4C 1_555 1_555
C6C N2C 1_555 1_555
I1C Cu1C 1_555 1_555
S1C_2 Cu1C 1_555 1_555
Cu1C_2 S1C 1_555 1_555
H3C C5C 1_555 1_555
H4C C5C 1_555 1_555
H5C C5C 1_555 1_555
C7C C6C 1_555 1_555
H6C C6C 1_555 1_555
H7C C6C 1_555 1_555
H8C C7C 1_555 1_555
H9C C7C 1_555 1_555
H10C C7C 1_555 1_555
N2 C2 1_555 1_555
C2 C3 1_555 1_555
C9 C10 1_555 1_555
C10C C9C 1_555 1_555
N3C C8C 1_555 1_555
C1C N2C 1_555 1_555
S2C S3C 1_555 1_555

#END
