
#######################################################################
#
#                 Cambridge Crystallographic Data Centre
#                                CCDC 
#
#######################################################################
#
# If this CIF has been generated from an entry in the Cambridge 
# Structural Database, then it will include bibliographic, chemical, 
# crystal, experimental, refinement or atomic coordinate data resulting 
# from the CCDC's data processing and validation procedures.
#
#######################################################################

data_SUJREV
_symmetry_cell_setting           orthorhombic
_symmetry_space_group_name_H-M   'P b c a'
_symmetry_Int_Tables_number      61
_space_group_name_Hall           '-P 2ac 2ab'
loop_
_symmetry_equiv_pos_site_id
_symmetry_equiv_pos_as_xyz
1 x,y,z
2 1/2-x,-y,1/2+z
3 -x,1/2+y,1/2-z
4 1/2+x,1/2-y,-z
5 -x,-y,-z
6 1/2+x,y,1/2-z
7 x,1/2-y,1/2+z
8 1/2-x,1/2+y,z
_cell_length_a                   13.500(3)
_cell_length_b                   14.702(3)
_cell_length_c                   21.245(5)
_cell_angle_alpha                90
_cell_angle_beta                 90
_cell_angle_gamma                90
_cell_volume                     4216.64
loop_
_atom_site_label
_atom_site_type_symbol
_atom_site_fract_x
_atom_site_fract_y
_atom_site_fract_z
Zn1 Zn 0.49813(5) 0.60519(4) 0.43145(3)
N1 N 0.3364(3) 0.5950(3) 0.4272(2)
N2 N -0.3418(3) 0.6116(3) 0.4404(2)
O1 O 0.5011(3) 0.6480(3) 0.33636(19)
O2 O 0.4889(3) 0.7580(3) 0.4057(2)
O3 O 0.4867(3) 0.8579(3) 0.02256(18)
O4 O 0.4921(3) 0.9723(3) 0.0912(2)
C1 C 0.2902(4) 0.5474(4) 0.3838(3)
H1 H 0.3259 0.5281 0.3489
C2 C 0.1909(4) 0.5249(4) 0.3879(3)
H2 H 0.1610 0.4917 0.3559
C3 C 0.1361(4) 0.5517(4) 0.4397(2)
C4 C 0.1828(4) 0.6082(4) 0.4824(3)
H3 H 0.1476 0.6328 0.5159
C5 C 0.2819(4) 0.6279(3) 0.4750(3)
H4 H 0.3124 0.6656 0.5043
C6 C 0.0366(4) 0.5100(4) 0.4531(3)
H5 H 0.0056 0.4871 0.4146
C7 C -0.2808(4) 0.5633(4) 0.4030(3)
H6 H -0.3076 0.5370 0.3670
C8 C -0.1816(4) 0.5505(4) 0.4145(3)
H7 H -0.1430 0.5174 0.3863
C9 C -0.1394(4) 0.5871(3) 0.4682(3)
C10 C -0.2002(4) 0.6424(4) 0.5048(3)
H8 H -0.1747 0.6725 0.5397
C11 C -0.2990(4) 0.6523(4) 0.4888(3)
H9 H -0.3379 0.6901 0.5138
C12 C -0.0384(4) 0.5655(4) 0.4935(3)
H10 H -0.0068 0.6212 0.5090
C13 C 0.4924(4) 0.7311(4) 0.3502(3)
C14 C 0.4880(4) 0.8005(4) 0.2988(3)
H11 H 0.4830 0.8616 0.3098
C15 C 0.4909(5) 0.7787(4) 0.2387(3)
H12 H 0.4944 0.7173 0.2282
C16 C 0.4889(5) 0.8446(4) 0.1879(3)
H13 H 0.4836 0.9057 0.1985
C17 C 0.4942(5) 0.8234(4) 0.1279(3)
H14 H 0.5000 0.7623 0.1171
C18 C 0.4913(4) 0.8914(4) 0.0766(2)
Zn1D Zn -0.49813(5) 0.39481(4) 0.56855(3)
Zn1_2 Zn -0.50187(5) 0.60519(4) 0.43145(3)
Zn1F Zn 0.49813(5) 0.89481(4) -0.06855(3)
Zn1B Zn 0.50187(5) 1.10519(4) 0.06855(3)
Zn1D_2 Zn 0.50187(5) 0.39481(4) 0.56855(3)
Zn1B_2 Zn -0.49813(5) 0.10519(4) 1.06855(3)
Zn1F_2 Zn -0.50187(5) -0.10519(4) 0.93145(3)
N1D N -0.3364(3) 0.4050(3) 0.5728(2)
N2D N 0.3418(3) 0.3884(3) 0.5596(2)
N2_2 N 0.6582(3) 0.6116(3) 0.4404(2)
N2D_2 N -0.6582(3) 0.3884(3) 0.5596(2)
O1D O -0.5011(3) 0.3520(3) 0.66364(19)
O2D O -0.4889(3) 0.2420(3) 0.5943(2)
O3F O 0.4867(3) 0.6421(3) 0.52256(18)
O3B O -0.4867(3) 0.3579(3) 0.47744(18)
O3D O -0.4867(3) 0.1421(3) 0.97744(18)
O4B O 0.5079(3) 0.4723(3) 0.4088(2)
O4F O -0.5079(3) 0.5277(3) 0.5912(2)
O4D O -0.4921(3) 0.0277(3) 0.9088(2)
C1D C -0.2902(4) 0.4526(4) 0.6162(3)
H1D H -0.3259 0.4719 0.6511
C2D C -0.1909(4) 0.4751(4) 0.6121(3)
H2D H -0.1610 0.5083 0.6441
C3D C -0.1361(4) 0.4483(4) 0.5603(2)
C4D C -0.1828(4) 0.3918(4) 0.5176(3)
H3D H -0.1476 0.3672 0.4841
C5D C -0.2819(4) 0.3721(3) 0.5250(3)
H4D H -0.3124 0.3344 0.4957
C6D C -0.0366(4) 0.4900(4) 0.5469(3)
H5D H -0.0056 0.5129 0.5854
C7D C 0.2808(4) 0.4367(4) 0.5970(3)
H6D H 0.3076 0.4630 0.6330
C8D C 0.1816(4) 0.4495(4) 0.5855(3)
H7D H 0.1430 0.4826 0.6137
C9D C 0.1394(4) 0.4129(3) 0.5318(3)
C10D C 0.2002(4) 0.3576(4) 0.4952(3)
H8D H 0.1747 0.3275 0.4603
C11D C 0.2990(4) 0.3477(4) 0.5112(3)
H9D H 0.3379 0.3099 0.4862
C12D C 0.0384(4) 0.4345(4) 0.5065(3)
H10D H 0.0068 0.3788 0.4910
C13D C -0.4924(4) 0.2689(4) 0.6498(3)
C14D C -0.4880(4) 0.1995(4) 0.7012(3)
H11D H -0.4830 0.1384 0.6902
C15D C -0.4909(5) 0.2213(4) 0.7613(3)
H12D H -0.4944 0.2827 0.7718
C16D C -0.4889(5) 0.1554(4) 0.8121(3)
H13D H -0.4836 0.0943 0.8015
C17D C -0.4942(5) 0.1766(4) 0.8721(3)
H14D H -0.5000 0.2377 0.8829
C18D C -0.4913(4) 0.1086(4) 0.9234(2)
C19 C 0.2410(9) 0.6985(10) 0.6524(7)
H15 H 0.2511 0.6362 0.6405
H16 H 0.2932 0.7353 0.6354
H17 H 0.1785 0.7191 0.6364
C20 C 0.2423(7) 0.7959(8) 0.7478(6)
H18 H 0.1851 0.8272 0.7321
H19 H 0.3012 0.8256 0.7330
H20 H 0.2414 0.7967 0.7930
C21 C 0.2292(6) 0.6315(7) 0.7518(6)
H21 H 0.2248 0.6373 0.7953
N3 N 0.2413(5) 0.7064(5) 0.7267(5)
O5 O 0.2216(5) 0.5551(4) 0.7367(3)
O6 O 0.0335(5) 0.4601(4) 0.7236(3)
H22 H 0.023(6) 0.429(6) 0.757(3)
H23 H 0.091(3) 0.475(6) 0.737(4)
loop_
_geom_bond_atom_site_label_1
_geom_bond_atom_site_label_2
_geom_bond_site_symmetry_1
_geom_bond_site_symmetry_2
Zn1 N1 1_555 1_555
N1 C1 1_555 1_555
N2 C7 1_555 1_555
O1 Zn1 1_555 1_555
O2 Zn1 1_555 1_555
O3 C18 1_555 1_555
O4 C18 1_555 1_555
C1 H1 1_555 1_555
C2 C1 1_555 1_555
H2 C2 1_555 1_555
C3 C2 1_555 1_555
C4 C3 1_555 1_555
H3 C4 1_555 1_555
C5 N1 1_555 1_555
H4 C5 1_555 1_555
C6 C3 1_555 1_555
H5 C6 1_555 1_555
C7 H6 1_555 1_555
C8 C7 1_555 1_555
H7 C8 1_555 1_555
C9 C8 1_555 1_555
C10 C9 1_555 1_555
H8 C10 1_555 1_555
C11 N2 1_555 1_555
H9 C11 1_555 1_555
C12 C6 1_555 1_555
H10 C12 1_555 1_555
C13 O1 1_555 1_555
C14 C13 1_555 1_555
H11 C14 1_555 1_555
C15 C14 1_555 1_555
H12 C15 1_555 1_555
C16 C15 1_555 1_555
H13 C16 1_555 1_555
C17 C16 1_555 1_555
H14 C17 1_555 1_555
C18 C17 1_555 1_555
C19 H15 1_555 1_555
H16 C19 1_555 1_555
H17 C19 1_555 1_555
C20 H18 1_555 1_555
H19 C20 1_555 1_555
H20 C20 1_555 1_555
C21 H21 1_555 1_555
N3 C19 1_555 1_555
O5 C21 1_555 1_555
O6 H22 1_555 1_555
H23 O6 1_555 1_555
Zn1D N1D 1_555 1_555
Zn1_2 N2 1_555 1_555
Zn1F O3 1_555 1_555
Zn1B O4 1_555 1_555
Zn1D_2 N2D 1_555 1_555
Zn1B_2 O3D 1_555 1_555
Zn1F_2 O4D 1_555 1_555
N1D C1D 1_555 1_555
N2D C7D 1_555 1_555
N2_2 Zn1 1_555 1_555
N2D_2 Zn1D 1_555 1_555
O1D Zn1D 1_555 1_555
O2D Zn1D 1_555 1_555
O3F Zn1 1_555 1_555
O3B Zn1D 1_555 1_555
O3D C18D 1_555 1_555
O4B Zn1 1_555 1_555
O4F Zn1D 1_555 1_555
O4D C18D 1_555 1_555
C1D H1D 1_555 1_555
C2D C1D 1_555 1_555
H2D C2D 1_555 1_555
C3D C2D 1_555 1_555
C4D C3D 1_555 1_555
H3D C4D 1_555 1_555
C5D N1D 1_555 1_555
H4D C5D 1_555 1_555
C6D C12 1_555 1_555
H5D C6D 1_555 1_555
C7D H6D 1_555 1_555
C8D C7D 1_555 1_555
H7D C8D 1_555 1_555
C9D C8D 1_555 1_555
C10D C9D 1_555 1_555
H8D C10D 1_555 1_555
C11D N2D 1_555 1_555
H9D C11D 1_555 1_555
C12D C6 1_555 1_555
H10D C12D 1_555 1_555
C13D O1D 1_555 1_555
C14D C13D 1_555 1_555
H11D C14D 1_555 1_555
C15D C14D 1_555 1_555
H12D C15D 1_555 1_555
C16D C15D 1_555 1_555
H13D C16D 1_555 1_555
C17D C16D 1_555 1_555
H14D C17D 1_555 1_555
C18D C17D 1_555 1_555
O2 C13 1_555 1_555
C4 C5 1_555 1_555
C9 C12 1_555 1_555
C10 C11 1_555 1_555
C20 N3 1_555 1_555
C21 N3 1_555 1_555
O2D C13D 1_555 1_555
C3D C6D 1_555 1_555
C4D C5D 1_555 1_555
C6D C12D 1_555 1_555
C9D C12D 1_555 1_555
C10D C11D 1_555 1_555

#END
