
#######################################################################
#
#                 Cambridge Crystallographic Data Centre
#                                CCDC 
#
#######################################################################
#
# If this CIF has been generated from an entry in the Cambridge 
# Structural Database, then it will include bibliographic, chemical, 
# crystal, experimental, refinement or atomic coordinate data resulting 
# from the CCDC's data processing and validation procedures.
#
#######################################################################

data_SURMEZ
_symmetry_cell_setting           monoclinic
_symmetry_space_group_name_H-M   'P 21/c'
_symmetry_Int_Tables_number      14
_space_group_name_Hall           '-P 2ybc'
loop_
_symmetry_equiv_pos_site_id
_symmetry_equiv_pos_as_xyz
1 x,y,z
2 -x,1/2+y,1/2-z
3 -x,-y,-z
4 x,1/2-y,1/2+z
_cell_length_a                   7.3181(8)
_cell_length_b                   29.042(3)
_cell_length_c                   23.593(3)
_cell_angle_alpha                90
_cell_angle_beta                 91.721(2)
_cell_angle_gamma                90
_cell_volume                     5012.01
loop_
_atom_site_label
_atom_site_type_symbol
_atom_site_fract_x
_atom_site_fract_y
_atom_site_fract_z
C1 C 0.7785(5) 0.71122(11) 0.16395(12)
C2 C 0.8721(4) 0.67875(11) 0.20449(12)
C3 C 1.0556(4) 0.68478(11) 0.22054(12)
H1 H 1.1217 0.7089 0.2054
C4 C 1.1398(5) 0.65496(11) 0.25890(13)
H2 H 1.2615 0.6597 0.2699
C5 C 1.0444(4) 0.61783(10) 0.28130(12)
C6 C 0.8634(5) 0.61187(12) 0.26432(14)
H3 H 0.7979 0.5872 0.2785
C7 C 0.7780(5) 0.64203(12) 0.22650(14)
H4 H 0.6560 0.6375 0.2158
C8 C 1.1479(4) 0.58595(11) 0.32337(12)
C9 C 1.0157(5) 0.55297(12) 0.35406(14)
C10 C 1.2821(5) 0.55669(12) 0.28849(14)
C11 C 1.2465(4) 0.61408(11) 0.37091(12)
C12 C 1.1524(5) 0.65154(11) 0.39309(13)
H5 H 1.0386 0.6597 0.3776
C13 C 1.2276(5) 0.67657(11) 0.43794(13)
H6 H 1.1626 0.7011 0.4526
C14 C 1.3975(4) 0.66569(11) 0.46127(12)
C15 C 1.4928(5) 0.62893(12) 0.43863(13)
H7 H 1.6086 0.6216 0.4533
C16 C 1.4167(5) 0.60313(12) 0.39444(13)
H8 H 1.4808 0.5781 0.3804
C17 C 1.4770(5) 0.69229(12) 0.51053(12)
C18 C 0.4443(4) 0.80185(11) 0.16695(13)
C19 C 0.3598(4) 0.82793(11) 0.21446(12)
C20 C 0.1926(4) 0.81510(11) 0.23580(14)
H9 H 0.1293 0.7902 0.2202
C21 C 0.1201(5) 0.83936(12) 0.28035(14)
H10 H 0.0094 0.8300 0.2950
C22 C 0.2094(5) 0.87725(11) 0.30350(13)
C23 C 0.3756(5) 0.89041(13) 0.28177(15)
H11 H 0.4373 0.9159 0.2966
C24 C 0.4489(5) 0.86564(13) 0.23804(15)
H12 H 0.5610 0.8745 0.2241
C25 C 0.1114(5) 0.90556(11) 0.34948(13)
C26 C 0.2474(6) 0.93541(14) 0.38617(16)
C27 C -0.0207(6) 0.93825(13) 0.31693(16)
C28 C 0.0141(5) 0.87409(12) 0.39120(13)
C29 C 0.1125(5) 0.83719(12) 0.41529(14)
H13 H 0.2314 0.8317 0.4043
C30 C 0.0355(5) 0.80873(12) 0.45524(13)
H14 H 0.1033 0.7847 0.4713
C31 C -0.1424(5) 0.81620(12) 0.47122(12)
C32 C -0.2399(5) 0.85257(14) 0.44756(15)
H15 H -0.3596 0.8577 0.4582
C33 C -0.1627(5) 0.88132(13) 0.40858(15)
H16 H -0.2301 0.9059 0.3937
C34 C -0.2283(5) 0.78641(12) 0.51532(13)
C35 C 1.0833(5) 0.85893(12) 0.07750(13)
H17 H 1.1272 0.8429 0.0466
C36 C 0.9297(5) 0.87774(12) 0.14847(13)
H18 H 0.8430 0.8771 0.1765
C37 C 1.0565(5) 0.91087(12) 0.14269(15)
H19 H 1.0738 0.9366 0.1657
C38 C 1.2986(4) 0.92511(11) 0.07276(13)
C39 C 1.4783(5) 0.91936(13) 0.08054(15)
H20 H 1.5307 0.8968 0.1038
C40 C 1.5804(5) 0.95151(12) 0.04945(15)
H21 H 1.7075 0.9523 0.0499
C41 C 1.4730(4) 0.98129(11) 0.01871(12)
C42 C 0.0471(14) 0.6053(3) 0.0860(4)
H22 H -0.0771 0.6159 0.0867
H23 H 0.0735 0.5868 0.1190
H24 H 0.0639 0.5872 0.0525
C43 C 0.1776(10) 0.6472(3) 0.0858(2)
Cu1 Cu 0.76402(5) 0.788931(12) 0.092610(14)
Cu2 Cu 0.47225(5) 0.732052(13) 0.087691(14)
F1 F 0.8845(3) 0.57521(8) 0.37948(8)
F2 F 0.9368(3) 0.52204(7) 0.31879(9)
F3 F 1.1055(3) 0.52817(8) 0.39432(9)
F4 F 1.1987(3) 0.53942(8) 0.24203(9)
F5 F 1.3529(4) 0.52065(7) 0.31691(9)
F6 F 1.4210(3) 0.58155(8) 0.27129(9)
F7 F 0.1648(4) 0.95262(9) 0.43111(10)
F8 F 0.3142(4) 0.97114(8) 0.35803(11)
F9 F 0.3893(3) 0.91112(9) 0.40532(10)
F10 F 0.0636(4) 0.96098(8) 0.27606(10)
F11 F -0.0947(4) 0.97018(8) 0.35019(10)
F12 F -0.1583(3) 0.91540(9) 0.29203(9)
N1 N 0.9469(3) 0.84514(8) 0.10706(10)
N2 N 1.1546(4) 0.89929(9) 0.09657(10)
N3 N 0.2561(6) 0.68058(18) 0.08428(15)
O1 O 0.8598(3) 0.74779(8) 0.15187(9)
O2 O 0.6246(3) 0.69865(8) 0.14427(10)
O3 O 1.3792(3) 0.72378(9) 0.53005(9)
O4 O 1.6325(3) 0.68059(8) 0.52944(9)
O5 O 0.5922(3) 0.81720(8) 0.14883(9)
O6 O 0.3624(3) 0.76666(8) 0.14893(9)
O7 O -0.1347(3) 0.75386(8) 0.53602(9)
O8 O -0.3892(3) 0.79702(9) 0.52823(10)
S1 S 1.24476(12) 0.96978(3) 0.02746(4)
C35B C 1.9167(5) 1.14107(12) -0.07750(13)
H17B H 1.8728 1.1571 -0.0466
C36B C 2.0703(5) 1.12226(12) -0.14847(13)
H18B H 2.1570 1.1229 -0.1765
C37B C 1.9435(5) 1.08913(12) -0.14269(15)
H19B H 1.9262 1.0634 -0.1657
C38B C 1.7014(4) 1.07489(11) -0.07276(13)
C39B C 1.5217(5) 1.08064(13) -0.08054(15)
H20B H 1.4693 1.1032 -0.1038
C40B C 1.4196(5) 1.04849(12) -0.04945(15)
H21B H 1.2925 1.0477 -0.0499
C41B C 1.5270(4) 1.01871(11) -0.01871(12)
N1B N 2.0531(3) 1.15486(8) -0.10706(10)
N2B N 1.8454(4) 1.10071(9) -0.09657(10)
S1B S 1.75524(12) 1.03022(3) -0.02746(4)
C1B C 2.2215(5) 1.28878(11) -0.16395(12)
C2B C 2.1279(4) 1.32125(11) -0.20449(12)
C3B C 1.9444(4) 1.31522(11) -0.22054(12)
H1B H 1.8783 1.2911 -0.2054
C4B C 1.8602(5) 1.34504(11) -0.25890(13)
H2B H 1.7385 1.3403 -0.2699
C5B C 1.9556(4) 1.38217(10) -0.28130(12)
C6B C 2.1366(5) 1.38813(12) -0.26432(14)
H3B H 2.2021 1.4128 -0.2785
C7B C 2.2220(5) 1.35797(12) -0.22650(14)
H4B H 2.3440 1.3625 -0.2158
C8B C 1.8521(4) 1.41405(11) -0.32337(12)
C9B C 1.9843(5) 1.44703(12) -0.35406(14)
C10B C 1.7179(5) 1.44331(12) -0.28849(14)
C11B C 1.7535(4) 1.38592(11) -0.37091(12)
C12B C 1.8476(5) 1.34846(11) -0.39309(13)
H5B H 1.9614 1.3403 -0.3776
C13B C 1.7724(5) 1.32343(11) -0.43794(13)
H6B H 1.8374 1.2989 -0.4526
C14B C 1.6025(4) 1.33431(11) -0.46127(12)
C15B C 1.5072(5) 1.37107(12) -0.43863(13)
H7B H 1.3914 1.3784 -0.4533
C16B C 1.5833(5) 1.39687(12) -0.39444(13)
H8B H 1.5192 1.4219 -0.3804
C17B C 1.5230(5) 1.30771(12) -0.51053(12)
C18B C 2.5557(4) 1.19815(11) -0.16695(13)
C19B C 2.6402(4) 1.17207(11) -0.21446(12)
C20B C 2.8074(4) 1.18490(11) -0.23580(14)
H9B H 2.8707 1.2098 -0.2202
C21B C 2.8799(5) 1.16064(12) -0.28035(14)
H10B H 2.9906 1.1700 -0.2950
C22B C 2.7906(5) 1.12275(11) -0.30350(13)
C23B C 2.6244(5) 1.10959(13) -0.28177(15)
H11B H 2.5627 1.0841 -0.2966
C24B C 2.5511(5) 1.13436(13) -0.23804(15)
H12B H 2.4390 1.1255 -0.2241
C25B C 2.8886(5) 1.09444(11) -0.34948(13)
C26B C 2.7526(6) 1.06459(14) -0.38617(16)
C27B C 3.0207(6) 1.06175(13) -0.31693(16)
C28B C 2.9859(5) 1.12591(12) -0.39120(13)
C29B C 2.8875(5) 1.16281(12) -0.41529(14)
H13B H 2.7686 1.1683 -0.4043
C30B C 2.9645(5) 1.19127(12) -0.45524(13)
H14B H 2.8967 1.2153 -0.4713
C31B C 3.1424(5) 1.18380(12) -0.47122(12)
C32B C 3.2399(5) 1.14743(14) -0.44756(15)
H15B H 3.3596 1.1423 -0.4582
C33B C 3.1627(5) 1.11868(13) -0.40858(15)
H16B H 3.2301 1.0941 -0.3937
C34B C 3.2283(5) 1.21359(12) -0.51532(13)
C42B C 2.9529(14) 1.3947(3) -0.0860(4)
H22B H 3.0771 1.3841 -0.0867
H23B H 2.9265 1.4132 -0.1190
H24B H 2.9361 1.4128 -0.0525
C43B C 2.8224(10) 1.3528(3) -0.0858(2)
Cu1B Cu 2.23598(5) 1.211069(12) -0.092610(14)
Cu2B Cu 2.52775(5) 1.267948(13) -0.087691(14)
F1B F 2.1155(3) 1.42479(8) -0.37948(8)
F2B F 2.0632(3) 1.47796(7) -0.31879(9)
F3B F 1.8945(3) 1.47183(8) -0.39432(9)
F4B F 1.8013(3) 1.46058(8) -0.24203(9)
F5B F 1.6471(4) 1.47935(7) -0.31691(9)
F6B F 1.5790(3) 1.41845(8) -0.27129(9)
F7B F 2.8352(4) 1.04738(9) -0.43111(10)
F8B F 2.6858(4) 1.02886(8) -0.35803(11)
F9B F 2.6107(3) 1.08888(9) -0.40532(10)
F10B F 2.9364(4) 1.03902(8) -0.27606(10)
F11B F 3.0947(4) 1.02982(8) -0.35019(10)
F12B F 3.1583(3) 1.08460(9) -0.29203(9)
N3B N 2.7439(6) 1.31942(18) -0.08428(15)
O1B O 2.1402(3) 1.25221(8) -0.15187(9)
O2B O 2.3754(3) 1.30135(8) -0.14427(10)
O3B O 1.6208(3) 1.27622(9) -0.53005(9)
O4B O 1.3675(3) 1.31941(8) -0.52944(9)
O5B O 2.4078(3) 1.18280(8) -0.14883(9)
O6B O 2.6376(3) 1.23334(8) -0.14893(9)
O7B O 3.1347(3) 1.24614(8) -0.53602(9)
O8B O 3.3892(3) 1.20298(9) -0.52823(10)
Cu1A Cu 1.23598(5) 1.288931(12) -0.592610(14)
Cu1A_2 Cu 3.23598(5) 1.288931(12) -0.592610(14)
Cu1C Cu -0.23598(5) 0.711069(12) 0.592610(14)
Cu1C_2 Cu 1.76402(5) 0.711069(12) 0.592610(14)
Cu2A Cu 1.52775(5) 1.232052(13) -0.587691(14)
Cu2A_2 Cu 3.52775(5) 1.232052(13) -0.587691(14)
Cu2C Cu -0.52775(5) 0.767948(13) 0.587691(14)
Cu2C_2 Cu 1.47225(5) 0.767948(13) 0.587691(14)
O3A O 2.6208(3) 1.22378(9) -0.03005(9)
O3C O 0.3792(3) 0.77622(9) 0.03005(9)
O4A O 2.3675(3) 1.18059(8) -0.02944(9)
O4C O 0.6325(3) 0.81941(8) 0.02944(9)
O7A O 2.1347(3) 1.25386(8) -0.03602(9)
O7C O 0.8653(3) 0.74614(8) 0.03602(9)
O8A O 2.3892(3) 1.29702(9) -0.02823(10)
O8C O 0.6108(3) 0.70298(9) 0.02823(10)
loop_
_geom_bond_atom_site_label_1
_geom_bond_atom_site_label_2
_geom_bond_site_symmetry_1
_geom_bond_site_symmetry_2
C1 C2 1_555 1_555
C2 C3 1_555 1_555
C3 H1 1_555 1_555
C4 C3 1_555 1_555
H2 C4 1_555 1_555
C5 C4 1_555 1_555
C6 C5 1_555 1_555
H3 C6 1_555 1_555
C7 C2 1_555 1_555
H4 C7 1_555 1_555
C8 C5 1_555 1_555
C9 C8 1_555 1_555
C10 C8 1_555 1_555
C11 C8 1_555 1_555
C12 C11 1_555 1_555
H5 C12 1_555 1_555
C13 C12 1_555 1_555
H6 C13 1_555 1_555
C14 C13 1_555 1_555
C15 C14 1_555 1_555
H7 C15 1_555 1_555
C16 C11 1_555 1_555
H8 C16 1_555 1_555
C17 C14 1_555 1_555
C18 C19 1_555 1_555
C19 C20 1_555 1_555
C20 H9 1_555 1_555
C21 C20 1_555 1_555
H10 C21 1_555 1_555
C22 C21 1_555 1_555
C23 C22 1_555 1_555
H11 C23 1_555 1_555
C24 C19 1_555 1_555
H12 C24 1_555 1_555
C25 C22 1_555 1_555
C26 C25 1_555 1_555
C27 C25 1_555 1_555
C28 C25 1_555 1_555
C29 C28 1_555 1_555
H13 C29 1_555 1_555
C30 C29 1_555 1_555
H14 C30 1_555 1_555
C31 C30 1_555 1_555
C32 C31 1_555 1_555
H15 C32 1_555 1_555
C33 C28 1_555 1_555
H16 C33 1_555 1_555
C34 C31 1_555 1_555
C35 H17 1_555 1_555
C36 H18 1_555 1_555
C37 C36 1_555 1_555
H19 C37 1_555 1_555
C38 C39 1_555 1_555
C39 H20 1_555 1_555
C40 C39 1_555 1_555
H21 C40 1_555 1_555
C41 C40 1_555 1_555
C42 H22 1_555 1_555
H23 C42 1_555 1_555
H24 C42 1_555 1_555
C43 C42 1_555 1_555
Cu1 N1 1_555 1_555
Cu2 N3 1_555 1_555
F1 C9 1_555 1_555
F2 C9 1_555 1_555
F3 C9 1_555 1_555
F4 C10 1_555 1_555
F5 C10 1_555 1_555
F6 C10 1_555 1_555
F7 C26 1_555 1_555
F8 C26 1_555 1_555
F9 C26 1_555 1_555
F10 C27 1_555 1_555
F11 C27 1_555 1_555
F12 C27 1_555 1_555
N1 C35 1_555 1_555
N2 C35 1_555 1_555
N3 C43 1_555 1_555
O1 C1 1_555 1_555
O2 C1 1_555 1_555
O3 C17 1_555 1_555
O4 C17 1_555 1_555
O5 C18 1_555 1_555
O6 C18 1_555 1_555
O7 C34 1_555 1_555
O8 C34 1_555 1_555
S1 C38 1_555 1_555
C35B H17B 1_555 1_555
C36B H18B 1_555 1_555
C37B C36B 1_555 1_555
H19B C37B 1_555 1_555
C38B C39B 1_555 1_555
C39B H20B 1_555 1_555
C40B C39B 1_555 1_555
H21B C40B 1_555 1_555
C41B C41 1_555 1_555
N1B C35B 1_555 1_555
N2B C35B 1_555 1_555
S1B C38B 1_555 1_555
C1B C2B 1_555 1_555
C2B C3B 1_555 1_555
C3B H1B 1_555 1_555
C4B C3B 1_555 1_555
H2B C4B 1_555 1_555
C5B C4B 1_555 1_555
C6B C5B 1_555 1_555
H3B C6B 1_555 1_555
C7B C2B 1_555 1_555
H4B C7B 1_555 1_555
C8B C5B 1_555 1_555
C9B C8B 1_555 1_555
C10B C8B 1_555 1_555
C11B C8B 1_555 1_555
C12B C11B 1_555 1_555
H5B C12B 1_555 1_555
C13B C12B 1_555 1_555
H6B C13B 1_555 1_555
C14B C13B 1_555 1_555
C15B C14B 1_555 1_555
H7B C15B 1_555 1_555
C16B C11B 1_555 1_555
H8B C16B 1_555 1_555
C17B C14B 1_555 1_555
C18B C19B 1_555 1_555
C19B C20B 1_555 1_555
C20B H9B 1_555 1_555
C21B C20B 1_555 1_555
H10B C21B 1_555 1_555
C22B C21B 1_555 1_555
C23B C22B 1_555 1_555
H11B C23B 1_555 1_555
C24B C19B 1_555 1_555
H12B C24B 1_555 1_555
C25B C22B 1_555 1_555
C26B C25B 1_555 1_555
C27B C25B 1_555 1_555
C28B C25B 1_555 1_555
C29B C28B 1_555 1_555
H13B C29B 1_555 1_555
C30B C29B 1_555 1_555
H14B C30B 1_555 1_555
C31B C30B 1_555 1_555
C32B C31B 1_555 1_555
H15B C32B 1_555 1_555
C33B C28B 1_555 1_555
H16B C33B 1_555 1_555
C34B C31B 1_555 1_555
C42B H22B 1_555 1_555
H23B C42B 1_555 1_555
H24B C42B 1_555 1_555
C43B C42B 1_555 1_555
Cu1B N1B 1_555 1_555
Cu2B N3B 1_555 1_555
F1B C9B 1_555 1_555
F2B C9B 1_555 1_555
F3B C9B 1_555 1_555
F4B C10B 1_555 1_555
F5B C10B 1_555 1_555
F6B C10B 1_555 1_555
F7B C26B 1_555 1_555
F8B C26B 1_555 1_555
F9B C26B 1_555 1_555
F10B C27B 1_555 1_555
F11B C27B 1_555 1_555
F12B C27B 1_555 1_555
N3B C43B 1_555 1_555
O1B C1B 1_555 1_555
O2B C1B 1_555 1_555
O3B C17B 1_555 1_555
O4B C17B 1_555 1_555
O5B C18B 1_555 1_555
O6B C18B 1_555 1_555
O7B C34B 1_555 1_555
O8B C34B 1_555 1_555
Cu1A O4B 1_555 1_555
Cu1A_2 O7B 1_555 1_555
Cu1C O7 1_555 1_555
Cu1C_2 O4 1_555 1_555
Cu2A O3B 1_555 1_555
Cu2A_2 O8B 1_555 1_555
Cu2C O8 1_555 1_555
Cu2C_2 O3 1_555 1_555
O3A Cu2B 1_555 1_555
O3C Cu2 1_555 1_555
O4A Cu1B 1_555 1_555
O4C Cu1 1_555 1_555
O7A Cu1B 1_555 1_555
O7C Cu1 1_555 1_555
O8A Cu2B 1_555 1_555
O8C Cu2 1_555 1_555
C6 C7 1_555 1_555
C15 C16 1_555 1_555
C23 C24 1_555 1_555
C32 C33 1_555 1_555
C36 N1 1_555 1_555
C37 N2 1_555 1_555
C38 N2 1_555 1_555
C41 S1 1_555 1_555
Cu1 O1 1_555 1_555
Cu1 O5 1_555 1_555
Cu2 O2 1_555 1_555
Cu2 O6 1_555 1_555
C36B N1B 1_555 1_555
C37B N2B 1_555 1_555
C38B N2B 1_555 1_555
C40B C41B 1_555 1_555
C41B S1B 1_555 1_555
C6B C7B 1_555 1_555
C15B C16B 1_555 1_555
C23B C24B 1_555 1_555
C32B C33B 1_555 1_555
Cu1B O1B 1_555 1_555
Cu1B O5B 1_555 1_555
Cu2B O2B 1_555 1_555
Cu2B O6B 1_555 1_555

#END
