
#######################################################################
#
#                 Cambridge Crystallographic Data Centre
#                                CCDC 
#
#######################################################################
#
# If this CIF has been generated from an entry in the Cambridge 
# Structural Database, then it will include bibliographic, chemical, 
# crystal, experimental, refinement or atomic coordinate data resulting 
# from the CCDC's data processing and validation procedures.
#
#######################################################################

data_SUTBIT
_symmetry_cell_setting           orthorhombic
_symmetry_space_group_name_H-M   'I m m a'
_symmetry_Int_Tables_number      74
_space_group_name_Hall           '-I 2b 2'
loop_
_symmetry_equiv_pos_site_id
_symmetry_equiv_pos_as_xyz
1 x,y,z
2 1/2+x,1/2+y,1/2+z
3 x,-y,-z
4 1/2+x,1/2-y,1/2-z
5 -x,1/2+y,-z
6 -x,1/2-y,z
7 1/2-x,y,1/2-z
8 1/2-x,-y,1/2+z
9 -x,-y,-z
10 1/2-x,1/2-y,1/2-z
11 -x,y,z
12 1/2-x,1/2+y,1/2+z
13 x,1/2-y,z
14 x,1/2+y,-z
15 1/2+x,-y,1/2+z
16 1/2+x,y,1/2-z
_cell_length_a                   6.76552(46)
_cell_length_b                   22.7353(32)
_cell_length_c                   13.4648(14)
_cell_angle_alpha                90
_cell_angle_beta                 90
_cell_angle_gamma                90
_cell_volume                     2071.1
loop_
_atom_site_label
_atom_site_type_symbol
_atom_site_fract_x
_atom_site_fract_y
_atom_site_fract_z
Ni1 Ni -0.25000 0.25000 0.25000
C1 C 0.162630 0.358640 0.373160
C2 C 0.00000 0.389690 0.401020
C3 C 0.00000 0.446010 0.451550
C4 C -0.177930 0.473010 0.475780
N1 N 0.100510 0.308410 0.328080
H1 H -0.299530 0.454560 0.459220
H2 H 0.287740 0.375400 0.388190
C1J C -0.162630 0.358640 0.373160
N1J N -0.100510 0.308410 0.328080
H2J H -0.287740 0.375400 0.388190
C4B C -0.177930 0.526990 0.524220
C3B C 0.00000 0.553990 0.548450
C2B C 0.00000 0.610310 0.598980
C1B C 0.162630 0.641360 0.626840
N1B N 0.100510 0.691590 0.671920
H2B H 0.287740 0.624600 0.611810
C1H C -0.162630 0.641360 0.626840
N1H N -0.100510 0.691590 0.671920
H2H H -0.287740 0.624600 0.611810
C4H C 0.177930 0.526990 0.524220
H1H H 0.299530 0.545440 0.540780
C4J C 0.177930 0.473010 0.475780
H1J H 0.299530 0.454560 0.459220
H1B H -0.299530 0.545440 0.540780
Ni1C Ni 0.25000 0.25000 0.25000
Ni1A Ni 0.25000 0.75000 0.75000
Ni1B Ni -0.25000 0.75000 0.75000
N1E N -0.100510 0.191590 0.328080
N1C N -0.399490 0.191590 0.171920
N1O N -0.399490 0.308410 0.171920
loop_
_geom_bond_atom_site_label_1
_geom_bond_atom_site_label_2
_geom_bond_site_symmetry_1
_geom_bond_site_symmetry_2
Ni1 N1J 1_555 1_555
C1 C2 1_555 1_555
C2 C3 1_555 1_555
C3 C4 1_555 1_555
C4 H1 1_555 1_555
N1 C1 1_555 1_555
H2 C1 1_555 1_555
C1J C2 1_555 1_555
N1J N1 1_555 1_555
H2J C1J 1_555 1_555
C4B C4 1_555 1_555
C3B C4B 1_555 1_555
C2B C3B 1_555 1_555
C1B C2B 1_555 1_555
N1B C1B 1_555 1_555
H2B C1B 1_555 1_555
C1H C2B 1_555 1_555
N1H N1B 1_555 1_555
H2H C1H 1_555 1_555
C4H C3B 1_555 1_555
H1H C4H 1_555 1_555
C4J C3 1_555 1_555
H1J C4J 1_555 1_555
H1B C4B 1_555 1_555
Ni1C N1 1_555 1_555
Ni1A N1B 1_555 1_555
Ni1B N1H 1_555 1_555
N1E Ni1 1_555 1_555
N1C Ni1 1_555 1_555
N1O Ni1 1_555 1_555
C1J N1J 1_555 1_555
C1H N1H 1_555 1_555
C4H C4J 1_555 1_555

#END
