
#######################################################################
#
#                 Cambridge Crystallographic Data Centre
#                                CCDC 
#
#######################################################################
#
# If this CIF has been generated from an entry in the Cambridge 
# Structural Database, then it will include bibliographic, chemical, 
# crystal, experimental, refinement or atomic coordinate data resulting 
# from the CCDC's data processing and validation procedures.
#
#######################################################################

data_TAKYOV
_symmetry_cell_setting           hexagonal
_symmetry_space_group_name_H-M   'P 6/m c c'
_symmetry_Int_Tables_number      192
_space_group_name_Hall           "-P 6 2'c"
loop_
_symmetry_equiv_pos_site_id
_symmetry_equiv_pos_as_xyz
1 x,y,z
2 -y,x-y,z
3 -x+y,-x,z
4 -x,-y,z
5 y,-x+y,z
6 x-y,x,z
7 y,x,1/2-z
8 x-y,-y,1/2-z
9 -x,-x+y,1/2-z
10 -y,-x,1/2-z
11 -x+y,y,1/2-z
12 x,x-y,1/2-z
13 -x,-y,-z
14 y,-x+y,-z
15 x-y,x,-z
16 x,y,-z
17 -y,x-y,-z
18 -x+y,-x,-z
19 -y,-x,1/2+z
20 -x+y,y,1/2+z
21 x,x-y,1/2+z
22 y,x,1/2+z
23 x-y,-y,1/2+z
24 -x,-x+y,1/2+z
_cell_length_a                   15.1473(9)
_cell_length_b                   15.1473(9)
_cell_length_c                   15.4766(18)
_cell_angle_alpha                90
_cell_angle_beta                 90
_cell_angle_gamma                120
_cell_volume                     3075.22
loop_
_atom_site_label
_atom_site_type_symbol
_atom_site_fract_x
_atom_site_fract_y
_atom_site_fract_z
O1 O 0.2605(11) 0.0478(15) 0.0000
H1 H 0.2543 0.1005 0.0000
H2 H 0.3133 0.0415 0.0000
Co1 Co 0.5000 0.0000 0.5000
Dy1 Dy 0.3333 -0.3333 0.2500
O2 O 0.4123(4) -0.1988(4) 0.3564(2)
C1 C 0.5076(5) -0.1380(3) 0.3608(3)
C2 C 0.5734(5) -0.1615(3) 0.3039(3)
O3 O 0.5516(2) -0.0615(4) 0.4080(2)
C3 C 0.6786(6) -0.1072(3) 0.3064(4)
H3 H 0.7133 -0.0536 0.3450
C4 C 0.7298(7) -0.1351(6) 0.2500
H4 H 0.8007 -0.0996 0.2500
N1 N 0.5219(4) -0.2391(2) 0.2500
O5 O 0.6488(4) 0.1346(3) 0.5000
H7 H 0.6527 0.1656 0.4553
Co1H Co 0.5000 -0.5000 0.0000
Co1A Co 0.0000 -0.5000 0.5000
Co1G Co 0.5000 0.0000 0.0000
Co1B Co 0.5000 -0.5000 0.5000
Co1F Co 0.0000 -0.5000 0.0000
Co1H_2 Co 0.5000 0.5000 0.0000
Co1H_3 Co 0.5000 0.5000 1.0000
Co1H_4 Co 0.5000 -0.5000 1.0000
Dy1C Dy 0.6667 0.3333 0.2500
Dy1L Dy 0.6667 0.3333 0.7500
Dy1O Dy 0.3333 -0.3333 0.7500
O2K O 0.4123(4) -0.3889(6) 0.1436(2)
O2A O 0.1988(4) -0.3889(6) 0.3564(2)
O2J O 0.3889(6) -0.1988(4) 0.1436(2)
O2B O 0.3889(6) -0.4123(4) 0.3564(2)
O2I O 0.1988(4) -0.4123(4) 0.1436(2)
O2C O 0.5877(4) 0.1988(4) 0.3564(2)
O2H O 0.5877(4) 0.3889(6) 0.1436(2)
O2L O 0.5877(4) 0.1988(4) 0.6436(2)
O2W O 0.5877(4) 0.3889(6) 0.8564(2)
O2O O 0.4123(4) -0.1988(4) 0.6436(2)
O2T O 0.4123(4) -0.3889(6) 0.8564(2)
O2D O 0.8012(4) 0.3889(6) 0.3564(2)
O2E O 0.6111(6) 0.4123(4) 0.3564(2)
O2F O 0.8012(4) 0.4123(4) 0.1436(2)
O2G O 0.6111(6) 0.1988(4) 0.1436(2)
C1K C 0.5076(5) -0.3544(6) 0.1392(3)
C1A C 0.1380(3) -0.3544(6) 0.3608(3)
C1J C 0.3544(6) -0.1380(3) 0.1392(3)
C1B C 0.3544(6) -0.5076(5) 0.3608(3)
C1I C 0.1380(3) -0.5076(5) 0.1392(3)
C1C C 0.4924(5) 0.1380(3) 0.3608(3)
C1H C 0.4924(5) 0.3544(6) 0.1392(3)
C1L C 0.4924(5) 0.1380(3) 0.6392(3)
C1W C 0.4924(5) 0.3544(6) 0.8608(3)
C1O C 0.5076(5) -0.1380(3) 0.6392(3)
C1T C 0.5076(5) -0.3544(6) 0.8608(3)
C2K C 0.5734(5) -0.2651(6) 0.1961(3)
C2A C 0.1615(3) -0.2651(6) 0.3039(3)
C2J C 0.2651(6) -0.1615(3) 0.1961(3)
C2B C 0.2651(6) -0.5734(5) 0.3039(3)
C2I C 0.1615(3) -0.5734(5) 0.1961(3)
C2C C 0.4266(5) 0.1615(3) 0.3039(3)
C2H C 0.4266(5) 0.2651(6) 0.1961(3)
C2L C 0.4266(5) 0.1615(3) 0.6961(3)
C2W C 0.4266(5) 0.2651(6) 0.8039(3)
C2O C 0.5734(5) -0.1615(3) 0.6961(3)
C2T C 0.5734(5) -0.2651(6) 0.8039(3)
O3K O 0.5516(2) -0.3869(4) 0.0920(2)
O3A O 0.0615(4) -0.3869(4) 0.4080(2)
O3J O 0.3869(4) -0.0615(4) 0.0920(2)
O3B O 0.3869(4) -0.5516(2) 0.4080(2)
O3I O 0.0615(4) -0.5516(2) 0.0920(2)
O3C O 0.4484(2) 0.0615(4) 0.4080(2)
O3H O 0.4484(2) 0.3869(4) 0.0920(2)
O3L O 0.4484(2) 0.0615(4) 0.5920(2)
O3W O 0.4484(2) 0.3869(4) 0.9080(2)
O3O O 0.5516(2) -0.0615(4) 0.5920(2)
O3T O 0.5516(2) -0.3869(4) 0.9080(2)
O3H_2 O 0.4484(2) -0.6131(4) 0.0920(2)
O3W_2 O 0.4484(2) -0.6131(4) -0.0920(2)
O3T_2 O 0.5516(2) -0.3869(4) -0.0920(2)
O3D O -0.0615(4) -0.6131(4) 0.4080(2)
O3M O -0.0615(4) -0.6131(4) 0.5920(2)
O3P O 0.0615(4) -0.3869(4) 0.5920(2)
C3K C 0.6786(6) -0.2142(7) 0.1936(4)
C3A C 0.1072(3) -0.2142(7) 0.3064(4)
C3J C 0.2142(7) -0.1072(3) 0.1936(4)
C3B C 0.2142(7) -0.6786(6) 0.3064(4)
C3I C 0.1072(3) -0.6786(6) 0.1936(4)
C3C C 0.3214(6) 0.1072(3) 0.3064(4)
C3H C 0.3214(6) 0.2142(7) 0.1936(4)
C3L C 0.3214(6) 0.1072(3) 0.6936(4)
C3W C 0.3214(6) 0.2142(7) 0.8064(4)
C3O C 0.6786(6) -0.1072(3) 0.6936(4)
C3T C 0.6786(6) -0.2142(7) 0.8064(4)
H3K H 0.7133 -0.2331 0.1550
H3A H 0.0536 -0.2331 0.3450
H3J H 0.2331 -0.0536 0.1550
H3B H 0.2331 -0.7133 0.3450
H3I H 0.0536 -0.7133 0.1550
H3C H 0.2867 0.0536 0.3450
H3H H 0.2867 0.2331 0.1550
H3L H 0.2867 0.0536 0.6550
H3W H 0.2867 0.2331 0.8450
H3O H 0.7133 -0.0536 0.6550
H3T H 0.7133 -0.2331 0.8450
C4A C 0.1351(6) -0.1351(9) 0.2500
C4B C 0.1351(9) -0.7298(7) 0.2500
C4C C 0.2702(7) 0.1351(6) 0.2500
C4L C 0.2702(7) 0.1351(6) 0.7500
C4O C 0.7298(7) -0.1351(6) 0.7500
H4A H 0.0996 -0.0997 0.2500
H4B H 0.0997 -0.8007 0.2500
H4C H 0.1993 0.0996 0.2500
H4L H 0.1993 0.0996 0.7500
H4O H 0.8007 -0.0996 0.7500
N1A N 0.2391(2) -0.2390(4) 0.2500
N1B N 0.2390(4) -0.5219(4) 0.2500
N1C N 0.4781(4) 0.2391(2) 0.2500
N1L N 0.4781(4) 0.2391(2) 0.7500
N1O N 0.5219(4) -0.2391(2) 0.7500
N1D N 0.7609(2) 0.2390(4) 0.2500
N1E N 0.7610(4) 0.5219(4) 0.2500
O5C O 0.3512(4) -0.1346(3) 0.5000
O5K O 0.6488(4) -0.4858(5) 0.0000
O5H O 0.3512(4) -0.5142(5) 0.0000
O5A O -0.1346(3) -0.4858(5) 0.5000
O5D O 0.1346(3) -0.5142(5) 0.5000
H7O H 0.6527 0.1656 0.5447
H7C H 0.3473 -0.1656 0.4553
H7L H 0.3473 -0.1656 0.5447
H7K H 0.6527 -0.5129 0.0447
H7T H 0.6527 -0.5129 -0.0447
H7H H 0.3473 -0.4871 0.0447
H7W H 0.3473 -0.4871 -0.0447
H7A H -0.1656 -0.5129 0.4553
H7P H -0.1656 -0.5129 0.5447
H7D H 0.1656 -0.4871 0.4553
H7M H 0.1656 -0.4871 0.5447
O4 O 1.0000 1.0000 0.5000
H5? H 1.0000 1.0000 0.4451
H6? H 0.9492 0.9492 0.4767
loop_
_geom_bond_atom_site_label_1
_geom_bond_atom_site_label_2
_geom_bond_site_symmetry_1
_geom_bond_site_symmetry_2
O1 H1 1_555 1_555
H2 O1 1_555 1_555
Co1 O3 1_555 1_555
Dy1 O2 1_555 1_555
O2 C1 1_555 1_555
C1 C2 1_555 1_555
C2 C3 1_555 1_555
O3 C1 1_555 1_555
C3 H3 1_555 1_555
C4 C3 1_555 1_555
H4 C4 1_555 1_555
N1 Dy1 1_555 1_555
O5 Co1 1_555 1_555
H7 O5 1_555 1_555
Co1H O3K 1_555 1_555
Co1A O3A 1_555 1_555
Co1G O3J 1_555 1_555
Co1B O3B 1_555 1_555
Co1F O3I 1_555 1_555
Co1H_2 O3H 1_555 1_555
Co1H_3 O3W 1_555 1_555
Co1H_4 O3T 1_555 1_555
Dy1C O2C 1_555 1_555
Dy1L O2L 1_555 1_555
Dy1O O2O 1_555 1_555
O2K Dy1 1_555 1_555
O2A Dy1 1_555 1_555
O2J Dy1 1_555 1_555
O2B Dy1 1_555 1_555
O2I Dy1 1_555 1_555
O2C C1C 1_555 1_555
O2H Dy1C 1_555 1_555
O2L C1L 1_555 1_555
O2W Dy1L 1_555 1_555
O2O C1O 1_555 1_555
O2T Dy1O 1_555 1_555
O2D Dy1C 1_555 1_555
O2E Dy1C 1_555 1_555
O2F Dy1C 1_555 1_555
O2G Dy1C 1_555 1_555
C1K O2K 1_555 1_555
C1A O2A 1_555 1_555
C1J O2J 1_555 1_555
C1B O2B 1_555 1_555
C1I O2I 1_555 1_555
C1C C2C 1_555 1_555
C1H O2H 1_555 1_555
C1L C2L 1_555 1_555
C1W O2W 1_555 1_555
C1O C2O 1_555 1_555
C1T O2T 1_555 1_555
C2K N1 1_555 1_555
C2A C1A 1_555 1_555
C2J C1J 1_555 1_555
C2B C1B 1_555 1_555
C2I C1I 1_555 1_555
C2C C3C 1_555 1_555
C2H C1H 1_555 1_555
C2L C3L 1_555 1_555
C2W C1W 1_555 1_555
C2O C3O 1_555 1_555
C2T C1T 1_555 1_555
O3K C1K 1_555 1_555
O3A C1A 1_555 1_555
O3J C1J 1_555 1_555
O3B C1B 1_555 1_555
O3I C1I 1_555 1_555
O3C Co1 1_555 1_555
O3H C1H 1_555 1_555
O3L Co1 1_555 1_555
O3W C1W 1_555 1_555
O3O Co1 1_555 1_555
O3T C1T 1_555 1_555
O3H_2 Co1H 1_555 1_555
O3W_2 Co1H 1_555 1_555
O3T_2 Co1H 1_555 1_555
O3D Co1A 1_555 1_555
O3M Co1A 1_555 1_555
O3P Co1A 1_555 1_555
C3K C4 1_555 1_555
C3A C2A 1_555 1_555
C3J C2J 1_555 1_555
C3B C2B 1_555 1_555
C3I C2I 1_555 1_555
C3C H3C 1_555 1_555
C3H C2H 1_555 1_555
C3L H3L 1_555 1_555
C3W C2W 1_555 1_555
C3O H3O 1_555 1_555
C3T C2T 1_555 1_555
H3K C3K 1_555 1_555
H3A C3A 1_555 1_555
H3J C3J 1_555 1_555
H3B C3B 1_555 1_555
H3I C3I 1_555 1_555
H3H C3H 1_555 1_555
H3W C3W 1_555 1_555
H3T C3T 1_555 1_555
C4A C3A 1_555 1_555
C4B C3B 1_555 1_555
C4C C3C 1_555 1_555
C4L C3L 1_555 1_555
C4O C3O 1_555 1_555
H4A C4A 1_555 1_555
H4B C4B 1_555 1_555
H4C C4C 1_555 1_555
H4L C4L 1_555 1_555
H4O C4O 1_555 1_555
N1A Dy1 1_555 1_555
N1B Dy1 1_555 1_555
N1C Dy1C 1_555 1_555
N1L Dy1L 1_555 1_555
N1O Dy1O 1_555 1_555
N1D Dy1C 1_555 1_555
N1E Dy1C 1_555 1_555
O5C Co1 1_555 1_555
O5K Co1H 1_555 1_555
O5H Co1H 1_555 1_555
O5A Co1A 1_555 1_555
O5D Co1A 1_555 1_555
H7O O5 1_555 1_555
H7C O5C 1_555 1_555
H7L O5C 1_555 1_555
H7K O5K 1_555 1_555
H7T O5K 1_555 1_555
H7H O5H 1_555 1_555
H7W O5H 1_555 1_555
H7A O5A 1_555 1_555
H7P O5A 1_555 1_555
H7D O5D 1_555 1_555
H7M O5D 1_555 1_555
C2 N1 1_555 1_555
C1K C2K 1_555 1_555
C1C O3C 1_555 1_555
C1L O3L 1_555 1_555
C1O O3O 1_555 1_555
C2K C3K 1_555 1_555
C2A N1A 1_555 1_555
C2J N1A 1_555 1_555
C2B N1B 1_555 1_555
C2I N1B 1_555 1_555
C2C N1C 1_555 1_555
C2H N1C 1_555 1_555
C2L N1L 1_555 1_555
C2W N1L 1_555 1_555
C2O N1O 1_555 1_555
C2T N1O 1_555 1_555
C3J C4A 1_555 1_555
C3I C4B 1_555 1_555
C3H C4C 1_555 1_555
C3W C4L 1_555 1_555
C3T C4O 1_555 1_555

#END
