
#######################################################################
#
#                 Cambridge Crystallographic Data Centre
#                                CCDC 
#
#######################################################################
#
# If this CIF has been generated from an entry in the Cambridge 
# Structural Database, then it will include bibliographic, chemical, 
# crystal, experimental, refinement or atomic coordinate data resulting 
# from the CCDC's data processing and validation procedures.
#
#######################################################################

data_TAPHOJ
_symmetry_cell_setting           monoclinic
_symmetry_space_group_name_H-M   'P 21/n'
_symmetry_Int_Tables_number      14
_space_group_name_Hall           '-P 2yn'
loop_
_symmetry_equiv_pos_site_id
_symmetry_equiv_pos_as_xyz
1 x,y,z
2 1/2-x,1/2+y,1/2-z
3 -x,-y,-z
4 1/2+x,1/2-y,1/2+z
_cell_length_a                   9.8561(7)
_cell_length_b                   11.9538(9)
_cell_length_c                   22.8463(16)
_cell_angle_alpha                90
_cell_angle_beta                 95.506(1)
_cell_angle_gamma                90
_cell_volume                     2679.28
loop_
_atom_site_label
_atom_site_type_symbol
_atom_site_fract_x
_atom_site_fract_y
_atom_site_fract_z
Zn1 Zn 0.26535(3) 0.78010(3) 0.036655(14)
S1 S -0.19425(8) 0.43039(6) -0.12673(3)
O1 O 0.0986(2) 0.70672(17) 0.00681(9)
O5 O -0.0365(2) 0.83405(19) 0.04397(10)
O6 O -0.5384(2) 0.73887(18) 0.03209(9)
O7 O -0.6202(2) 0.63719(19) -0.04492(10)
O9 O -0.2789(2) 0.33279(16) -0.11618(9)
O10 O -0.0495(2) 0.40802(18) -0.12091(10)
O11 O -0.2407(2) 0.48335(18) -0.18281(9)
N1 N 0.2699(3) 0.9154(2) 0.09300(11)
N2 N 0.4208(3) 1.2329(2) 0.23230(11)
N3 N 0.6306(3) 1.3922(2) 0.27093(11)
H1 H 0.594(4) 1.452(3) 0.2574(15)
N4 N 0.7626(3) 1.6174(2) 0.45707(11)
C1 C 0.3626(3) 1.0121(2) 0.17960(13)
H2 H 0.4234 1.0113 0.2145
C2 C 0.3533(3) 0.9200(2) 0.14289(13)
H3 H 0.4087 0.8568 0.1535
C3 C 0.1905(3) 1.0050(3) 0.07941(14)
H4 H 0.1292 1.0030 0.0447
C4 C 0.1947(3) 1.1002(3) 0.11409(14)
H5 H 0.1372 1.1620 0.1029
C5 C 0.2831(3) 1.1054(2) 0.16537(13)
C6 C 0.2852(3) 1.2064(3) 0.20445(15)
H6 H 0.2501 1.2716 0.1809
H7 H 0.2232 1.1935 0.2354
C7 C 0.4092(3) 1.3078(2) 0.28239(13)
H8 H 0.3520 1.2720 0.3104
H9 H 0.3640 1.3781 0.2684
C8 C 0.5467(3) 1.3341(3) 0.31323(13)
H10 H 0.5925 1.2642 0.3275
H11 H 0.5366 1.3829 0.3476
C9 C 0.5024(4) 1.2867(3) 0.19015(14)
H12 H 0.4555 1.3553 0.1746
H13 H 0.5116 1.2355 0.1567
C10 C 0.6430(3) 1.3171(3) 0.21872(14)
H14 H 0.6929 1.2482 0.2316
H15 H 0.6952 1.3558 0.1898
C11 C 0.7688(3) 1.4274(3) 0.29743(15)
H16 H 0.8135 1.4721 0.2683
H17 H 0.8250 1.3598 0.3065
C12 C 0.7641(3) 1.4952(3) 0.35272(14)
C13 C 0.8348(3) 1.4585(3) 0.40435(14)
H18 H 0.8857 1.3909 0.4051
C14 C 0.8303(3) 1.5218(3) 0.45521(14)
H19 H 0.8784 1.4952 0.4905
C15 C 0.6923(3) 1.5953(3) 0.35414(13)
H20 H 0.6426 1.6234 0.3196
C16 C -0.2248(3) 0.5317(2) -0.07258(12)
C17 C -0.3572(3) 0.5576(2) -0.06169(13)
H21 H -0.4318 0.5166 -0.0803
C18 C -0.3796(3) 0.6447(2) -0.02294(12)
C19 C -0.5239(3) 0.6742(2) -0.01226(13)
C20 C -0.2692(3) 0.7050(2) 0.00316(13)
H22 H -0.2844 0.7651 0.0289
C21 C -0.1374(3) 0.6783(2) -0.00802(12)
C22 C -0.0169(3) 0.7468(3) 0.01750(13)
C23 C -0.1150(3) 0.5900(2) -0.04582(13)
H23 H -0.0248 0.5702 -0.0531
C24 C 0.6943(3) 1.6532(3) 0.40641(13)
H24 H 0.6452 1.7215 0.4068
Zn1_2 Zn -0.73465(3) 0.78010(3) 0.036655(14)
Zn1B Zn -0.26535(3) 0.21990(3) -0.036655(14)
Zn1C Zn 0.76535(3) 1.71990(3) 0.536655(14)
O6_2 O 0.4616(2) 0.73887(18) 0.03209(9)
O9B O 0.2789(2) 0.66721(16) 0.11618(9)
N4C N 0.2626(3) 0.8826(2) -0.04293(11)
O2 O 0.492(2) 0.5812(18) 0.2212(9)
O3 O 0.625(2) 0.6717(19) 0.1399(9)
O4 O 0.7831(16) 0.5033(14) 0.1227(9)
O8 O 0.5176(4) 0.8695(3) 0.30497(17)
O12? O 0.795(2) 0.4976(17) 0.1113(10)
loop_
_geom_bond_atom_site_label_1
_geom_bond_atom_site_label_2
_geom_bond_site_symmetry_1
_geom_bond_site_symmetry_2
Zn1 O1 1_555 1_555
S1 O9 1_555 1_555
O1 C22 1_555 1_555
O5 C22 1_555 1_555
O6 C19 1_555 1_555
O7 C19 1_555 1_555
O9 Zn1B 1_555 1_555
O10 S1 1_555 1_555
O11 S1 1_555 1_555
N1 Zn1 1_555 1_555
N2 C6 1_555 1_555
N3 H1 1_555 1_555
N4 C14 1_555 1_555
C1 H2 1_555 1_555
C2 N1 1_555 1_555
H3 C2 1_555 1_555
C3 N1 1_555 1_555
H4 C3 1_555 1_555
C4 C3 1_555 1_555
H5 C4 1_555 1_555
C5 C1 1_555 1_555
C6 C5 1_555 1_555
H6 C6 1_555 1_555
H7 C6 1_555 1_555
C7 N2 1_555 1_555
H8 C7 1_555 1_555
H9 C7 1_555 1_555
C8 N3 1_555 1_555
H10 C8 1_555 1_555
H11 C8 1_555 1_555
C9 N2 1_555 1_555
H12 C9 1_555 1_555
H13 C9 1_555 1_555
C10 N3 1_555 1_555
H14 C10 1_555 1_555
H15 C10 1_555 1_555
C11 N3 1_555 1_555
H16 C11 1_555 1_555
H17 C11 1_555 1_555
C12 C11 1_555 1_555
C13 C12 1_555 1_555
H18 C13 1_555 1_555
C14 C13 1_555 1_555
H19 C14 1_555 1_555
C15 C12 1_555 1_555
H20 C15 1_555 1_555
C16 S1 1_555 1_555
C17 C16 1_555 1_555
H21 C17 1_555 1_555
C18 C17 1_555 1_555
C19 C18 1_555 1_555
C20 C18 1_555 1_555
H22 C20 1_555 1_555
C21 C20 1_555 1_555
C22 C21 1_555 1_555
C23 C16 1_555 1_555
H23 C23 1_555 1_555
C24 N4 1_555 1_555
H24 C24 1_555 1_555
Zn1_2 O6 1_555 1_555
Zn1C N4 1_555 1_555
O6_2 Zn1 1_555 1_555
O9B Zn1 1_555 1_555
N4C Zn1 1_555 1_555
C1 C2 1_555 1_555
C4 C5 1_555 1_555
C7 C8 1_555 1_555
C9 C10 1_555 1_555
C15 C24 1_555 1_555
C21 C23 1_555 1_555

#END
