
#######################################################################
#
#                 Cambridge Crystallographic Data Centre
#                                CCDC 
#
#######################################################################
#
# If this CIF has been generated from an entry in the Cambridge 
# Structural Database, then it will include bibliographic, chemical, 
# crystal, experimental, refinement or atomic coordinate data resulting 
# from the CCDC's data processing and validation procedures.
#
#######################################################################

data_TAPXIT01
_symmetry_cell_setting           orthorhombic
_symmetry_space_group_name_H-M   'C m c 21'
_symmetry_Int_Tables_number      36
_space_group_name_Hall           'C 2n -2'
loop_
_symmetry_equiv_pos_site_id
_symmetry_equiv_pos_as_xyz
1 x,y,z
2 -x,-y,1/2+z
3 x,-y,1/2+z
4 -x,y,z
5 1/2+x,1/2+y,z
6 1/2-x,1/2-y,1/2+z
7 1/2+x,1/2-y,1/2+z
8 1/2-x,1/2+y,z
_cell_length_a                   26.6753(16)
_cell_length_b                   15.5727(16)
_cell_length_c                   7.1782(5)
_cell_angle_alpha                90
_cell_angle_beta                 90
_cell_angle_gamma                90
_cell_volume                     2981.87
loop_
_atom_site_label
_atom_site_type_symbol
_atom_site_fract_x
_atom_site_fract_y
_atom_site_fract_z
Yb1 Yb 0.5000 0.13360(3) 0.2314(2)
Na1 Na 0.0000 0.3205(5) 0.2252(19)
O1 O 0.4397(3) 0.2483(5) 0.225(3)
O2 O 0.4568(4) 0.2091(8) 0.4708(15)
O3 O 0.2696(4) 0.4511(8) 0.6482(17)
O4 O 0.0537(3) 0.5328(7) 0.3314(15)
O5 O 0.0400(3) 0.3994(6) 0.4538(12)
O6 O 0.0000 0.1473(17) 0.268(7)
C1 C 0.4290(4) 0.2523(10) 0.3661(18)
C2 C 0.3871(4) 0.2997(8) 0.4337(17)
C3 C 0.3525(5) 0.3384(10) 0.3141(18)
H1 H 0.3568 0.3325 0.1862
C4 C 0.3792(7) 0.3144(16) 0.626(2)
H2 H 0.4027 0.2920 0.7083
C5 C 0.3122(5) 0.3848(11) 0.379(2)
H3 H 0.2895 0.4092 0.2959
C6 C 0.3384(6) 0.3603(13) 0.704(4)
H4 H 0.3336 0.3672 0.8312
C7 C 0.3061(4) 0.3944(10) 0.568(2)
C8 C 0.2218(6) 0.4530(12) 0.554(2)
C9 C 0.2018(5) 0.5353(9) 0.5291(19)
H5 H 0.2204 0.5853 0.5427
C10 C 0.1946(5) 0.3711(10) 0.548(2)
H6 H 0.2091 0.3182 0.5755
C11 C 0.1524(5) 0.5349(9) 0.483(2)
H7 H 0.1365 0.5872 0.4618
C12 C 0.1448(5) 0.3815(9) 0.496(2)
H8 H 0.1247 0.3330 0.4824
C13 C 0.1245(5) 0.4597(9) 0.4650(18)
C14 C 0.0685(4) 0.4676(7) 0.4093(16)
Yb1_2 Yb -0.5000 0.13360(3) 0.2314(2)
Yb1D Yb 0.0000 0.63360(3) 0.2314(2)
Yb1E Yb 0.0000 0.36640(3) 0.7314(2)
Na1E Na -0.5000 0.1795(5) 0.7252(19)
Na1E_2 Na 0.5000 0.1795(5) 0.7252(19)
O1C O -0.4397(3) 0.2483(5) 0.225(3)
O1C_2 O 0.5603(3) 0.2483(5) 0.225(3)
O2C O -0.4568(4) 0.2091(8) 0.4708(15)
O2C_2 O 0.5432(4) 0.2091(8) 0.4708(15)
O2E O 0.0432(4) 0.2909(8) -0.0292(15)
O2F O -0.0432(4) 0.2909(8) -0.0292(15)
O3C O -0.2696(4) 0.4511(8) 0.6482(17)
O4C O -0.0537(3) 0.5328(7) 0.3314(15)
O4D O 0.5537(3) 0.0328(7) 0.3314(15)
O4G O 0.4463(3) 0.0328(7) 0.3314(15)
O5C O -0.0400(3) 0.3994(6) 0.4538(12)
O5E O 0.4600(3) 0.1006(6) -0.0462(12)
O5F O 0.5400(3) 0.1006(6) -0.0462(12)
C1C C -0.4290(4) 0.2523(10) 0.3661(18)
C1C_2 C 0.5710(4) 0.2523(10) 0.3661(18)
C2C C -0.3871(4) 0.2997(8) 0.4337(17)
C3C C -0.3525(5) 0.3384(10) 0.3141(18)
H1C H -0.3568 0.3325 0.1862
C4C C -0.3792(7) 0.3144(16) 0.626(2)
H2C H -0.4027 0.2920 0.7083
C5C C -0.3122(5) 0.3848(11) 0.379(2)
H3C H -0.2895 0.4092 0.2959
C6C C -0.3384(6) 0.3603(13) 0.704(4)
H4C H -0.3336 0.3672 0.8312
C7C C -0.3061(4) 0.3944(10) 0.568(2)
C8C C -0.2218(6) 0.4530(12) 0.554(2)
C9C C -0.2018(5) 0.5353(9) 0.5291(19)
H5C H -0.2204 0.5853 0.5427
C10C C -0.1946(5) 0.3711(10) 0.548(2)
H6C H -0.2091 0.3182 0.5755
C11C C -0.1524(5) 0.5349(9) 0.483(2)
H7C H -0.1365 0.5872 0.4618
C12C C -0.1448(5) 0.3815(9) 0.496(2)
H8C H -0.1247 0.3330 0.4824
C13C C -0.1245(5) 0.4597(9) 0.4650(18)
C14C C -0.0685(4) 0.4676(7) 0.4093(16)
loop_
_geom_bond_atom_site_label_1
_geom_bond_atom_site_label_2
_geom_bond_site_symmetry_1
_geom_bond_site_symmetry_2
Yb1 O1 1_555 1_555
Na1 O5 1_555 1_555
O1 C1 1_555 1_555
O2 Yb1 1_555 1_555
O3 C7 1_555 1_555
O4 C14 1_555 1_555
O5 C14 1_555 1_555
O6 Na1 1_555 1_555
C1 O2 1_555 1_555
C2 C1 1_555 1_555
C3 C2 1_555 1_555
H1 C3 1_555 1_555
C4 C2 1_555 1_555
H2 C4 1_555 1_555
C5 C3 1_555 1_555
H3 C5 1_555 1_555
C6 C4 1_555 1_555
H4 C6 1_555 1_555
C7 C5 1_555 1_555
C8 O3 1_555 1_555
C9 C8 1_555 1_555
H5 C9 1_555 1_555
C10 C8 1_555 1_555
H6 C10 1_555 1_555
C11 C9 1_555 1_555
H7 C11 1_555 1_555
C12 C10 1_555 1_555
H8 C12 1_555 1_555
C13 C11 1_555 1_555
C14 C13 1_555 1_555
Yb1_2 O1C 1_555 1_555
Yb1D O4 1_555 1_555
Yb1E O5 1_555 1_555
Na1E O2C 1_555 1_555
Na1E_2 O2 1_555 1_555
O1C C1C 1_555 1_555
O1C_2 Yb1 1_555 1_555
O2C Yb1_2 1_555 1_555
O2C_2 Yb1 1_555 1_555
O2E Na1 1_555 1_555
O2F Na1 1_555 1_555
O3C C7C 1_555 1_555
O4C Yb1D 1_555 1_555
O4D Yb1 1_555 1_555
O4G Yb1 1_555 1_555
O5C Na1 1_555 1_555
O5E Yb1 1_555 1_555
O5F Yb1 1_555 1_555
C1C O2C 1_555 1_555
C1C_2 O1C_2 1_555 1_555
C2C C1C 1_555 1_555
C3C C2C 1_555 1_555
H1C C3C 1_555 1_555
C4C C2C 1_555 1_555
H2C C4C 1_555 1_555
C5C C3C 1_555 1_555
H3C C5C 1_555 1_555
C6C C4C 1_555 1_555
H4C C6C 1_555 1_555
C7C C5C 1_555 1_555
C8C O3C 1_555 1_555
C9C C8C 1_555 1_555
H5C C9C 1_555 1_555
C10C C8C 1_555 1_555
H6C C10C 1_555 1_555
C11C C9C 1_555 1_555
H7C C11C 1_555 1_555
C12C C10C 1_555 1_555
H8C C12C 1_555 1_555
C13C C11C 1_555 1_555
C14C O4C 1_555 1_555
C6 C7 1_555 1_555
C12 C13 1_555 1_555
Yb1E O5C 1_555 1_555
Na1E_2 O2C_2 1_555 1_555
O2C_2 C1C_2 1_555 1_555
O5C C14C 1_555 1_555
C6C C7C 1_555 1_555
C12C C13C 1_555 1_555
C13C C14C 1_555 1_555

#END
