
#######################################################################
#
#                 Cambridge Crystallographic Data Centre
#                                CCDC 
#
#######################################################################
#
# If this CIF has been generated from an entry in the Cambridge 
# Structural Database, then it will include bibliographic, chemical, 
# crystal, experimental, refinement or atomic coordinate data resulting 
# from the CCDC's data processing and validation procedures.
#
#######################################################################

data_TAWQAJ
_symmetry_cell_setting           orthorhombic
_symmetry_space_group_name_H-M   'C 2 2 21'
_symmetry_Int_Tables_number      20
_space_group_name_Hall           'C 2n 2'
loop_
_symmetry_equiv_pos_site_id
_symmetry_equiv_pos_as_xyz
1 x,y,z
2 -x,-y,1/2+z
3 x,-y,-z
4 -x,y,1/2-z
5 1/2+x,1/2+y,z
6 1/2-x,1/2-y,1/2+z
7 1/2+x,1/2-y,-z
8 1/2-x,1/2+y,1/2-z
_cell_length_a                   9.707(3)
_cell_length_b                   16.140(3)
_cell_length_c                   19.883(7)
_cell_angle_alpha                90
_cell_angle_beta                 90
_cell_angle_gamma                90
_cell_volume                     3115.09
loop_
_atom_site_label
_atom_site_type_symbol
_atom_site_fract_x
_atom_site_fract_y
_atom_site_fract_z
Fe1 Fe 0.0000 0.1706(1) 0.2500
Mn1 Mn 0.0000 -0.1708(1) 0.2500
O1 O -0.0610(6) 0.0672(4) 0.3094(3)
O2 O -0.0660(5) -0.0716(3) 0.3092(3)
O3 O -0.1155(7) 0.2535(3) 0.3090(3)
O4 O -0.1796(6) 0.1829(4) 0.1918(3)
O5 O -0.3212(6) 0.3179(4) 0.3095(3)
O6 O -0.3832(7) 0.2470(3) 0.1928(3)
C1 C -0.0359(3) -0.0023(8) 0.2844(2)
C2 C -0.2317(10) 0.2714(6) 0.2848(5)
C3 C -0.2682(10) 0.2310(6) 0.2170(5)
C1C C 0.0359(3) -0.0023(8) 0.2156(2)
O1C O 0.0610(6) 0.0672(4) 0.1906(3)
O2C O 0.0660(5) -0.0716(3) 0.1908(3)
O3C O 0.1155(7) 0.2535(3) 0.1910(3)
O4C O 0.1796(6) 0.1829(4) 0.3082(3)
O5C O 0.3212(6) 0.3179(4) 0.1905(3)
O6C O 0.3832(7) 0.2470(3) 0.3072(3)
C2C C 0.2317(10) 0.2714(6) 0.2152(5)
C3C C 0.2682(10) 0.2310(6) 0.2830(5)
O5D O 0.1788(6) -0.1821(4) 0.3095(3)
O5G O -0.1788(6) -0.1821(4) 0.1905(3)
O6D O 0.1168(7) -0.2530(3) 0.1928(3)
O6G O -0.1168(7) -0.2530(3) 0.3072(3)
Mn1D Mn -0.5000 0.3292(1) 0.2500
Mn1D_2 Mn 0.5000 0.3292(1) 0.2500
N1 N 0.3953(4) 0.5000 0.0000
C4 C 0.3094(12) 0.5276(6) 0.0604(5)
C5 C 0.1955(12) 0.4692(8) 0.0811(6)
C6 C 0.1166(4) 0.5048(6) 0.1399(2)
C7 C 0.0207(15) 0.4360(9) 0.1192(7)
C8 C -0.0784(19) 0.4237(13) 0.1769(9)
C14 C 0.4768(14) 0.5761(8) 0.0242(6)
C15 C 0.5849(10) 0.6090(6) -0.0238(4)
C16 C 0.6848(12) 0.6677(7) 0.0102(7)
C17 C 0.7843(13) 0.7161(7) -0.0328(7)
C18 C 0.8689(16) 0.6579(8) -0.0756(7)
H1 H 0.3706(12) 0.5352(6) 0.0985(5)
H2 H 0.2688(12) 0.5810(6) 0.0502(5)
H3 H 0.2346(12) 0.4161(8) 0.0937(6)
H4 H 0.1335(12) 0.4604(8) 0.0436(6)
H6 H 0.0812(4) 0.5605(6) 0.1333(2)
H7 H 0.0721(15) 0.3855(9) 0.1107(7)
H8 H -0.0288(15) 0.4510(9) 0.0786(7)
H9 H -0.0331(44) 0.3941(66) 0.2124(27)
H10 H -0.1565(64) 0.3925(65) 0.1616(18)
H11 H -0.1085(94) 0.4767(13) 0.1932(39)
H17 H 0.1463(4) 0.5186(6) 0.1851(2)
H23 H 0.4119(14) 0.6203(8) 0.0336(6)
H24 H 0.5217(14) 0.5620(8) 0.0662(6)
H25 H 0.5396(10) 0.6377(6) -0.0605(4)
H27 H 0.6311(12) 0.7072(7) 0.0360(7)
H28 H 0.7385(12) 0.6357(7) 0.0421(7)
H30 H 0.7337(13) 0.7540(7) -0.0615(7)
H31 H 0.9467(54) 0.6872(16) -0.0937(36)
H32 H 0.8133(32) 0.6371(45) -0.1117(28)
H33 H 0.9006(78) 0.6125(29) -0.0485(14)
H41 H 0.8056(19) 0.7612(13) -0.0013(11)
C4B C 0.3094(12) 0.4724(6) -0.0604(5)
C5B C 0.1955(12) 0.5308(8) -0.0811(6)
C6B C 0.1166(4) 0.4952(6) -0.1399(2)
C7B C 0.0207(15) 0.5640(9) -0.1192(7)
C8B C -0.0784(19) 0.5763(13) -0.1769(9)
H9B H -0.0331(44) 0.6059(66) -0.2124(27)
H10B H -0.1565(64) 0.6075(65) -0.1616(18)
H11B H -0.1085(94) 0.5233(13) -0.1932(39)
H7B H 0.0721(15) 0.6145(9) -0.1107(7)
H8B H -0.0288(15) 0.5490(9) -0.0786(7)
H6B H 0.0812(4) 0.4395(6) -0.1333(2)
H17B H 0.1463(4) 0.4814(6) -0.1851(2)
H3B H 0.2346(12) 0.5839(8) -0.0937(6)
H4B H 0.1335(12) 0.5396(8) -0.0436(6)
H1B H 0.3706(12) 0.4648(6) -0.0985(5)
H2B H 0.2688(12) 0.4190(6) -0.0502(5)
C14B C 0.4768(14) 0.4239(8) -0.0242(6)
C15B C 0.5849(10) 0.3910(6) 0.0238(4)
C16B C 0.6848(12) 0.3323(7) -0.0102(7)
C17B C 0.7843(13) 0.2839(7) 0.0328(7)
C18B C 0.8689(16) 0.3421(8) 0.0756(7)
H31B H 0.9467(54) 0.3128(16) 0.0937(36)
H32B H 0.8133(32) 0.3629(45) 0.1117(28)
H33B H 0.9006(78) 0.3875(29) 0.0485(14)
H30B H 0.7337(13) 0.2460(7) 0.0615(7)
H41B H 0.8056(19) 0.2388(13) 0.0013(11)
H27B H 0.6311(12) 0.2928(7) -0.0360(7)
H28B H 0.7385(12) 0.3643(7) -0.0421(7)
H25B H 0.5396(10) 0.3623(6) 0.0605(4)
H23B H 0.4119(14) 0.3797(8) -0.0336(6)
H24B H 0.5217(14) 0.4380(8) -0.0662(6)
C9? C 0.3023(15) 0.4662(8) 0.0559(7)
C10? C 0.2156(12) 0.5342(6) 0.0861(5)
C11? C 0.1166(4) 0.5048(6) 0.1399(2)
C12? C 0.0021(12) 0.5601(8) 0.1145(5)
C13? C -0.0947(13) 0.5849(8) 0.1702(6)
C19? C 0.4896(12) 0.5689(6) -0.0267(5)
C20? C 0.5887(24) 0.6091(15) 0.0219(8)
C21? C 0.6668(19) 0.6706(11) -0.0212(9)
C22? C 0.7631(19) 0.7174(13) 0.0248(11)
C23? C 0.8766(19) 0.6701(11) 0.0597(10)
H5? H 0.1599(4) 0.4979(6) 0.1835(2)
H12? H 0.2427(15) 0.4236(8) 0.0376(7)
H13? H 0.3587(15) 0.4412(8) 0.0906(7)
H14? H 0.1634(12) 0.5607(6) 0.0505(5)
H15? H 0.2763(12) 0.5756(6) 0.1055(5)
H16? H 0.0950(4) 0.4463(6) 0.1366(2)
H18? H 0.0417(12) 0.6094(8) 0.0945(5)
H19? H -0.0492(12) 0.5311(8) 0.0798(5)
H20? H -0.1433(55) 0.5369(12) 0.1861(25)
H21? H -0.1595(52) 0.6248(36) 0.1535(12)
H22? H -0.0430(17) 0.6087(42) 0.2065(17)
H26? H 0.6357(10) 0.5628(6) -0.0427(4)
H29? H 0.8448(13) 0.7485(7) -0.0042(7)
H34? H 0.5429(12) 0.5462(6) -0.0636(5)
H35? H 0.4314(12) 0.6121(6) -0.0453(5)
H36? H 0.6506(24) 0.5684(15) 0.0413(8)
H37? H 0.5397(24) 0.6370(15) 0.0579(8)
H38? H 0.7187(19) 0.6418(18) -0.0558(9)
H39? H 0.6032(19) 0.7085(11) -0.0429(9)
H40? H 0.7075(19) 0.7438(13) 0.0592(11)
H42? H 0.9384(72) 0.7085(12) 0.0810(50)
H43? H 0.9263(76) 0.6378(56) 0.0273(14)
H44? H 0.8374(22) 0.6341(56) 0.0930(43)
loop_
_geom_bond_atom_site_label_1
_geom_bond_atom_site_label_2
_geom_bond_site_symmetry_1
_geom_bond_site_symmetry_2
Fe1 O1 1_555 1_555
Mn1 O2 1_555 1_555
O1 C1 1_555 1_555
O2 C1 1_555 1_555
O3 Fe1 1_555 1_555
O4 Fe1 1_555 1_555
O5 C2 1_555 1_555
O6 C3 1_555 1_555
C1 C1C 1_555 1_555
C2 O3 1_555 1_555
C3 O4 1_555 1_555
N1 C4 1_555 1_555
C4 C5 1_555 1_555
C5 C6 1_555 1_555
C6 C7 1_555 1_555
C7 C8 1_555 1_555
C8 H9 1_555 1_555
C14 N1 1_555 1_555
C15 C14 1_555 1_555
C16 C15 1_555 1_555
C17 C16 1_555 1_555
C18 C17 1_555 1_555
H1 C4 1_555 1_555
H2 C4 1_555 1_555
H3 C5 1_555 1_555
H4 C5 1_555 1_555
H6 C6 1_555 1_555
H7 C7 1_555 1_555
H8 C7 1_555 1_555
H10 C8 1_555 1_555
H11 C8 1_555 1_555
H17 C6 1_555 1_555
H23 C14 1_555 1_555
H24 C14 1_555 1_555
H25 C15 1_555 1_555
H27 C16 1_555 1_555
H28 C16 1_555 1_555
H30 C17 1_555 1_555
H31 C18 1_555 1_555
H32 C18 1_555 1_555
H33 C18 1_555 1_555
H41 C17 1_555 1_555
C1C O1C 1_555 1_555
O1C Fe1 1_555 1_555
O2C Mn1 1_555 1_555
C4B N1 1_555 1_555
C5B C4B 1_555 1_555
C6B C5B 1_555 1_555
C7B C6B 1_555 1_555
C8B C7B 1_555 1_555
H9B C8B 1_555 1_555
H10B C8B 1_555 1_555
H11B C8B 1_555 1_555
H7B C7B 1_555 1_555
H8B C7B 1_555 1_555
H6B C6B 1_555 1_555
H17B C6B 1_555 1_555
H3B C5B 1_555 1_555
H4B C5B 1_555 1_555
H1B C4B 1_555 1_555
H2B C4B 1_555 1_555
C14B N1 1_555 1_555
C15B C14B 1_555 1_555
C16B C15B 1_555 1_555
C17B C16B 1_555 1_555
C18B C17B 1_555 1_555
H31B C18B 1_555 1_555
H32B C18B 1_555 1_555
H33B C18B 1_555 1_555
H30B C17B 1_555 1_555
H41B C17B 1_555 1_555
H27B C16B 1_555 1_555
H28B C16B 1_555 1_555
H25B C15B 1_555 1_555
H23B C14B 1_555 1_555
H24B C14B 1_555 1_555
O3C Fe1 1_555 1_555
O4C Fe1 1_555 1_555
O5C C2C 1_555 1_555
O6C C3C 1_555 1_555
C2C O3C 1_555 1_555
C3C O4C 1_555 1_555
O5D Mn1 1_555 1_555
O5G Mn1 1_555 1_555
O6D Mn1 1_555 1_555
O6G Mn1 1_555 1_555
Mn1D O5 1_555 1_555
Mn1D_2 O5C 1_555 1_555
O6 Mn1D 1_555 1_555
C2 C3 1_555 1_555
C1C O2C 1_555 1_555
O6C Mn1D_2 1_555 1_555
C2C C3C 1_555 1_555

#END
