
#######################################################################
#
#                 Cambridge Crystallographic Data Centre
#                                CCDC 
#
#######################################################################
#
# If this CIF has been generated from an entry in the Cambridge 
# Structural Database, then it will include bibliographic, chemical, 
# crystal, experimental, refinement or atomic coordinate data resulting 
# from the CCDC's data processing and validation procedures.
#
#######################################################################

data_TEBWII
_symmetry_cell_setting           monoclinic
_symmetry_space_group_name_H-M   'P 21/c'
_symmetry_Int_Tables_number      14
_space_group_name_Hall           '-P 2ybc'
loop_
_symmetry_equiv_pos_site_id
_symmetry_equiv_pos_as_xyz
1 x,y,z
2 -x,1/2+y,1/2-z
3 -x,-y,-z
4 x,1/2-y,1/2+z
_cell_length_a                   19.247(4)
_cell_length_b                   22.482(5)
_cell_length_c                   16.021(3)
_cell_angle_alpha                90
_cell_angle_beta                 90.43(3)
_cell_angle_gamma                90
_cell_volume                     6932.27
loop_
_atom_site_label
_atom_site_type_symbol
_atom_site_fract_x
_atom_site_fract_y
_atom_site_fract_z
Mo1 Mo -0.99139(5) 0.99480(4) 0.17832(6)
Mo2 Mo -0.90768(5) 1.00084(4) -0.01933(6)
Mo3 Mo -0.91772(5) 0.87613(4) 0.10584(6)
Mo4 Mo -0.97545(5) 1.11942(4) 0.05382(6)
Mo5 Mo -0.40853(5) 0.49859(4) 0.02519(6)
Mo6 Mo -0.51473(6) 0.50995(4) 0.17634(6)
Mo7 Mo -0.58194(5) 0.62948(4) 0.09441(6)
Mo8 Mo -0.46853(5) 0.61706(4) -0.05698(6)
O1 O -0.8408(4) 0.8438(4) 0.1258(6)
O2 O -0.9659(5) 1.0449(4) 0.2510(5)
O3 O -1.0537(4) 0.9537(4) 0.2248(5)
O5 O -0.9762(4) 0.8322(3) 0.1570(5)
O6 O -0.8481(4) 1.0410(3) -0.0705(5)
O7 O -0.8609(4) 0.9436(3) 0.0272(5)
O8 O -0.9417(4) 0.8499(3) -0.0064(5)
O9 O -0.9147(4) 0.9419(3) 0.1801(5)
O10 O -0.9137(4) 1.1558(3) -0.0030(5)
O11 O -0.9744(4) 1.1555(3) 0.1465(5)
O12 O -1.0010(3) 0.9487(3) 0.0502(4)
O13 O -1.0513(4) 1.0471(3) 0.1089(4)
O14 O -0.9206(4) 1.0481(3) 0.0810(4)
O15 O -0.6582(5) 0.6651(4) 0.1032(6)
O16 O -0.5507(4) 0.6512(3) -0.0165(5)
O17 O -0.5454(5) 0.4627(4) 0.2502(5)
O18 O -0.3498(4) 0.5388(3) 0.0791(5)
O19 O -0.5892(4) 0.5657(3) 0.1698(5)
O20 O -0.5247(4) 0.6726(3) 0.1498(5)
O21 O -0.4530(5) 0.5504(4) 0.2258(5)
O22 O -0.6386(4) 0.5609(3) 0.0148(5)
O23 O -0.4660(5) 0.6516(3) -0.1521(5)
O24 O -0.4086(4) 0.6530(3) 0.0016(5)
O25 O -0.4990(4) 0.5519(3) 0.0474(4)
O26 O -0.4171(4) 0.5439(3) -0.0781(4)
O27 O -0.4544(3) 0.4543(3) 0.1147(4)
Cu1 Cu -0.99593(7) 0.75108(6) 0.24690(9)
Cu2 Cu -0.49909(7) 0.75013(6) 0.24300(8)
N1 N -0.5897(4) 0.7948(4) 0.2412(6)
N2 N -0.7057(5) 0.8086(4) 0.2462(7)
C1 C -0.7089(9) 0.9132(8) 0.2817(15)
H1 H -0.6864 0.9329 0.3286
H2 H -0.7557 0.9029 0.2982
C2 C -0.7120(13) 0.9564(9) 0.2062(18)
H3 H -0.6652 0.9659 0.1888
H4 H -0.7356 0.9371 0.1599
C3 C -0.7487(12) 1.0118(10) 0.2270(15)
H5 H -0.7968 1.0020 0.2386
H6 H -0.7286 1.0277 0.2779
C4 C -0.7478(12) 1.0561(9) 0.1667(15)
H7 H -0.7658 1.0402 0.1145
H8 H -0.7002 1.0685 0.1576
C5 C -0.7897(9) 1.1080(10) 0.1915(17)
H9 H -0.8345 1.0938 0.2102
H10 H -0.7979 1.1322 0.1423
C6 C -0.7594(8) 1.1477(8) 0.2593(13)
H11 H -0.7924 1.1789 0.2722
H12 H -0.7519 1.1243 0.3094
C7 C -0.6298(7) 1.2250(7) 0.1586(9)
H13 H -0.6124 1.2462 0.1135
C8 C -0.6363(7) 1.1829(6) 0.2767(9)
H14 H -0.6264 1.1676 0.3294
C9 C -0.5395(7) 0.6442(5) 0.3477(7)
H15 H -0.5198 0.6176 0.3101
C10 C -0.5712(7) 0.7229(5) 0.4034(7)
H16 H -0.5801 0.7627 0.4148
C11 C -0.6308(8) 0.6805(7) 0.5263(8)
H17 H -0.6076 0.6572 0.5691
H18 H -0.6344 0.7212 0.5460
C12 C -0.6991(10) 0.6567(9) 0.5105(10)
H19 H -0.7263 0.6609 0.5609
H20 H -0.6948 0.6145 0.4991
C13 C -0.7380(10) 0.6847(10) 0.4404(11)
H21 H -0.7126 0.6775 0.3893
H22 H -0.7826 0.6648 0.4350
C14 C -0.7509(7) 0.7496(8) 0.4471(9)
H23 H -0.7717 0.7633 0.3952
H24 H -0.7067 0.7697 0.4538
C15 C -0.7979(9) 0.7675(9) 0.5189(10)
H25 H -0.8331 0.7370 0.5250
H26 H -0.7702 0.7676 0.5697
C16 C -0.8337(12) 0.8258(8) 0.5124(10)
H27 H -0.8000 0.8568 0.5008
H28 H -0.8560 0.8351 0.5649
C17 C -0.9144(7) 0.7787(5) 0.4020(7)
H29 H -0.9062 0.7388 0.4141
C18 C -0.9515(8) 0.8580(6) 0.3488(8)
H30 H -0.9756 0.8843 0.3144
C19 C -1.1260(7) 0.7729(6) 0.3423(8)
H31 H -1.1086 0.7522 0.3881
C20 C -1.1335(7) 0.8118(6) 0.2253(9)
H32 H -1.1249 0.8249 0.1713
C21 C -1.2574(8) 0.8456(7) 0.2384(12)
H33 H -1.2910 0.8139 0.2309
H34 H -1.2511 0.8647 0.1847
C22 C -1.2857(8) 0.8899(7) 0.2983(15)
H35 H -1.3283 0.9064 0.2754
H36 H -1.2972 0.8697 0.3499
C23 C -1.2380(11) 0.9382(8) 0.317(2)
H37 H -1.2295 0.9382 0.3767
H38 H -1.1942 0.9292 0.2903
C24 C -1.2563(13) 0.9937(9) 0.295(3)
H39 H -1.3025 1.0008 0.3166
H40 H -1.2604 0.9943 0.2343
C25 C -1.2110(11) 1.0464(8) 0.3203(17)
H41 H -1.2336 1.0709 0.3619
H42 H -1.1661 1.0335 0.3415
C26 C -1.2047(8) 1.0780(7) 0.2391(12)
H43 H -1.1783 1.0536 0.2007
H44 H -1.2506 1.0840 0.2152
C27 C -1.1602(6) 1.2277(5) 0.2685(6)
H45 H -1.1704 1.2676 0.2775
C28 C -1.1029(6) 1.1484(5) 0.2481(8)
H46 H -1.0677 1.1209 0.2390
C29 C -1.0684(7) 0.6543(5) 0.1552(7)
H47 H -1.0782 0.6335 0.2039
C30 C -1.0345(9) 0.7176(6) 0.0691(8)
H48 H -1.0153 0.7523 0.0477
C31 C -1.1241(8) 0.5851(6) 0.0517(10)
H49 H -1.1672 0.5974 0.0251
H50 H -1.1358 0.5620 0.1007
C32 C -1.0840(9) 0.5453(7) -0.0090(11)
H51 H -1.1137 0.5127 -0.0265
H52 H -1.0723 0.5682 -0.0582
C33 C -1.0179(6) 0.5203(6) 0.0295(8)
H53 H -0.9870 0.5528 0.0444
H54 H -1.0292 0.4988 0.0801
C34 C -0.4330(6) 0.8517(5) 0.1529(7)
H55 H -0.4329 0.8758 0.2001
C35 C -0.4509(9) 0.7811(6) 0.0689(8)
H56 H -0.4657 0.7448 0.0473
C36 C -0.3712(7) 0.9204(6) 0.0566(8)
H57 H -0.3270 0.9098 0.0320
H58 H -0.3617 0.9439 0.1061
C37 C -0.4124(8) 0.9581(7) -0.0054(9)
H59 H -0.3848 0.9922 -0.0212
H60 H -0.4213 0.9348 -0.0553
C38 C -0.4799(8) 0.9791(6) 0.0287(9)
H61 H -0.4711 0.9994 0.0812
H62 H -0.5088 0.9448 0.0404
C39 C -0.6546(6) 0.7701(5) 0.2343(7)
H63 H -0.6620 0.7301 0.2223
C40 C -0.6019(6) 0.8509(5) 0.2575(8)
H64 H -0.5682 0.8801 0.2649
N3 N -0.6710(5) 0.8595(4) 0.2617(7)
N4 N -0.6906(6) 1.1995(7) 0.1589(9)
N5 N -0.6940(6) 1.1744(6) 0.2339(9)
N6 N -0.5946(5) 1.2170(4) 0.2319(6)
N7 N -0.5369(5) 0.7029(4) 0.3376(5)
N8 N -0.5902(6) 0.6789(5) 0.4491(6)
N9 N -0.5714(7) 0.6273(5) 0.4134(7)
N10 N -0.9557(5) 0.7983(4) 0.3400(6)
N11 N -0.9108(7) 0.8760(5) 0.4097(7)
N12 N -0.8874(7) 0.8234(5) 0.4432(6)
N13 N -1.0885(5) 0.7819(5) 0.2727(6)
N14 N -1.1917(6) 0.8201(5) 0.2655(8)
N15 N -1.1886(6) 0.7954(6) 0.3409(8)
N16 N -1.1696(6) 1.1367(4) 0.2498(7)
N17 N -1.2064(5) 1.1873(4) 0.2612(7)
N18 N -1.0941(5) 1.2060(4) 0.2616(6)
N19 N -1.0348(5) 0.7047(4) 0.1512(6)
N20 N -1.0631(9) 0.6777(6) 0.0230(8)
N21 N -1.0865(6) 0.6376(4) 0.0779(6)
N22 N -0.4589(4) 0.7975(4) 0.1485(5)
N23 N -0.4199(8) 0.8222(5) 0.0247(6)
N24 N -0.4078(5) 0.8659(4) 0.0809(6)
Mo1B Mo -1.00861(5) 1.00520(4) -0.17832(6)
Mo2B Mo -1.09232(5) 0.99916(4) 0.01933(6)
Mo3B Mo -1.08228(5) 1.12387(4) -0.10584(6)
Mo4B Mo -1.02455(5) 0.88058(4) -0.05382(6)
Mo5B Mo -0.59147(5) 0.50141(4) -0.02519(6)
Mo5A Mo -0.59147(5) -0.00141(4) 0.47481(6)
Mo6A Mo -0.48527(6) 0.00995(4) 0.32366(6)
Mo6B Mo -0.48527(6) 0.49005(4) -0.17634(6)
Mo7A Mo -0.41806(5) 0.12948(4) 0.40559(6)
Mo7B Mo -0.41806(5) 0.37052(4) -0.09441(6)
Mo8B Mo -0.53147(5) 0.38294(4) 0.05698(6)
Mo8A Mo -0.53147(5) 0.11706(4) 0.55698(6)
O1B O -1.1592(4) 1.1562(4) -0.1258(6)
O2B O -1.0341(5) 0.9551(4) -0.2510(5)
O3B O -0.9463(4) 1.0463(4) -0.2248(5)
O5B O -1.0238(4) 1.1678(3) -0.1570(5)
O6B O -1.1519(4) 0.9590(3) 0.0705(5)
O7B O -1.1391(4) 1.0564(3) -0.0272(5)
O8B O -1.0583(4) 1.1501(3) 0.0064(5)
O9B O -1.0853(4) 1.0581(3) -0.1801(5)
O10B O -1.0863(4) 0.8442(3) 0.0030(5)
O11B O -1.0256(4) 0.8445(3) -0.1465(5)
O12B O -0.9990(3) 1.0513(3) -0.0502(4)
O13B O -0.9487(4) 0.9529(3) -0.1089(4)
O14B O -1.0794(4) 0.9519(3) -0.0810(4)
O15A O -0.3418(5) 0.1651(4) 0.3968(6)
O16A O -0.4493(4) 0.1512(3) 0.5165(5)
O16B O -0.4493(4) 0.3488(3) 0.0165(5)
O17A O -0.4546(5) -0.0373(4) 0.2498(5)
O18B O -0.6502(4) 0.4612(3) -0.0791(5)
O19A O -0.4108(4) 0.0657(3) 0.3302(5)
O20A O -0.4753(4) 0.1726(3) 0.3502(5)
O21A O -0.5470(5) 0.0504(4) 0.2742(5)
O22B O -0.3614(4) 0.4391(3) -0.0148(5)
O22A O -0.3614(4) 0.0609(3) 0.4852(5)
O23B O -0.5340(5) 0.3484(3) 0.1521(5)
O24B O -0.5914(4) 0.3470(3) -0.0016(5)
O25B O -0.5010(4) 0.4481(3) -0.0474(4)
O25A O -0.5010(4) 0.0519(3) 0.4526(4)
O26B O -0.5829(4) 0.4561(3) 0.0781(4)
O26C O -0.4171(4) -0.0439(3) 0.4219(4)
O27B O -0.5456(3) 0.5457(3) -0.1147(4)
O27A O -0.5456(3) -0.0457(3) 0.3853(4)
Cu1B Cu -1.00407(7) 1.24892(6) -0.24690(9)
Cu1A Cu -1.00407(7) 1.25108(6) 0.25310(9)
Cu1B_2 Cu -1.00407(7) 0.24892(6) -0.24690(9)
Cu1A_2 Cu -1.00407(7) 0.25108(6) 0.25310(9)
Cu2A Cu -0.50091(7) 0.25013(6) 0.25700(8)
Cu2A_2 Cu -0.50091(7) 1.25013(6) 0.25700(8)
Cu2B Cu -0.50091(7) 1.24987(6) -0.24300(8)
Cu2B_2 Cu -1.50091(7) 1.24987(6) -0.24300(8)
N1A N -0.4103(4) 0.2948(4) 0.2588(6)
N2A N -0.2943(5) 0.3086(4) 0.2538(7)
C1A C -0.2911(9) 0.4132(8) 0.2183(15)
H1A H -0.3136 0.4329 0.1714
H2A H -0.2443 0.4029 0.2018
C2A C -0.2880(13) 0.4564(9) 0.2938(18)
H3A H -0.3348 0.4659 0.3112
H4A H -0.2644 0.4371 0.3401
C3A C -0.2513(12) 0.5118(10) 0.2730(15)
H5A H -0.2032 0.5020 0.2614
H6A H -0.2714 0.5277 0.2221
C4A C -0.2522(12) 0.5561(9) 0.3333(15)
H7A H -0.2342 0.5402 0.3855
H8A H -0.2998 0.5685 0.3424
C5A C -0.2103(9) 0.6080(10) 0.3085(17)
H9A H -0.1655 0.5938 0.2898
H10A H -0.2021 0.6322 0.3577
C6A C -0.2406(8) 0.6477(8) 0.2407(13)
H11A H -0.2076 0.6789 0.2278
H12A H -0.2481 0.6243 0.1906
C7A C -0.3702(7) 0.7250(7) 0.3414(9)
H13A H -0.3876 0.7462 0.3865
C8A C -0.3637(7) 0.6829(6) 0.2233(9)
H14A H -0.3736 0.6676 0.1706
C9B C -1.4605(7) 1.3558(5) -0.3477(7)
H15B H -1.4802 1.3824 -0.3101
C10B C -1.4288(7) 1.2771(5) -0.4034(7)
H16B H -1.4199 1.2373 -0.4148
C11B C -1.3692(8) 1.3195(7) -0.5263(8)
H17B H -1.3924 1.3428 -0.5691
H18B H -1.3656 1.2788 -0.5460
C12B C -1.3009(10) 1.3433(9) -0.5105(10)
H19B H -1.2737 1.3391 -0.5609
H20B H -1.3052 1.3855 -0.4991
C13B C -1.2620(10) 1.3153(10) -0.4404(11)
H21B H -1.2874 1.3225 -0.3893
H22B H -1.2174 1.3352 -0.4350
C14B C -1.2491(7) 1.2504(8) -0.4471(9)
H23B H -1.2283 1.2367 -0.3952
H24B H -1.2933 1.2303 -0.4538
C15B C -1.2021(9) 1.2325(9) -0.5189(10)
H25B H -1.1669 1.2630 -0.5250
H26B H -1.2298 1.2324 -0.5697
C16B C -1.1663(12) 1.1742(8) -0.5124(10)
H27B H -1.2000 1.1432 -0.5008
H28B H -1.1440 1.1649 -0.5649
C17B C -1.0856(7) 1.2213(5) -0.4020(7)
H29B H -1.0938 1.2612 -0.4141
C18B C -1.0485(8) 1.1420(6) -0.3488(8)
H30B H -1.0244 1.1157 -0.3144
C19A C -0.8740(7) 0.2729(6) 0.1577(8)
H31A H -0.8914 0.2522 0.1119
C20A C -0.8665(7) 0.3118(6) 0.2747(9)
H32A H -0.8751 0.3249 0.3287
C21A C -0.7426(8) 0.3456(7) 0.2616(12)
H33A H -0.7090 0.3139 0.2691
H34A H -0.7489 0.3647 0.3153
C22A C -0.7143(8) 0.3899(7) 0.2017(15)
H35A H -0.6717 0.4064 0.2246
H36A H -0.7028 0.3697 0.1501
C23A C -0.7620(11) 0.4382(8) 0.183(2)
H37A H -0.7705 0.4382 0.1233
H38A H -0.8058 0.4292 0.2097
C24A C -0.7437(13) 0.4937(9) 0.205(3)
H39A H -0.6975 0.5008 0.1834
H40A H -0.7396 0.4943 0.2657
C25A C -0.7890(11) 0.5464(8) 0.1797(17)
H41A H -0.7664 0.5709 0.1381
H42A H -0.8339 0.5335 0.1585
C26A C -0.7953(8) 0.5780(7) 0.2609(12)
H43A H -0.8217 0.5536 0.2993
H44A H -0.7494 0.5840 0.2848
C27A C -0.8398(6) 0.7277(5) 0.2315(6)
H45A H -0.8296 0.7676 0.2225
C28A C -0.8971(6) 0.6484(5) 0.2519(8)
H46A H -0.9323 0.6209 0.2610
C29B C -0.9316(7) 0.3457(5) -0.1552(7)
H47B H -0.9218 0.3665 -0.2039
C30B C -0.9655(9) 0.2824(6) -0.0691(8)
H48B H -0.9847 0.2477 -0.0477
C31B C -0.8759(8) 0.4149(6) -0.0517(10)
H49B H -0.8328 0.4026 -0.0251
H50B H -0.8642 0.4380 -0.1007
C32B C -0.9160(9) 0.4547(7) 0.0090(11)
H51B H -0.8863 0.4873 0.0265
H52B H -0.9277 0.4318 0.0582
C33B C -0.9821(6) 0.4797(6) -0.0295(8)
H53B H -1.0130 0.4472 -0.0444
H54B H -0.9708 0.5012 -0.0801
C34B C -0.5670(6) 1.1483(5) -0.1529(7)
H55B H -0.5671 1.1242 -0.2001
C35B C -0.5491(9) 1.2189(6) -0.0689(8)
H56B H -0.5343 1.2552 -0.0473
C36B C -0.6288(7) 1.0796(6) -0.0566(8)
H57B H -0.6730 1.0902 -0.0320
H58B H -0.6383 1.0561 -0.1061
C37B C -0.5876(8) 1.0419(7) 0.0054(9)
H59B H -0.6152 1.0078 0.0212
H60B H -0.5787 1.0652 0.0553
C38B C -0.5201(8) 1.0209(6) -0.0287(9)
H61B H -0.5289 1.0006 -0.0812
H62B H -0.4912 1.0552 -0.0404
C39A C -0.3454(6) 0.2701(5) 0.2657(7)
H63A H -0.3380 0.2301 0.2777
C40A C -0.3981(6) 0.3509(5) 0.2425(8)
H64A H -0.4318 0.3801 0.2351
N3A N -0.3290(5) 0.3595(4) 0.2383(7)
N4A N -0.3094(6) 0.6995(7) 0.3411(9)
N5A N -0.3060(6) 0.6744(6) 0.2661(9)
N6A N -0.4054(5) 0.7170(4) 0.2681(6)
N6_2 N -0.5946(5) 0.2170(4) 0.2319(6)
N7B N -1.4631(5) 1.2971(4) -0.3376(5)
N7A N -0.4631(5) 0.2029(4) 0.1624(5)
N8B N -1.4098(6) 1.3211(5) -0.4491(6)
N9B N -1.4286(7) 1.3727(5) -0.4134(7)
N10B N -1.0443(5) 1.2017(4) -0.3400(6)
N11B N -1.0892(7) 1.1240(5) -0.4097(7)
N12B N -1.1126(7) 1.1766(5) -0.4432(6)
N13A N -0.9115(5) 0.2819(5) 0.2273(6)
N13B N -0.9115(5) 1.2181(5) -0.2727(6)
N14A N -0.8083(6) 0.3201(5) 0.2345(8)
N15A N -0.8114(6) 0.2954(6) 0.1591(8)
N16A N -0.8304(6) 0.6367(4) 0.2502(7)
N17A N -0.7936(5) 0.6873(4) 0.2388(7)
N18A N -0.9059(5) 0.7060(4) 0.2384(6)
N18C N -1.0941(5) 1.2940(4) -0.2384(6)
N19B N -0.9652(5) 0.2953(4) -0.1512(6)
N19B_2 N -0.9652(5) 1.2953(4) -0.1512(6)
N20B N -0.9369(9) 0.3223(6) -0.0230(8)
N21B N -0.9135(6) 0.3624(4) -0.0779(6)
N22B N -0.5411(4) 1.2025(4) -0.1485(5)
N22A N -0.5411(4) 0.2975(4) 0.3515(5)
N23B N -0.5801(8) 1.1778(5) -0.0247(6)
N24B N -0.5922(5) 1.1341(4) -0.0809(6)
O4 O -1.2340(9) 0.8164(12) 0.0195(16)
loop_
_geom_bond_atom_site_label_1
_geom_bond_atom_site_label_2
_geom_bond_site_symmetry_1
_geom_bond_site_symmetry_2
Mo1 O2 1_555 1_555
Mo2 O6 1_555 1_555
Mo3 O1 1_555 1_555
Mo4 O10 1_555 1_555
Mo5 O18 1_555 1_555
Mo6 O17 1_555 1_555
Mo7 O15 1_555 1_555
Mo8 O16 1_555 1_555
O3 Mo1 1_555 1_555
O5 Mo3 1_555 1_555
O7 Mo2 1_555 1_555
O8 Mo3 1_555 1_555
O9 Mo1 1_555 1_555
O11 Mo4 1_555 1_555
O12 Mo1 1_555 1_555
O13 Mo1 1_555 1_555
O14 Mo1 1_555 1_555
O16 Mo7 1_555 1_555
O19 Mo6 1_555 1_555
O20 Mo7 1_555 1_555
O21 Mo6 1_555 1_555
O22 Mo7 1_555 1_555
O23 Mo8 1_555 1_555
O24 Mo8 1_555 1_555
O25 Mo5 1_555 1_555
O26 Mo5 1_555 1_555
O27 Mo5 1_555 1_555
Cu1 O5 1_555 1_555
Cu2 O20 1_555 1_555
N1 Cu2 1_555 1_555
N2 C39 1_555 1_555
C1 H1 1_555 1_555
H2 C1 1_555 1_555
C2 C1 1_555 1_555
H3 C2 1_555 1_555
H4 C2 1_555 1_555
C3 C2 1_555 1_555
H5 C3 1_555 1_555
H6 C3 1_555 1_555
C4 C3 1_555 1_555
H7 C4 1_555 1_555
H8 C4 1_555 1_555
C5 C4 1_555 1_555
H9 C5 1_555 1_555
H10 C5 1_555 1_555
C6 C5 1_555 1_555
H11 C6 1_555 1_555
H12 C6 1_555 1_555
C7 H13 1_555 1_555
C8 H14 1_555 1_555
C9 H15 1_555 1_555
C10 H16 1_555 1_555
C11 H17 1_555 1_555
H18 C11 1_555 1_555
C12 C11 1_555 1_555
H19 C12 1_555 1_555
H20 C12 1_555 1_555
C13 C12 1_555 1_555
H21 C13 1_555 1_555
H22 C13 1_555 1_555
C14 C13 1_555 1_555
H23 C14 1_555 1_555
H24 C14 1_555 1_555
C15 C14 1_555 1_555
H25 C15 1_555 1_555
H26 C15 1_555 1_555
C16 C15 1_555 1_555
H27 C16 1_555 1_555
H28 C16 1_555 1_555
C17 H29 1_555 1_555
C18 H30 1_555 1_555
C19 H31 1_555 1_555
C20 H32 1_555 1_555
C21 H33 1_555 1_555
H34 C21 1_555 1_555
C22 C21 1_555 1_555
H35 C22 1_555 1_555
H36 C22 1_555 1_555
C23 C22 1_555 1_555
H37 C23 1_555 1_555
H38 C23 1_555 1_555
C24 C23 1_555 1_555
H39 C24 1_555 1_555
H40 C24 1_555 1_555
C25 C24 1_555 1_555
H41 C25 1_555 1_555
H42 C25 1_555 1_555
C26 C25 1_555 1_555
H43 C26 1_555 1_555
H44 C26 1_555 1_555
C27 H45 1_555 1_555
C28 H46 1_555 1_555
C29 H47 1_555 1_555
C30 H48 1_555 1_555
C31 H49 1_555 1_555
H50 C31 1_555 1_555
C32 C31 1_555 1_555
H51 C32 1_555 1_555
H52 C32 1_555 1_555
C33 C32 1_555 1_555
H53 C33 1_555 1_555
H54 C33 1_555 1_555
C34 H55 1_555 1_555
C35 H56 1_555 1_555
C36 H57 1_555 1_555
H58 C36 1_555 1_555
C37 C36 1_555 1_555
H59 C37 1_555 1_555
H60 C37 1_555 1_555
C38 C37 1_555 1_555
H61 C38 1_555 1_555
H62 C38 1_555 1_555
C39 N1 1_555 1_555
H63 C39 1_555 1_555
C40 N1 1_555 1_555
H64 C40 1_555 1_555
N3 N2 1_555 1_555
N4 C7 1_555 1_555
N5 C6 1_555 1_555
N6 C7 1_555 1_555
N7 Cu2 1_555 1_555
N8 C10 1_555 1_555
N9 C9 1_555 1_555
N10 Cu1 1_555 1_555
N11 C18 1_555 1_555
N12 C16 1_555 1_555
N13 Cu1 1_555 1_555
N14 C20 1_555 1_555
N15 C19 1_555 1_555
N16 C26 1_555 1_555
N17 C27 1_555 1_555
N18 C27 1_555 1_555
N19 Cu1 1_555 1_555
N20 C30 1_555 1_555
N21 C29 1_555 1_555
N22 Cu2 1_555 1_555
N23 C35 1_555 1_555
N24 C34 1_555 1_555
Mo1B O2B 1_555 1_555
Mo2B O12 1_555 1_555
Mo3B O1B 1_555 1_555
Mo4B O8 1_555 1_555
Mo5B O22 1_555 1_555
Mo5A O25A 1_555 1_555
Mo6A O17A 1_555 1_555
Mo6B O26 1_555 1_555
Mo7A O15A 1_555 1_555
Mo7B O16B 1_555 1_555
Mo8B O27 1_555 1_555
Mo8A O16A 1_555 1_555
O3B Mo1B 1_555 1_555
O5B Mo3B 1_555 1_555
O6B Mo2B 1_555 1_555
O7B Mo2B 1_555 1_555
O8B Mo4 1_555 1_555
O9B Mo1B 1_555 1_555
O10B Mo4B 1_555 1_555
O11B Mo4B 1_555 1_555
O12B Mo2 1_555 1_555
O13B Mo2 1_555 1_555
O14B Mo1B 1_555 1_555
O16A Mo7A 1_555 1_555
O16B Mo8B 1_555 1_555
O18B Mo5B 1_555 1_555
O19A Mo6A 1_555 1_555
O20A Mo7A 1_555 1_555
O21A Mo6A 1_555 1_555
O22B Mo5 1_555 1_555
O22A Mo7A 1_555 1_555
O23B Mo8B 1_555 1_555
O24B Mo8B 1_555 1_555
O25B Mo5 1_555 1_555
O25A Mo6A 1_555 1_555
O26B Mo6 1_555 1_555
O26C Mo6A 1_555 1_555
O27B Mo8 1_555 1_555
O27A Mo5A 1_555 1_555
Cu1B O5B 1_555 1_555
Cu1A N18 1_555 1_555
Cu1B_2 N19B 1_555 1_555
Cu1A_2 N13A 1_555 1_555
Cu2A O20A 1_555 1_555
Cu2A_2 N6 1_555 1_555
Cu2B N22B 1_555 1_555
Cu2B_2 N7B 1_555 1_555
N1A Cu2A 1_555 1_555
N2A C39A 1_555 1_555
C1A H1A 1_555 1_555
H2A C1A 1_555 1_555
C2A C1A 1_555 1_555
H3A C2A 1_555 1_555
H4A C2A 1_555 1_555
C3A C2A 1_555 1_555
H5A C3A 1_555 1_555
H6A C3A 1_555 1_555
C4A C3A 1_555 1_555
H7A C4A 1_555 1_555
H8A C4A 1_555 1_555
C5A C4A 1_555 1_555
H9A C5A 1_555 1_555
H10A C5A 1_555 1_555
C6A C5A 1_555 1_555
H11A C6A 1_555 1_555
H12A C6A 1_555 1_555
C7A H13A 1_555 1_555
C8A H14A 1_555 1_555
C9B H15B 1_555 1_555
C10B H16B 1_555 1_555
C11B H17B 1_555 1_555
H18B C11B 1_555 1_555
C12B C11B 1_555 1_555
H19B C12B 1_555 1_555
H20B C12B 1_555 1_555
C13B C12B 1_555 1_555
H21B C13B 1_555 1_555
H22B C13B 1_555 1_555
C14B C13B 1_555 1_555
H23B C14B 1_555 1_555
H24B C14B 1_555 1_555
C15B C14B 1_555 1_555
H25B C15B 1_555 1_555
H26B C15B 1_555 1_555
C16B C15B 1_555 1_555
H27B C16B 1_555 1_555
H28B C16B 1_555 1_555
C17B H29B 1_555 1_555
C18B H30B 1_555 1_555
C19A H31A 1_555 1_555
C20A H32A 1_555 1_555
C21A H33A 1_555 1_555
H34A C21A 1_555 1_555
C22A C21A 1_555 1_555
H35A C22A 1_555 1_555
H36A C22A 1_555 1_555
C23A C22A 1_555 1_555
H37A C23A 1_555 1_555
H38A C23A 1_555 1_555
C24A C23A 1_555 1_555
H39A C24A 1_555 1_555
H40A C24A 1_555 1_555
C25A C24A 1_555 1_555
H41A C25A 1_555 1_555
H42A C25A 1_555 1_555
C26A C25A 1_555 1_555
H43A C26A 1_555 1_555
H44A C26A 1_555 1_555
C27A H45A 1_555 1_555
C28A H46A 1_555 1_555
C29B H47B 1_555 1_555
C30B H48B 1_555 1_555
C31B H49B 1_555 1_555
H50B C31B 1_555 1_555
C32B C31B 1_555 1_555
H51B C32B 1_555 1_555
H52B C32B 1_555 1_555
C33B C33 1_555 1_555
H53B C33B 1_555 1_555
H54B C33B 1_555 1_555
C34B H55B 1_555 1_555
C35B H56B 1_555 1_555
C36B H57B 1_555 1_555
H58B C36B 1_555 1_555
C37B C36B 1_555 1_555
H59B C37B 1_555 1_555
H60B C37B 1_555 1_555
C38B C38 1_555 1_555
H61B C38B 1_555 1_555
H62B C38B 1_555 1_555
C39A N1A 1_555 1_555
H63A C39A 1_555 1_555
C40A N1A 1_555 1_555
H64A C40A 1_555 1_555
N3A N2A 1_555 1_555
N4A C7A 1_555 1_555
N5A C6A 1_555 1_555
N6A Cu2 1_555 1_555
N6_2 Cu2A 1_555 1_555
N7B C9B 1_555 1_555
N7A Cu2A 1_555 1_555
N8B C10B 1_555 1_555
N9B C9B 1_555 1_555
N10B Cu1B 1_555 1_555
N11B C18B 1_555 1_555
N12B C16B 1_555 1_555
N13A C19A 1_555 1_555
N13B Cu1B 1_555 1_555
N14A C20A 1_555 1_555
N15A C19A 1_555 1_555
N16A C26A 1_555 1_555
N17A C27A 1_555 1_555
N18A Cu1 1_555 1_555
N18C Cu1B 1_555 1_555
N19B C29B 1_555 1_555
N19B_2 Cu1B 1_555 1_555
N20B C30B 1_555 1_555
N21B C29B 1_555 1_555
N22B C34B 1_555 1_555
N22A Cu2A 1_555 1_555
N23B C35B 1_555 1_555
N24B C34B 1_555 1_555
Mo2 O12 1_555 1_555
Mo2 O14 1_555 1_555
Mo3 O7 1_555 1_555
Mo3 O9 1_555 1_555
Mo3 O12 1_555 1_555
Mo4 O13 1_555 1_555
Mo4 O14 1_555 1_555
Mo4 O12B 1_555 1_555
Mo6 O25 1_555 1_555
Mo6 O27 1_555 1_555
Mo7 O19 1_555 1_555
Mo7 O25 1_555 1_555
Mo8 O25 1_555 1_555
Mo8 O26 1_555 1_555
O12 Mo4B 1_555 1_555
O13 Mo2B 1_555 1_555
O25 Mo5B 1_555 1_555
C1 N3 1_555 1_555
C8 N5 1_555 1_555
C8 N6 1_555 1_555
C9 N7 1_555 1_555
C10 N7 1_555 1_555
C11 N8 1_555 1_555
C17 N10 1_555 1_555
C17 N12 1_555 1_555
C18 N10 1_555 1_555
C19 N13 1_555 1_555
C20 N13 1_555 1_555
C21 N14 1_555 1_555
C28 N16 1_555 1_555
C28 N18 1_555 1_555
C29 N19 1_555 1_555
C30 N19 1_555 1_555
C31 N21 1_555 1_555
C34 N22 1_555 1_555
C35 N22 1_555 1_555
C36 N24 1_555 1_555
C40 N3 1_555 1_555
N4 N5 1_555 1_555
N8 N9 1_555 1_555
N11 N12 1_555 1_555
N14 N15 1_555 1_555
N16 N17 1_555 1_555
N20 N21 1_555 1_555
N23 N24 1_555 1_555
Mo1B O12B 1_555 1_555
Mo1B O13B 1_555 1_555
Mo2B O12B 1_555 1_555
Mo2B O14B 1_555 1_555
Mo3B O7B 1_555 1_555
Mo3B O8B 1_555 1_555
Mo3B O9B 1_555 1_555
Mo3B O12B 1_555 1_555
Mo4B O13B 1_555 1_555
Mo4B O14B 1_555 1_555
Mo5B O25B 1_555 1_555
Mo5B O26B 1_555 1_555
Mo5B O27B 1_555 1_555
Mo6A O27A 1_555 1_555
Mo6B O25B 1_555 1_555
Mo6B O27B 1_555 1_555
Mo7A O19A 1_555 1_555
Mo7A O25A 1_555 1_555
Mo7B O22B 1_555 1_555
Mo7B O25B 1_555 1_555
Mo8B O25B 1_555 1_555
Mo8B O26B 1_555 1_555
Mo8A O25A 1_555 1_555
C1A N3A 1_555 1_555
C7A N6A 1_555 1_555
C8A N5A 1_555 1_555
C8A N6A 1_555 1_555
C10B N7B 1_555 1_555
C11B N8B 1_555 1_555
C17B N10B 1_555 1_555
C17B N12B 1_555 1_555
C18B N10B 1_555 1_555
C20A N13A 1_555 1_555
C21A N14A 1_555 1_555
C27A N18A 1_555 1_555
C28A N16A 1_555 1_555
C28A N18A 1_555 1_555
C30B N19B 1_555 1_555
C31B N21B 1_555 1_555
C32B C33B 1_555 1_555
C35B N22B 1_555 1_555
C36B N24B 1_555 1_555
C37B C38B 1_555 1_555
C40A N3A 1_555 1_555
N4A N5A 1_555 1_555
N8B N9B 1_555 1_555
N11B N12B 1_555 1_555
N14A N15A 1_555 1_555
N16A N17A 1_555 1_555
N20B N21B 1_555 1_555
N23B N24B 1_555 1_555

#END
