
#######################################################################
#
#                 Cambridge Crystallographic Data Centre
#                                CCDC 
#
#######################################################################
#
# If this CIF has been generated from an entry in the Cambridge 
# Structural Database, then it will include bibliographic, chemical, 
# crystal, experimental, refinement or atomic coordinate data resulting 
# from the CCDC's data processing and validation procedures.
#
#######################################################################

data_TEJGIA01
_symmetry_cell_setting           monoclinic
_symmetry_space_group_name_H-M   'P 21/n'
_symmetry_Int_Tables_number      14
_space_group_name_Hall           '-P 2yn'
loop_
_symmetry_equiv_pos_site_id
_symmetry_equiv_pos_as_xyz
1 x,y,z
2 1/2-x,1/2+y,1/2-z
3 -x,-y,-z
4 1/2+x,1/2-y,1/2+z
_cell_length_a                   10.2750(5)
_cell_length_b                   11.2876(6)
_cell_length_c                   22.2272(11)
_cell_angle_alpha                90
_cell_angle_beta                 97.3210(10)
_cell_angle_gamma                90
_cell_volume                     2556.9
loop_
_atom_site_label
_atom_site_type_symbol
_atom_site_fract_x
_atom_site_fract_y
_atom_site_fract_z
Sm1 Sm 0.60973(2) 0.186864(19) 0.225967(10)
Sm2 Sm 0.23931(2) 0.41319(2) 0.435829(10)
O1 O 0.0705(4) 0.5603(4) 0.25099(17)
O2 O 0.1844(4) 0.5139(4) 0.33958(17)
O3 O 0.3752(5) 0.3355(5) 0.36941(19)
O4 O 0.5234(3) 0.2565(4) 0.31821(16)
O5 O 0.5978(3) 0.1775(3) 0.11606(15)
O6 O 0.6797(4) 0.1252(4) 0.03294(17)
O7 O 0.9393(4) 0.1372(4) -0.00051(17)
O8 O 1.1245(4) 0.0859(4) 0.05441(19)
O9 O 0.7298(4) 0.0554(3) 0.30107(16)
O10 O 0.8432(4) -0.1132(3) 0.31580(17)
O11 O 0.6326(4) -0.0206(3) 0.18913(16)
O12 O 0.7316(4) -0.1951(3) 0.20870(16)
O13 O 0.0136(5) 0.3583(5) 0.4030(2)
H1 H -0.038(7) 0.398(6) 0.378(4)
H2 H -0.017(8) 0.290(3) 0.406(4)
O14 O 0.2227(7) 0.1939(5) 0.4414(3)
H3 H 0.181(9) 0.186(9) 0.471(3)
H4 H 0.284(7) 0.144(7) 0.443(4)
O15 O 0.1078(4) 0.5804(4) 0.4659(2)
H5 H 0.088(7) 0.590(7) 0.5010(11)
H6 H 0.050(5) 0.611(7) 0.441(2)
N1 N 0.2193(5) 0.4294(4) 0.1859(2)
H7 H 0.1564 0.4689 0.1640
N2 N 0.3905(4) 0.3133(4) 0.20905(19)
N3 N 0.8370(4) 0.1603(4) 0.18569(18)
N4 N 1.0334(4) 0.1300(4) 0.1599(2)
H8 H 1.1188 0.1196 0.1630
C1 C 0.1577(5) 0.5047(4) 0.2828(2)
C2 C 0.2403(5) 0.4266(4) 0.2480(2)
C3 C 0.3474(5) 0.3527(5) 0.2619(2)
C4 C 0.4191(5) 0.3124(5) 0.3200(2)
C5 C 0.3110(5) 0.3615(5) 0.1636(2)
C6 C 0.3168(7) 0.3468(7) 0.0970(3)
H9 H 0.3977 0.3791 0.0869
H10 H 0.2444 0.3878 0.0746
H11 H 0.3120 0.2642 0.0868
C7 C 0.6942(5) 0.1509(4) 0.0878(2)
C8 C 0.8267(5) 0.1478(4) 0.1238(2)
C9 C 0.9492(5) 0.1295(5) 0.1068(2)
C10 C 1.0056(5) 0.1157(5) 0.0486(2)
C11 C 0.9640(5) 0.1489(5) 0.2068(2)
C12 C 1.0254(6) 0.1547(6) 0.2708(3)
H12 H 0.9934 0.2231 0.2899
H13 H 1.1190 0.1603 0.2720
H14 H 1.0037 0.0845 0.2918
C13 C 0.7644(5) -0.0458(4) 0.2856(2)
C14 C 0.7045(4) -0.0913(4) 0.2220(2)
Sm1A Sm -0.10973(2) 0.686864(19) 0.274033(10)
Sm1A_2 Sm 0.89027(2) -0.313136(19) 0.274033(10)
Sm2C Sm 0.73931(2) 0.08681(2) -0.064171(10)
Sm2A Sm 1.26069(2) -0.08681(2) 0.064171(10)
O1A O 0.4295(4) 0.0603(4) 0.24901(17)
O6C O 0.1797(4) 0.3748(4) 0.53294(17)
O7C O 0.4393(4) 0.3628(4) 0.49949(17)
O8A O 0.3755(4) 0.5859(4) 0.44559(19)
O10A O 0.6568(4) 0.3868(3) 0.18420(17)
O12A O 0.7684(4) 0.3049(3) 0.29130(16)
O16 O -0.1355(6) 0.1516(5) 0.4143(3)
H15 H -0.0557 0.1350 0.4147
H16 H -0.1747 0.1307 0.3805
O17 O -0.3161(8) 0.3154(8) 0.4346(3)
H17 H -0.3634 0.3340 0.4613
H18 H -0.3641 0.3144 0.4010
O18 O -0.1560(13) -0.0795(8) 0.4522(5)
H19 H -0.2318 -0.0565 0.4569
H20 H -0.1622 -0.1209 0.4206
O19 O 0.4456(9) 0.0665(7) 0.4006(4)
H21 H 0.4674 0.1121 0.3738
H22 H 0.5018 0.0122 0.4058
loop_
_geom_bond_atom_site_label_1
_geom_bond_atom_site_label_2
_geom_bond_site_symmetry_1
_geom_bond_site_symmetry_2
Sm1 O4 1_555 1_555
Sm2 O2 1_555 1_555
O1 C1 1_555 1_555
O2 C1 1_555 1_555
O3 Sm2 1_555 1_555
O4 C4 1_555 1_555
O5 Sm1 1_555 1_555
O6 C7 1_555 1_555
O7 C10 1_555 1_555
O8 C10 1_555 1_555
O9 Sm1 1_555 1_555
O10 C13 1_555 1_555
O11 Sm1 1_555 1_555
O12 C14 1_555 1_555
O13 Sm2 1_555 1_555
H1 O13 1_555 1_555
H2 O13 1_555 1_555
O14 Sm2 1_555 1_555
H3 O14 1_555 1_555
H4 O14 1_555 1_555
O15 Sm2 1_555 1_555
H5 O15 1_555 1_555
H6 O15 1_555 1_555
N1 H7 1_555 1_555
N2 Sm1 1_555 1_555
N3 Sm1 1_555 1_555
N4 H8 1_555 1_555
C1 C2 1_555 1_555
C2 N1 1_555 1_555
C3 N2 1_555 1_555
C4 O3 1_555 1_555
C5 N1 1_555 1_555
C6 C5 1_555 1_555
H9 C6 1_555 1_555
H10 C6 1_555 1_555
H11 C6 1_555 1_555
C7 O5 1_555 1_555
C8 N3 1_555 1_555
C9 N4 1_555 1_555
C10 C9 1_555 1_555
C11 N3 1_555 1_555
C12 C11 1_555 1_555
H12 C12 1_555 1_555
H13 C12 1_555 1_555
H14 C12 1_555 1_555
C13 O9 1_555 1_555
C14 O11 1_555 1_555
O16 H15 1_555 1_555
H16 O16 1_555 1_555
O17 H17 1_555 1_555
H18 O17 1_555 1_555
O18 H19 1_555 1_555
H20 O18 1_555 1_555
O19 H21 1_555 1_555
H22 O19 1_555 1_555
Sm1A O1 1_555 1_555
Sm1A_2 O10 1_555 1_555
Sm2C O6 1_555 1_555
Sm2A O8 1_555 1_555
O1A Sm1 1_555 1_555
O6C Sm2 1_555 1_555
O7C Sm2 1_555 1_555
O8A Sm2 1_555 1_555
O10A Sm1 1_555 1_555
O12A Sm1 1_555 1_555
O7 Sm2C 1_555 1_555
O12 Sm1A_2 1_555 1_555
N2 C5 1_555 1_555
N4 C11 1_555 1_555
C2 C3 1_555 1_555
C3 C4 1_555 1_555
C7 C8 1_555 1_555
C8 C9 1_555 1_555
C13 C14 1_555 1_555

#END
