
#######################################################################
#
#                 Cambridge Crystallographic Data Centre
#                                CCDC 
#
#######################################################################
#
# If this CIF has been generated from an entry in the Cambridge 
# Structural Database, then it will include bibliographic, chemical, 
# crystal, experimental, refinement or atomic coordinate data resulting 
# from the CCDC's data processing and validation procedures.
#
#######################################################################

data_TEJPAB
_symmetry_cell_setting           triclinic
_symmetry_space_group_name_H-M   'P -1'
_symmetry_Int_Tables_number      2
_space_group_name_Hall           '-P 1'
loop_
_symmetry_equiv_pos_site_id
_symmetry_equiv_pos_as_xyz
1 x,y,z
2 -x,-y,-z
_cell_length_a                   11.645(4)
_cell_length_b                   12.785(4)
_cell_length_c                   13.366(8)
_cell_angle_alpha                99.028(5)
_cell_angle_beta                 96.595(5)
_cell_angle_gamma                114.932(4)
_cell_volume                     1745.37
loop_
_atom_site_label
_atom_site_type_symbol
_atom_site_fract_x
_atom_site_fract_y
_atom_site_fract_z
Eu1 Eu 0.29288(9) 0.45370(9) 0.48568(8)
S1 S 0.1749(5) 0.2988(7) -0.0718(5)
S2 S 0.1972(5) -0.1498(5) 0.5572(5)
O1 O 0.3718(12) 0.4391(10) 0.3289(8)
O3 O 0.5962(12) 0.5313(11) 0.3531(9)
O5 O 0.0894(12) 0.2459(14) -0.0011(10)
O7 O 0.1342(12) 0.3614(16) -0.1341(12)
O9 O 0.1998(15) 0.2040(16) -0.1372(12)
O10 O 0.3062(10) 0.2708(10) 0.4763(9)
O11 O 0.5213(10) 0.3695(11) 0.4874(8)
O12 O 0.1083(11) -0.0980(11) 0.5814(10)
O13 O 0.1429(12) -0.2504(11) 0.4646(11)
O14 O 0.2462(12) -0.1859(14) 0.6452(12)
O15 O 0.2087(13) 0.5706(11) 0.5911(9)
O16 O 0.1319(10) 0.3262(9) 0.5791(8)
O17 O 0.0906(9) 0.3046(10) 0.3594(8)
O18 O 0.2186(10) 0.5638(10) 0.3801(8)
C1 C 0.5728(17) 0.5406(16) 0.1430(13)
H1 H 0.6515 0.5888 0.1881
C2 C 0.4648(16) 0.4759(16) 0.1802(13)
C3 C 0.3412(16) 0.4075(16) 0.1147(13)
H2 H 0.2690 0.3679 0.1420
C4 C 0.3302(16) 0.4007(16) 0.0077(14)
C5 C 0.4382(13) 0.4676(16) -0.0342(13)
C6 C 0.477(2) 0.4821(18) 0.2985(14)
C7 C 0.5425(16) 0.1520(16) 0.4835(12)
H3 H 0.6122 0.2169 0.4727
C8 C 0.4277(17) 0.1610(15) 0.4939(13)
C9 C 0.3246(16) 0.0658(16) 0.5131(12)
H4 H 0.2477 0.0703 0.5176
C10 C 0.3342(14) -0.0343(14) 0.5255(12)
C11 C 0.4446(14) -0.0475(14) 0.5111(12)
C12 C 0.4130(19) 0.2738(15) 0.4851(11)
Eu1A Eu 0.70712(9) 0.54630(9) -0.48568(8)
Eu1A_2 Eu 0.70712(9) 0.54630(9) 0.51432(8)
Eu1_2 Eu 0.29288(9) 0.45370(9) -0.51432(8)
Eu1A_3 Eu 0.70712(9) -0.45370(9) 0.51432(8)
Eu1_3 Eu 0.29288(9) -0.54630(9) 0.48568(8)
S1A S 0.8251(5) 0.7012(7) 0.0718(5)
S2A S 0.8028(5) 0.1498(5) 0.4428(5)
O1A O 0.6282(12) 0.5609(10) -0.3289(8)
O3A O 0.4038(12) 0.4687(11) -0.3531(9)
O3A_2 O 0.4038(12) 0.4687(11) 0.6469(9)
O3_2 O 0.5962(12) 0.5313(11) -0.6469(9)
O5A O 0.9106(12) 0.7541(14) 0.0011(10)
O7A O 0.8658(12) 0.6386(16) 0.1341(12)
O9A O 0.8002(15) 0.7960(16) 0.1372(12)
O10A O 0.6938(10) -0.2708(10) 0.5237(9)
O10A_2 O 0.6938(10) 0.7292(10) -0.4763(9)
O11A O 0.4787(10) -0.3695(11) 0.5126(8)
O11A_2 O 0.4787(10) 0.6305(11) 0.5126(8)
O11_2 O 0.5213(10) 0.3695(11) -0.5126(8)
O12A O 0.8917(11) 0.0980(11) 0.4186(10)
O13A O 0.8571(12) 0.2504(11) 0.5354(11)
O14A O 0.7538(12) 0.1859(14) 0.3548(12)
O15A O 0.7913(13) 0.4294(11) -0.5911(9)
O16A O 0.8681(10) 0.6738(9) -0.5791(8)
O17A O 0.9094(9) 0.6954(10) -0.3594(8)
O18A O 0.7814(10) 0.4362(10) -0.3801(8)
C1A C 0.4272(17) 0.4594(16) -0.1430(13)
H1A H 0.3485 0.4112 -0.1881
C2A C 0.5352(16) 0.5241(16) -0.1802(13)
C3A C 0.6588(16) 0.5925(16) -0.1147(13)
H2A H 0.7310 0.6321 -0.1420
C4A C 0.6698(16) 0.5993(16) -0.0077(14)
C5A C 0.5618(13) 0.5324(16) 0.0342(13)
C6A C 0.523(2) 0.5179(18) -0.2985(14)
C7A C 0.4575(16) -0.1520(16) 0.5165(12)
H3A H 0.3878 -0.2169 0.5273
C8A C 0.5723(17) -0.1610(15) 0.5061(13)
C9A C 0.6754(16) -0.0658(16) 0.4869(12)
H4A H 0.7523 -0.0703 0.4824
C10A C 0.6658(14) 0.0343(14) 0.4745(12)
C11A C 0.5554(14) 0.0475(14) 0.4889(12)
C12A C 0.5870(19) -0.2738(15) 0.5149(11)
O2 O 0.1155(13) 0.1243(12) -0.3396(11)
O4 O -0.0240(12) 0.3024(14) 0.1612(10)
O6 O 0.0706(13) 0.5025(12) 0.7429(10)
O8 O -0.2139(17) 0.0664(18) 0.1498(14)
C13 C 0.485(2) 0.150(2) 0.1968(15)
H5 H 0.5285 0.2267 0.2447
H6 H 0.5343 0.1063 0.2100
C14 C 0.4847(18) 0.167(2) 0.0876(16)
H7 H 0.4525 0.0908 0.0400
H8 H 0.4266 0.2012 0.0711
C15 C 0.614(2) 0.245(2) 0.0741(16)
H9 H 0.6711 0.2104 0.0923
H10 H 0.6450 0.3203 0.1228
C16 C 0.625(3) 0.269(2) -0.0353(19)
C17 C 0.753(3) 0.330(2) -0.051(2)
H11 H 0.8245 0.3520 0.0009
C18 C 0.767(3) 0.357(2) -0.150(2)
H12 H 0.8512 0.4008 -0.1586
C19 C 0.559(3) 0.265(2) -0.2116(18)
H13 H 0.4908 0.2384 -0.2674
C20 C 0.533(2) 0.238(2) -0.1195(19)
H14 H 0.4466 0.1959 -0.1148
C21 C 0.349(2) 0.083(3) 0.2169(18)
C22 C 0.271(3) 0.136(2) 0.236(2)
H15 H 0.2962 0.2147 0.2353
C23 C 0.159(3) 0.067(3) 0.256(2)
H16 H 0.1021 0.1005 0.2648
C24 C 0.199(3) -0.099(2) 0.247(2)
H17 H 0.1733 -0.1769 0.2508
C25 C 0.319(2) -0.033(3) 0.222(2)
H18 H 0.3751 -0.0655 0.2107
N1 N 0.678(2) 0.328(2) -0.2260(16)
H19 H 0.6928 0.3473 -0.2837
N2 N 0.1182(18) -0.045(2) 0.2642(15)
loop_
_geom_bond_atom_site_label_1
_geom_bond_atom_site_label_2
_geom_bond_site_symmetry_1
_geom_bond_site_symmetry_2
Eu1 O1 1_555 1_555
S1 O5 1_555 1_555
S2 O12 1_555 1_555
O1 C6 1_555 1_555
O3 C6 1_555 1_555
O7 S1 1_555 1_555
O9 S1 1_555 1_555
O10 Eu1 1_555 1_555
O11 C12 1_555 1_555
O13 S2 1_555 1_555
O14 S2 1_555 1_555
O15 Eu1 1_555 1_555
O16 Eu1 1_555 1_555
O17 Eu1 1_555 1_555
O18 Eu1 1_555 1_555
C1 H1 1_555 1_555
C2 C1 1_555 1_555
C3 C2 1_555 1_555
H2 C3 1_555 1_555
C4 S1 1_555 1_555
C5 C4 1_555 1_555
C6 C2 1_555 1_555
C7 H3 1_555 1_555
C8 C7 1_555 1_555
C9 C8 1_555 1_555
H4 C9 1_555 1_555
C10 S2 1_555 1_555
C11 C10 1_555 1_555
C12 O10 1_555 1_555
C13 H5 1_555 1_555
H6 C13 1_555 1_555
C14 C13 1_555 1_555
H7 C14 1_555 1_555
H8 C14 1_555 1_555
C15 C14 1_555 1_555
H9 C15 1_555 1_555
H10 C15 1_555 1_555
C16 C15 1_555 1_555
C17 C16 1_555 1_555
H11 C17 1_555 1_555
C18 C17 1_555 1_555
H12 C18 1_555 1_555
C19 H13 1_555 1_555
C20 C16 1_555 1_555
H14 C20 1_555 1_555
C21 C13 1_555 1_555
C22 C21 1_555 1_555
H15 C22 1_555 1_555
C23 C22 1_555 1_555
H16 C23 1_555 1_555
C24 H17 1_555 1_555
C25 C21 1_555 1_555
H18 C25 1_555 1_555
N1 C18 1_555 1_555
H19 N1 1_555 1_555
N2 C23 1_555 1_555
Eu1A O1A 1_555 1_555
Eu1A_2 O3 1_555 1_555
Eu1_2 O3A 1_555 1_555
Eu1A_3 O10A 1_555 1_555
Eu1_3 O11A 1_555 1_555
S1A O5A 1_555 1_555
S2A O12A 1_555 1_555
O1A C6A 1_555 1_555
O3A C6A 1_555 1_555
O3A_2 Eu1 1_555 1_555
O3_2 Eu1A 1_555 1_555
O7A S1A 1_555 1_555
O9A S1A 1_555 1_555
O10A C12A 1_555 1_555
O10A_2 Eu1A 1_555 1_555
O11A C12A 1_555 1_555
O11A_2 Eu1 1_555 1_555
O11_2 Eu1A 1_555 1_555
O13A S2A 1_555 1_555
O14A S2A 1_555 1_555
O15A Eu1A 1_555 1_555
O16A Eu1A 1_555 1_555
O17A Eu1A 1_555 1_555
O18A Eu1A 1_555 1_555
C1A C5 1_555 1_555
H1A C1A 1_555 1_555
C2A C1A 1_555 1_555
C3A C2A 1_555 1_555
H2A C3A 1_555 1_555
C4A S1A 1_555 1_555
C5A C1 1_555 1_555
C6A C2A 1_555 1_555
C7A C11 1_555 1_555
H3A C7A 1_555 1_555
C8A C7A 1_555 1_555
C9A C8A 1_555 1_555
H4A C9A 1_555 1_555
C10A S2A 1_555 1_555
C11A C7 1_555 1_555
C12A C8A 1_555 1_555
O11 Eu1A_2 1_555 1_555
C3 C4 1_555 1_555
C5 C5A 1_555 1_555
C8 C12 1_555 1_555
C9 C10 1_555 1_555
C11 C11A 1_555 1_555
C19 C20 1_555 1_555
C19 N1 1_555 1_555
C24 C25 1_555 1_555
C24 N2 1_555 1_555
C3A C4A 1_555 1_555
C4A C5A 1_555 1_555
C9A C10A 1_555 1_555
C10A C11A 1_555 1_555

#END
