
#######################################################################
#
#                 Cambridge Crystallographic Data Centre
#                                CCDC 
#
#######################################################################
#
# If this CIF has been generated from an entry in the Cambridge 
# Structural Database, then it will include bibliographic, chemical, 
# crystal, experimental, refinement or atomic coordinate data resulting 
# from the CCDC's data processing and validation procedures.
#
#######################################################################

data_TEVZEA
_symmetry_cell_setting           monoclinic
_symmetry_space_group_name_H-M   'P 21/c'
_symmetry_Int_Tables_number      14
_space_group_name_Hall           '-P 2ybc'
loop_
_symmetry_equiv_pos_site_id
_symmetry_equiv_pos_as_xyz
1 x,y,z
2 -x,1/2+y,1/2-z
3 -x,-y,-z
4 x,1/2-y,1/2+z
_cell_length_a                   11.2177(2)
_cell_length_b                   9.7505(2)
_cell_length_c                   18.0328(4)
_cell_angle_alpha                90
_cell_angle_beta                 127.1670(10)
_cell_angle_gamma                90
_cell_volume                     1571.76
loop_
_atom_site_label
_atom_site_type_symbol
_atom_site_fract_x
_atom_site_fract_y
_atom_site_fract_z
Zn1 Zn 0.37514(4) 0.08105(4) 0.13186(2)
Zn2 Zn 0.57460(4) -0.10322(4) 0.31480(2)
Zn3 Zn 0.5000 0.0000 0.0000
Zn4 Zn 0.0000 0.0000 0.0000
O1 O 0.4326(2) 0.2050(2) 0.24491(14)
O2 O 0.5567(2) 0.0688(2) 0.37100(15)
O3 O 0.5924(2) -0.0005(2) 0.22096(15)
O4 O 0.6859(3) 0.0094(2) 0.14169(15)
O5 O 0.4562(2) 0.2594(2) 0.10900(14)
O6 O 0.4719(2) 0.2101(2) -0.00611(15)
O7 O 0.3448(2) -0.0795(2) 0.19686(14)
O8 O 0.0992(2) -0.0939(2) 0.12759(15)
O9 O 0.3396(2) -0.0287(2) 0.02455(15)
O10 O 0.1184(2) -0.1232(2) -0.03014(15)
O11 O 0.1607(2) 0.1587(2) 0.05672(15)
O12 O 0.1986(2) 0.3850(2) 0.08618(15)
C1 C 0.5000(3) 0.1790(4) 0.3313(2)
H1 H 0.5070 0.2521 0.3686
C2 C 0.6972(4) -0.0055(4) 0.2133(2)
H2 H 0.7948 -0.0225 0.2687
C3 C 0.4679(4) 0.2921(4) 0.0447(2)
H3 H 0.4740 0.3869 0.0354
C4 C 0.2313(4) -0.1196(4) 0.1913(2)
H4 H 0.2504 -0.1744 0.2410
C5 C 0.2307(4) -0.1126(4) -0.0267(2)
H5 H 0.2377 -0.1721 -0.0656
C6 C 0.1181(4) 0.2831(4) 0.0449(2)
H6 H 0.0141 0.2998 -0.0001
Zn1B Zn 0.62486(4) -0.08105(4) -0.13186(2)
Zn1A Zn 0.62486(4) -0.41895(4) 0.36814(2)
Zn1B_2 Zn -0.37514(4) -0.08105(4) -0.13186(2)
Zn2B Zn 0.42540(4) 0.10322(4) -0.31480(2)
Zn2A Zn 0.42540(4) 0.39678(4) 0.18520(2)
Zn2C Zn 0.57460(4) -0.39678(4) -0.18520(2)
Zn2A_2 Zn 0.42540(4) -0.60322(4) 0.18520(2)
Zn2B_2 Zn -0.57460(4) 0.10322(4) -0.31480(2)
Zn4_2 Zn 1.0000 0.0000 0.0000
Zn4C Zn 1.0000 -0.5000 0.5000
O1A O 0.5674(2) -0.2950(2) 0.25509(14)
O1B O 0.5674(2) -0.2050(2) -0.24491(14)
O1C O 0.4326(2) 0.2950(2) -0.25509(14)
O2A O 0.4433(2) -0.4312(2) 0.12900(15)
O2B O 0.4433(2) -0.0688(2) -0.37100(15)
O3B O 0.4076(2) 0.0005(2) -0.22096(15)
O4B O 0.3141(3) -0.0094(2) -0.14169(15)
O5B O 0.5438(2) -0.2594(2) -0.10900(14)
O5A O 0.5438(2) -0.2406(2) 0.39100(14)
O5C O 0.4562(2) 0.2406(2) -0.39100(14)
O6B O 0.5281(2) -0.2101(2) 0.00611(15)
O7B O -0.3448(2) 0.0795(2) -0.19686(14)
O7B_2 O 0.6552(2) 0.0795(2) -0.19686(14)
O8B O -0.0992(2) 0.0939(2) -0.12759(15)
O9B O 0.6604(2) 0.0287(2) -0.02455(15)
O10B O 0.8816(2) 0.1232(2) 0.03014(15)
O10B_2 O -0.1184(2) 0.1232(2) 0.03014(15)
O11A O 0.8393(2) -0.3413(2) 0.44328(15)
O11B O -0.1607(2) -0.1587(2) -0.05672(15)
O11B_2 O 0.8393(2) -0.1587(2) -0.05672(15)
O12A O 0.8014(2) -0.1150(2) 0.41382(15)
O12C O 0.1986(2) 0.1150(2) -0.41382(15)
C1A C 0.5000(3) -0.3210(4) 0.1687(2)
H1A H 0.4930 -0.2479 0.1314
C2B C 0.3028(4) 0.0055(4) -0.2133(2)
H2B H 0.2052 0.0225 -0.2687
C3B C 0.5321(4) -0.2921(4) -0.0447(2)
H3B H 0.5260 -0.3869 -0.0354
C4B C -0.2313(4) 0.1196(4) -0.1913(2)
H4B H -0.2504 0.1744 -0.2410
C5B C 0.7693(4) 0.1126(4) 0.0267(2)
H5B H 0.7623 0.1721 0.0656
C6A C 0.8819(4) -0.2169(4) 0.4551(2)
H6A H 0.9859 -0.2002 0.5001
C7 C 0.8383(7) 0.4808(7) 0.1035(4)
O13 O 0.766(4) 0.430(4) 0.1047(19)
O14 O 0.918(5) 0.672(5) 0.223(2)
O15? O 0.7911(7) 0.4222(6) 0.1385(4)
C8? C 0.9134(10) 0.6707(10) 0.1978(6)
O16? O 0.9044(4) 0.6016(4) 0.1272(2)
O17? O 0.840(5) 0.456(5) 0.073(3)
loop_
_geom_bond_atom_site_label_1
_geom_bond_atom_site_label_2
_geom_bond_site_symmetry_1
_geom_bond_site_symmetry_2
Zn1 O1 1_555 1_555
Zn2 O2 1_555 1_555
Zn3 O4 1_555 1_555
Zn4 O8 1_555 1_555
O1 C1 1_555 1_555
O2 C1 1_555 1_555
O3 Zn1 1_555 1_555
O4 C2 1_555 1_555
O5 Zn1 1_555 1_555
O6 Zn3 1_555 1_555
O7 Zn1 1_555 1_555
O8 C4 1_555 1_555
O9 Zn1 1_555 1_555
O10 Zn4 1_555 1_555
O11 Zn1 1_555 1_555
O12 C6 1_555 1_555
C1 H1 1_555 1_555
C2 O3 1_555 1_555
H2 C2 1_555 1_555
C3 O5 1_555 1_555
H3 C3 1_555 1_555
C4 O7 1_555 1_555
H4 C4 1_555 1_555
C5 O9 1_555 1_555
H5 C5 1_555 1_555
C6 O11 1_555 1_555
H6 C6 1_555 1_555
C7 O13 1_555 1_555
Zn1B O1B 1_555 1_555
Zn1A O1A 1_555 1_555
Zn1B_2 O7B 1_555 1_555
Zn2B O1C 1_555 1_555
Zn2A O1 1_555 1_555
Zn2C O1B 1_555 1_555
Zn2A_2 O2A 1_555 1_555
Zn2B_2 O7B 1_555 1_555
Zn4_2 O10B 1_555 1_555
Zn4C O11A 1_555 1_555
O1A Zn2 1_555 1_555
O2A C1A 1_555 1_555
O2B Zn2B 1_555 1_555
O3B Zn1B 1_555 1_555
O4B Zn3 1_555 1_555
O5B Zn1B 1_555 1_555
O5A Zn2 1_555 1_555
O5C Zn2B 1_555 1_555
O6B Zn3 1_555 1_555
O7B C4B 1_555 1_555
O7B_2 Zn1B 1_555 1_555
O8B Zn4 1_555 1_555
O9B Zn3 1_555 1_555
O10B C5B 1_555 1_555
O10B_2 Zn4 1_555 1_555
O11A Zn1A 1_555 1_555
O11B Zn4 1_555 1_555
O11B_2 Zn1B 1_555 1_555
O12A Zn2 1_555 1_555
O12C Zn2B 1_555 1_555
C1A O1A 1_555 1_555
H1A C1A 1_555 1_555
C2B O3B 1_555 1_555
H2B C2B 1_555 1_555
C3B O5B 1_555 1_555
H3B C3B 1_555 1_555
C4B O8B 1_555 1_555
H4B C4B 1_555 1_555
C5B O9B 1_555 1_555
H5B C5B 1_555 1_555
C6A O11A 1_555 1_555
H6A C6A 1_555 1_555
Zn2 O3 1_555 1_555
Zn2 O7 1_555 1_555
Zn3 O9 1_555 1_555
Zn4 O11 1_555 1_555
O5 Zn2A 1_555 1_555
O6 C3 1_555 1_555
O10 C5 1_555 1_555
O12 Zn2A 1_555 1_555
Zn1B O9B 1_555 1_555
Zn1A O5A 1_555 1_555
Zn1B_2 O11B 1_555 1_555
Zn2B O3B 1_555 1_555
Zn2B O7B_2 1_555 1_555
Zn2C O5B 1_555 1_555
Zn4_2 O11B_2 1_555 1_555
O4B C2B 1_555 1_555
O6B C3B 1_555 1_555
O12A C6A 1_555 1_555

#END
