
#######################################################################
#
#                 Cambridge Crystallographic Data Centre
#                                CCDC 
#
#######################################################################
#
# If this CIF has been generated from an entry in the Cambridge 
# Structural Database, then it will include bibliographic, chemical, 
# crystal, experimental, refinement or atomic coordinate data resulting 
# from the CCDC's data processing and validation procedures.
#
#######################################################################

data_TIKMEH
_symmetry_cell_setting           triclinic
_symmetry_space_group_name_H-M   'P -1'
_symmetry_Int_Tables_number      2
_space_group_name_Hall           '-P 1'
loop_
_symmetry_equiv_pos_site_id
_symmetry_equiv_pos_as_xyz
1 x,y,z
2 -x,-y,-z
_cell_length_a                   10.5925(10)
_cell_length_b                   19.4409(18)
_cell_length_c                   23.682(2)
_cell_angle_alpha                73.7440(10)
_cell_angle_beta                 83.661(2)
_cell_angle_gamma                89.712(2)
_cell_volume                     4651.47
loop_
_atom_site_label
_atom_site_type_symbol
_atom_site_fract_x
_atom_site_fract_y
_atom_site_fract_z
Cd1 Cd 0.24644(6) 0.45473(4) 0.22671(3)
Cd2 Cd 0.69694(7) 0.15655(4) 0.25871(3)
Cd3 Cd 1.08562(7) -0.34242(4) 0.25296(3)
Cd4 Cd 0.67852(7) -0.28748(4) 0.26708(3)
Cd5 Cd 0.54994(6) -0.04090(4) 0.23950(3)
Cd6 Cd 1.10640(7) 0.22381(4) 0.24030(3)
C1 C 0.4831(9) 0.8327(5) 0.2093(4)
C2 C 0.4458(8) 0.7851(5) 0.1732(4)
C3 C 0.3824(8) 0.6711(5) 0.1638(4)
C4 C 0.4027(9) 0.7144(5) 0.1993(4)
C5 C 0.3331(9) 0.5957(5) 0.1896(4)
C6 C 0.3813(9) 0.6854(5) 0.2654(4)
C7 C 0.3383(9) 0.3425(5) 0.1844(4)
C8 C 0.4000(8) 0.2914(5) 0.1536(4)
C9 C 0.4719(9) 0.1750(5) 0.1526(4)
C10 C 0.4244(9) 0.2222(5) 0.1840(4)
C11 C 0.4002(9) 0.1966(5) 0.2504(4)
C12 C 0.4990(9) 0.0987(6) 0.1834(4)
C13 C 0.8330(10) 0.5649(5) 0.2537(4)
C14 C 0.7782(9) 0.4971(5) 0.2474(4)
C15 C 0.6463(11) 0.4910(7) 0.2511(5)
H1 H 0.5970 0.5291 0.2559
C16 C 0.5876(10) 0.4293(7) 0.2478(6)
H2 H 0.4999 0.4268 0.2481
C17 C 0.6600(10) 0.3716(6) 0.2442(5)
H3 H 0.6198 0.3291 0.2445
C18 C 0.7922(9) 0.3752(5) 0.2400(4)
C19 C 0.8520(9) 0.4405(5) 0.2388(4)
C20 C 0.9938(9) 0.4460(5) 0.2333(4)
C21 C 0.8646(10) 0.3091(5) 0.2416(4)
C22 C 0.9523(11) 0.0649(5) 0.2597(4)
C23 C 1.0083(10) -0.0056(5) 0.2589(5)
C24 C 1.1394(12) -0.0114(8) 0.2569(7)
H4 H 1.1887 0.0287 0.2554
C25 C 1.1957(13) -0.0718(10) 0.2572(9)
H5 H 1.2838 -0.0735 0.2553
C26 C 1.1256(12) -0.1333(7) 0.2604(7)
H6 H 1.1659 -0.1764 0.2627
C27 C 0.9940(10) -0.1297(6) 0.2601(5)
C28 C 0.9357(9) -0.0651(5) 0.2590(4)
C29 C 0.7960(9) -0.0597(5) 0.2578(4)
C30 C 0.9215(11) -0.1971(5) 0.2629(4)
C31 C 0.3432(12) 0.4685(7) 0.3494(5)
H7 H 0.3621 0.5155 0.3269
C32 C 0.3569(12) 0.4506(6) 0.4088(5)
H8 H 0.3853 0.4848 0.4255
C33 C 0.3279(12) 0.3808(7) 0.4435(5)
C34 C 0.2908(15) 0.3337(7) 0.4136(5)
H9 H 0.2725 0.2859 0.4340
C35 C 0.2811(13) 0.3566(7) 0.3551(5)
H10 H 0.2559 0.3235 0.3365
C36 C 0.3341(14) 0.3881(7) 0.6004(5)
H11 H 0.3406 0.4227 0.6203
C37 C 0.3324(13) 0.4098(7) 0.5397(5)
H12 H 0.3330 0.4583 0.5196
C38 C 0.3300(12) 0.3589(7) 0.5092(5)
C39 C 0.3270(14) 0.2894(6) 0.5414(5)
H13 H 0.3269 0.2537 0.5222
C40 C 0.3243(13) 0.2706(7) 0.6019(5)
H14 H 0.3206 0.2222 0.6227
C41 C 0.5688(13) 0.1222(6) 0.6332(5)
H15 H 0.5578 0.1603 0.6496
C42 C 0.5956(14) 0.1377(7) 0.5727(5)
H16 H 0.5997 0.1851 0.5495
C43 C 0.6163(11) 0.0829(6) 0.5466(4)
C44 C 0.6090(12) 0.0157(6) 0.5853(5)
H17 H 0.6243 -0.0236 0.5707
C45 C 0.5797(11) 0.0049(6) 0.6449(5)
H18 H 0.5750 -0.0418 0.6695
C46 C 0.6160(16) 0.1708(8) 0.3860(5)
H19 H 0.5894 0.2139 0.3624
C47 C 0.6002(17) 0.1595(7) 0.4460(5)
H20 H 0.5649 0.1950 0.4618
C48 C 0.6358(11) 0.0962(6) 0.4835(4)
C49 C 0.6875(13) 0.0486(7) 0.4558(5)
H21 H 0.7137 0.0047 0.4784
C50 C 0.7018(12) 0.0637(6) 0.3952(5)
H22 H 0.7382 0.0294 0.3784
C51 C 1.0253(13) -0.3697(6) 0.3918(5)
H23 H 1.0229 -0.3200 0.3811
C52 C 1.0100(13) -0.4069(6) 0.4509(5)
H24 H 0.9997 -0.3818 0.4792
C53 C 1.0099(10) -0.4796(6) 0.4687(4)
C54 C 1.0239(13) -0.5127(6) 0.4246(4)
H25 H 1.0235 -0.5625 0.4340
C55 C 1.0387(13) -0.4730(6) 0.3669(5)
H26 H 1.0461 -0.4969 0.3378
C56 C 0.7797(10) -0.2124(6) 0.1303(5)
H27 H 0.7970 -0.1753 0.1462
C57 C 0.8107(10) -0.2018(6) 0.0703(5)
H28 H 0.8430 -0.1575 0.0466
C58 C 0.7942(9) -0.2563(7) 0.0457(5)
C59 C 0.7395(11) -0.3186(6) 0.0836(5)
H29 H 0.7240 -0.3570 0.0688
C60 C 0.7078(10) -0.3252(6) 0.1419(4)
H30 H 0.6714 -0.3683 0.1661
C61 C 0.8280(10) -0.2466(6) -0.0180(4)
C62 C 0.8191(11) -0.1830(6) -0.0593(5)
H31 H 0.7982 -0.1423 -0.0474
C63 C 0.8407(10) -0.1782(7) -0.1182(5)
H32 H 0.8300 -0.1340 -0.1452
C64 C 0.8873(10) -0.2943(6) -0.0993(5)
H33 H 0.9119 -0.3335 -0.1128
C65 C 0.8657(10) -0.3049(6) -0.0396(5)
H34 H 0.8758 -0.3498 -0.0136
C66 C 0.7587(11) 0.2623(6) 0.1254(4)
H35 H 0.7306 0.2966 0.1441
C67 C 0.7921(10) 0.2838(6) 0.0652(5)
H36 H 0.7880 0.3318 0.0440
C68 C 0.8326(9) 0.2325(6) 0.0359(4)
C69 C 0.8392(10) 0.1632(6) 0.0705(4)
H37 H 0.8686 0.1275 0.0536
C70 C 0.8025(10) 0.1471(6) 0.1296(4)
H38 H 0.8037 0.0994 0.1518
C71 C 0.9196(10) 0.3414(6) -0.1206(5)
H39 H 0.9430 0.3886 -0.1411
C72 C 0.8990(9) 0.3238(6) -0.0609(4)
H40 H 0.9085 0.3585 -0.0414
C73 C 0.8634(9) 0.2533(6) -0.0284(4)
C74 C 0.8552(10) 0.2045(6) -0.0601(4)
H41 H 0.8349 0.1566 -0.0407
C75 C 0.8777(10) 0.2275(6) -0.1219(4)
H42 H 0.8710 0.1941 -0.1429
C76 C 1.0277(18) 0.1624(12) 0.3899(7)
H43 H 0.9442 0.1424 0.3895
H44 H 1.0258 0.1787 0.4251
C77 C 1.122(2) 0.1063(13) 0.3927(9)
H45 H 1.0994 0.0663 0.4276
H46 H 1.1236 0.0888 0.3581
N1 N 0.3051(8) 0.4231(5) 0.3226(3)
N2 N 0.3266(9) 0.3190(5) 0.6313(4)
N3 N 0.5580(8) 0.0577(5) 0.6688(3)
N4 N 0.6673(9) 0.1236(5) 0.3597(4)
N5 N 0.7647(8) 0.1958(5) 0.1576(3)
N6 N 0.9078(8) 0.2944(5) -0.1515(3)
N7 N 0.7268(8) -0.2723(5) 0.1663(4)
N8 N 0.8759(9) -0.2326(5) -0.1394(4)
N9 N 1.0429(8) -0.4022(5) 0.3503(4)
O1 O 0.5322(7) 0.8074(4) 0.2552(3)
O2 O 0.4636(8) 0.8973(4) 0.1887(3)
O3 O 0.2730(7) 0.6933(4) 0.2900(3)
O4 O 0.4724(7) 0.6549(4) 0.2908(3)
O5 O 0.2452(7) 0.5818(4) 0.2321(3)
O6 O 0.3758(8) 0.5498(4) 0.1682(4)
O7 O 0.3696(8) 0.4058(4) 0.1648(3)
O8 O 0.2554(7) 0.3198(4) 0.2286(3)
O9 O 0.2951(7) 0.1695(4) 0.2734(3)
O10 O 0.4907(7) 0.2033(4) 0.2781(3)
O11 O 0.5532(6) 0.0856(4) 0.2303(3)
O12 O 0.4678(10) 0.0507(4) 0.1630(4)
O13 O 0.8352(7) 0.0683(4) 0.2651(3)
O14 O 1.0256(9) 0.1158(5) 0.2554(5)
O15 O 0.7237(7) -0.0749(4) 0.3038(3)
O16 O 0.7572(7) -0.0394(4) 0.2077(3)
O17 O 0.8078(8) -0.1926(4) 0.2585(4)
O18 O 0.9826(10) -0.2521(5) 0.2711(5)
O19 O 0.9775(7) 0.3159(4) 0.2216(3)
O20 O 0.8074(8) 0.2517(4) 0.2643(4)
O21 O 1.0564(6) 0.4695(4) 0.1849(3)
O22 O 1.0457(6) 0.4255(4) 0.2798(3)
O23 O 0.9496(7) 0.5757(4) 0.2399(3)
O24 O 0.7577(8) 0.6025(4) 0.2753(4)
O25 O 1.0547(9) 0.2225(6) 0.3385(4)
O26 O 1.2409(14) 0.1353(9) 0.3951(5)
H47 H 1.2795 0.1477 0.3617
C78 C 0.4070(9) 0.6973(6) 0.1031(4)
H48 H 0.3967 0.6676 0.0791
C79 C 0.4646(9) 0.8112(5) 0.1120(4)
H49 H 0.4894 0.8589 0.0944
C80 C 0.4284(10) 0.3156(6) 0.0933(4)
H50 H 0.4178 0.3636 0.0737
C81 C 0.4933(10) 0.1974(5) 0.0920(4)
H51 H 0.5213 0.1650 0.0711
C82 C 0.4731(11) 0.2686(6) 0.0613(4)
H52 H 0.4893 0.2842 0.0202
C83 C 0.4470(11) 0.7679(6) 0.0782(4)
H53 H 0.4621 0.7857 0.0372
C51A C 0.9747(13) -0.6303(6) 0.6082(5)
H23A H 0.9771 -0.6800 0.6189
C52A C 0.9900(13) -0.5931(6) 0.5491(5)
H24A H 1.0003 -0.6182 0.5208
C53A C 0.9901(10) -0.5204(6) 0.5313(4)
C54A C 0.9761(13) -0.4873(6) 0.5754(4)
H25A H 0.9765 -0.4375 0.5660
C55A C 0.9613(13) -0.5270(6) 0.6331(5)
H26A H 0.9539 -0.5031 0.6622
N9A N 0.9571(8) -0.5978(5) 0.6497(4)
Cd1A Cd 0.75356(6) -0.45473(4) 0.77329(3)
Cd2A Cd 0.30306(7) -0.15655(4) 0.74129(3)
Cd3A Cd -0.08562(7) 0.34242(4) 0.74704(3)
Cd4A Cd 0.32148(7) 0.28748(4) 0.73292(3)
Cd5A Cd 0.45006(6) 0.04090(4) 0.76050(3)
Cd6A Cd -0.10640(7) -0.22381(4) 0.75970(3)
C1A C 0.5169(9) -0.8327(5) 0.7907(4)
C2A C 0.5542(8) -0.7851(5) 0.8268(4)
C3A C 0.6176(8) -0.6711(5) 0.8362(4)
C4A C 0.5973(9) -0.7144(5) 0.8007(4)
C5A C 0.6669(9) -0.5957(5) 0.8104(4)
C6A C 0.6187(9) -0.6854(5) 0.7346(4)
C7A C 0.6617(9) -0.3425(5) 0.8156(4)
C8A C 0.6000(8) -0.2914(5) 0.8464(4)
C9A C 0.5281(9) -0.1750(5) 0.8474(4)
C10A C 0.5756(9) -0.2222(5) 0.8160(4)
C11A C 0.5998(9) -0.1966(5) 0.7496(4)
C12A C 0.5010(9) -0.0987(6) 0.8166(4)
C13A C 0.1670(10) -0.5649(5) 0.7463(4)
C14A C 0.2218(9) -0.4971(5) 0.7526(4)
C15A C 0.3537(11) -0.4910(7) 0.7489(5)
H1A H 0.4030 -0.5291 0.7441
C16A C 0.4124(10) -0.4293(7) 0.7522(6)
H2A H 0.5001 -0.4268 0.7519
C17A C 0.3400(10) -0.3716(6) 0.7558(5)
H3A H 0.3802 -0.3291 0.7555
C18A C 0.2078(9) -0.3752(5) 0.7600(4)
C19A C 0.1480(9) -0.4405(5) 0.7612(4)
C20A C 0.0062(9) -0.4460(5) 0.7667(4)
C21A C 0.1354(10) -0.3091(5) 0.7584(4)
C22A C 0.0477(11) -0.0649(5) 0.7403(4)
C23A C -0.0083(10) 0.0056(5) 0.7411(5)
C24A C -0.1394(12) 0.0114(8) 0.7431(7)
H4A H -0.1887 -0.0287 0.7446
C25A C -0.1957(13) 0.0718(10) 0.7428(9)
H5A H -0.2838 0.0735 0.7447
C26A C -0.1256(12) 0.1333(7) 0.7396(7)
H6A H -0.1659 0.1764 0.7373
C27A C 0.0060(10) 0.1297(6) 0.7399(5)
C28A C 0.0643(9) 0.0651(5) 0.7410(4)
C29A C 0.2040(9) 0.0597(5) 0.7422(4)
C30A C 0.0785(11) 0.1971(5) 0.7371(4)
C31A C 0.6568(12) -0.4685(7) 0.6506(5)
H7A H 0.6379 -0.5155 0.6731
C32A C 0.6431(12) -0.4506(6) 0.5912(5)
H8A H 0.6147 -0.4848 0.5745
C33A C 0.6721(12) -0.3808(7) 0.5565(5)
C34A C 0.7092(15) -0.3337(7) 0.5864(5)
H9A H 0.7275 -0.2859 0.5660
C35A C 0.7189(13) -0.3566(7) 0.6449(5)
H10A H 0.7441 -0.3235 0.6635
C36A C 0.6659(14) -0.3881(7) 0.3996(5)
H11A H 0.6594 -0.4227 0.3797
C37A C 0.6676(13) -0.4098(7) 0.4603(5)
H12A H 0.6670 -0.4583 0.4804
C38A C 0.6700(12) -0.3589(7) 0.4908(5)
C39A C 0.6730(14) -0.2894(6) 0.4586(5)
H13A H 0.6731 -0.2537 0.4778
C40A C 0.6757(13) -0.2706(7) 0.3981(5)
H14A H 0.6794 -0.2222 0.3773
C41A C 0.4312(13) -0.1222(6) 0.3668(5)
H15A H 0.4422 -0.1603 0.3504
C42A C 0.4044(14) -0.1377(7) 0.4273(5)
H16A H 0.4003 -0.1851 0.4505
C43A C 0.3837(11) -0.0829(6) 0.4534(4)
C44A C 0.3910(12) -0.0157(6) 0.4147(5)
H17A H 0.3757 0.0236 0.4293
C45A C 0.4203(11) -0.0049(6) 0.3551(5)
H18A H 0.4250 0.0418 0.3305
C46A C 0.3840(16) -0.1708(8) 0.6140(5)
H19A H 0.4106 -0.2139 0.6376
C47A C 0.3998(17) -0.1595(7) 0.5540(5)
H20A H 0.4351 -0.1950 0.5382
C48A C 0.3642(11) -0.0962(6) 0.5165(4)
C49A C 0.3125(13) -0.0486(7) 0.5442(5)
H21A H 0.2863 -0.0047 0.5216
C50A C 0.2982(12) -0.0637(6) 0.6048(5)
H22A H 0.2618 -0.0294 0.6216
C56A C 0.2203(10) 0.2124(6) 0.8697(5)
H27A H 0.2030 0.1753 0.8538
C57A C 0.1893(10) 0.2018(6) 0.9297(5)
H28A H 0.1570 0.1575 0.9534
C58A C 0.2058(9) 0.2563(7) 0.9543(5)
C59A C 0.2605(11) 0.3186(6) 0.9164(5)
H29A H 0.2760 0.3570 0.9312
C60A C 0.2922(10) 0.3252(6) 0.8581(4)
H30A H 0.3286 0.3683 0.8339
C61A C 0.1720(10) 0.2466(6) 1.0180(4)
C62A C 0.1809(11) 0.1830(6) 1.0593(5)
H31A H 0.2018 0.1423 1.0474
C63A C 0.1593(10) 0.1782(7) 1.1182(5)
H32A H 0.1700 0.1340 1.1452
C64A C 0.1127(10) 0.2943(6) 1.0993(5)
H33A H 0.0881 0.3335 1.1128
C65A C 0.1343(10) 0.3049(6) 1.0396(5)
H34A H 0.1242 0.3498 1.0136
C66A C 0.2413(11) -0.2623(6) 0.8746(4)
H35A H 0.2694 -0.2966 0.8559
C67A C 0.2079(10) -0.2838(6) 0.9348(5)
H36A H 0.2120 -0.3318 0.9560
C68A C 0.1674(9) -0.2325(6) 0.9641(4)
C69A C 0.1608(10) -0.1632(6) 0.9295(4)
H37A H 0.1314 -0.1275 0.9464
C70A C 0.1975(10) -0.1471(6) 0.8704(4)
H38A H 0.1963 -0.0994 0.8482
C71A C 0.0804(10) -0.3414(6) 1.1206(5)
H39A H 0.0570 -0.3886 1.1411
C72A C 0.1010(9) -0.3238(6) 1.0609(4)
H40A H 0.0915 -0.3585 1.0414
C73A C 0.1366(9) -0.2533(6) 1.0284(4)
C74A C 0.1448(10) -0.2045(6) 1.0601(4)
H41A H 0.1651 -0.1566 1.0407
C75A C 0.1223(10) -0.2275(6) 1.1219(4)
H42A H 0.1290 -0.1941 1.1429
C76A C -0.0277(18) -0.1624(12) 0.6101(7)
H43A H 0.0558 -0.1424 0.6105
H44A H -0.0258 -0.1787 0.5749
C77A C -0.122(2) -0.1063(13) 0.6073(9)
H45A H -0.0994 -0.0663 0.5724
H46A H -0.1236 -0.0888 0.6419
N1A N 0.6949(8) -0.4231(5) 0.6774(3)
N2A N 0.6734(9) -0.3190(5) 0.3687(4)
N3A N 0.4420(8) -0.0577(5) 0.3312(3)
N4A N 0.3327(9) -0.1236(5) 0.6403(4)
N5A N 0.2353(8) -0.1958(5) 0.8424(3)
N6A N 0.0922(8) -0.2944(5) 1.1515(3)
N7A N 0.2732(8) 0.2723(5) 0.8337(4)
N8A N 0.1241(9) 0.2326(5) 1.1394(4)
O1A O 0.4678(7) -0.8074(4) 0.7448(3)
O2A O 0.5364(8) -0.8973(4) 0.8113(3)
O3A O 0.7270(7) -0.6933(4) 0.7100(3)
O4A O 0.5276(7) -0.6549(4) 0.7092(3)
O5A O 0.7548(7) -0.5818(4) 0.7679(3)
O6A O 0.6242(8) -0.5498(4) 0.8318(4)
O7A O 0.6304(8) -0.4058(4) 0.8352(3)
O8A O 0.7446(7) -0.3198(4) 0.7714(3)
O9A O 0.7049(7) -0.1695(4) 0.7266(3)
O10A O 0.5093(7) -0.2033(4) 0.7219(3)
O11A O 0.4468(6) -0.0856(4) 0.7697(3)
O12A O 0.5322(10) -0.0507(4) 0.8370(4)
O13A O 0.1648(7) -0.0683(4) 0.7349(3)
O14A O -0.0256(9) -0.1158(5) 0.7446(5)
O15A O 0.2763(7) 0.0749(4) 0.6962(3)
O16A O 0.2428(7) 0.0394(4) 0.7923(3)
O17A O 0.1922(8) 0.1926(4) 0.7415(4)
O18A O 0.0174(10) 0.2521(5) 0.7289(5)
O19A O 0.0225(7) -0.3159(4) 0.7784(3)
O20A O 0.1926(8) -0.2517(4) 0.7357(4)
O21A O -0.0564(6) -0.4695(4) 0.8151(3)
O22A O -0.0457(6) -0.4255(4) 0.7202(3)
O23A O 0.0504(7) -0.5757(4) 0.7601(3)
O24A O 0.2423(8) -0.6025(4) 0.7247(4)
O25A O -0.0547(9) -0.2225(6) 0.6615(4)
O26A O -0.2409(14) -0.1353(9) 0.6049(5)
H47A H -0.2795 -0.1477 0.6383
C78A C 0.5930(9) -0.6973(6) 0.8969(4)
H48A H 0.6033 -0.6676 0.9209
C79A C 0.5354(9) -0.8112(5) 0.8880(4)
H49A H 0.5106 -0.8589 0.9056
C80A C 0.5716(10) -0.3156(6) 0.9067(4)
H50A H 0.5822 -0.3636 0.9263
C81A C 0.5067(10) -0.1974(5) 0.9080(4)
H51A H 0.4787 -0.1650 0.9289
C82A C 0.5269(11) -0.2686(6) 0.9387(4)
H52A H 0.5107 -0.2842 0.9798
C83A C 0.5530(11) -0.7679(6) 0.9218(4)
H53A H 0.5379 -0.7857 0.9628
Cd1_2 Cd 1.24644(6) 0.45473(4) 0.22671(3)
Cd1A_2 Cd -0.24644(6) -0.45473(4) 0.77329(3)
Cd3_2 Cd 0.08562(7) -0.34242(4) 1.25296(3)
Cd3_3 Cd 0.08562(7) 0.65758(4) 0.25296(3)
Cd3_4 Cd 1.08562(7) 0.65758(4) 0.25296(3)
Cd3A_2 Cd -0.08562(7) -0.65758(4) 0.74704(3)
Cd3A_3 Cd 0.91438(7) -0.65758(4) 0.74704(3)
Cd3A_4 Cd 0.91438(7) 0.34242(4) -0.25296(3)
Cd4_2 Cd 0.67852(7) 0.71252(4) 0.26708(3)
Cd4A_2 Cd 0.32148(7) -0.71252(4) 0.73292(3)
Cd5_2 Cd 0.54994(6) 0.95910(4) 0.23950(3)
Cd5A_2 Cd 0.45006(6) -0.95910(4) 0.76050(3)
Cd6_2 Cd 0.10640(7) 0.22381(4) 0.24030(3)
Cd6_3 Cd 0.10640(7) 0.22381(4) 1.24030(3)
Cd6A_2 Cd 0.89360(7) -0.22381(4) -0.24030(3)
Cd6A_3 Cd 0.89360(7) -0.22381(4) 0.75970(3)
N6_2 N -0.0922(8) 0.2944(5) 0.8485(3)
N6A_2 N 1.0922(8) -0.2944(5) 0.1515(3)
N8_2 N -0.1241(9) -0.2326(5) 0.8606(4)
N8A_2 N 1.1241(9) 0.2326(5) 0.1394(4)
N9A_2 N -0.0429(8) 0.4022(5) 0.6497(4)
O1_2 O 0.5322(7) -0.1926(4) 0.2552(3)
O1A_2 O 0.4678(7) 0.1926(4) 0.7448(3)
O2_2 O 0.4636(8) -0.1027(4) 0.1887(3)
O2A_2 O 0.5364(8) 0.1027(4) 0.8113(3)
O3_2 O 1.2730(7) -0.3067(4) 0.2900(3)
O3A_2 O -0.2730(7) 0.3067(4) 0.7100(3)
O4_2 O 0.4724(7) -0.3451(4) 0.2908(3)
O4A_2 O 0.5276(7) 0.3451(4) 0.7092(3)
O5_2 O 1.2452(7) -0.4182(4) 0.2321(3)
O5A_2 O -0.2452(7) 0.4182(4) 0.7679(3)
O8_2 O 1.2554(7) 0.3198(4) 0.2286(3)
O8A_2 O -0.2554(7) -0.3198(4) 0.7714(3)
O9_2 O 1.2951(7) 0.1695(4) 0.2734(3)
O9A_2 O -0.2951(7) -0.1695(4) 0.7266(3)
O21_2 O 0.0564(6) 0.4695(4) 0.1849(3)
O21A_2 O 0.9436(6) -0.4695(4) 0.8151(3)
O22_2 O 0.0457(6) 0.4255(4) 0.2798(3)
O22A_2 O 0.9543(6) -0.4255(4) 0.7202(3)
O23_2 O 0.9496(7) -0.4243(4) 0.2399(3)
O23A_2 O 0.0504(7) 0.4243(4) 0.7601(3)
O24_2 O 0.7577(8) -0.3975(4) 0.2753(4)
O24A_2 O 0.2423(8) 0.3975(4) 0.7247(4)
O27 O 0.9359(15) 0.3308(7) 0.3781(5)
O28 O 0.843(3) 0.8948(11) 0.4121(8)
O29 O 0.661(2) 0.3260(12) 0.5927(10)
O30 O 0.783(3) 0.3070(17) 0.4898(13)
O31 O 0.705(4) 0.4872(18) 0.0714(16)
O32? O 0.796(3) 0.3391(18) 0.3929(11)
O33? O 0.025(3) 0.2252(16) 0.5268(15)
loop_
_geom_bond_atom_site_label_1
_geom_bond_atom_site_label_2
_geom_bond_site_symmetry_1
_geom_bond_site_symmetry_2
Cd1 N1 1_555 1_555
Cd2 N4 1_555 1_555
Cd3 N9 1_555 1_555
Cd4 N7 1_555 1_555
Cd5 O11 1_555 1_555
Cd6 O14 1_555 1_555
C1 C2 1_555 1_555
C2 C4 1_555 1_555
C3 C4 1_555 1_555
C4 C6 1_555 1_555
C5 C3 1_555 1_555
C6 O3 1_555 1_555
C7 C8 1_555 1_555
C8 C10 1_555 1_555
C9 C10 1_555 1_555
C10 C11 1_555 1_555
C11 O9 1_555 1_555
C12 C9 1_555 1_555
C13 C14 1_555 1_555
C14 C15 1_555 1_555
C15 H1 1_555 1_555
C16 C15 1_555 1_555
H2 C16 1_555 1_555
C17 C16 1_555 1_555
H3 C17 1_555 1_555
C18 C17 1_555 1_555
C19 C14 1_555 1_555
C20 C19 1_555 1_555
C21 C18 1_555 1_555
C22 C23 1_555 1_555
C23 C24 1_555 1_555
C24 H4 1_555 1_555
C25 C24 1_555 1_555
H5 C25 1_555 1_555
C26 C25 1_555 1_555
H6 C26 1_555 1_555
C27 C26 1_555 1_555
C28 C23 1_555 1_555
C29 C28 1_555 1_555
C30 C27 1_555 1_555
C31 H7 1_555 1_555
C32 C31 1_555 1_555
H8 C32 1_555 1_555
C33 C32 1_555 1_555
C34 C33 1_555 1_555
H9 C34 1_555 1_555
C35 C34 1_555 1_555
H10 C35 1_555 1_555
C36 H11 1_555 1_555
C37 C36 1_555 1_555
H12 C37 1_555 1_555
C38 C33 1_555 1_555
C39 C38 1_555 1_555
H13 C39 1_555 1_555
C40 C39 1_555 1_555
H14 C40 1_555 1_555
C41 H15 1_555 1_555
C42 C41 1_555 1_555
H16 C42 1_555 1_555
C43 C42 1_555 1_555
C44 C43 1_555 1_555
H17 C44 1_555 1_555
C45 C44 1_555 1_555
H18 C45 1_555 1_555
C46 H19 1_555 1_555
C47 C46 1_555 1_555
H20 C47 1_555 1_555
C48 C43 1_555 1_555
C49 C48 1_555 1_555
H21 C49 1_555 1_555
C50 C49 1_555 1_555
H22 C50 1_555 1_555
C51 H23 1_555 1_555
C52 C51 1_555 1_555
H24 C52 1_555 1_555
C53 C52 1_555 1_555
C54 C53 1_555 1_555
H25 C54 1_555 1_555
C55 C54 1_555 1_555
H26 C55 1_555 1_555
C56 H27 1_555 1_555
C57 C56 1_555 1_555
H28 C57 1_555 1_555
C58 C57 1_555 1_555
C59 C58 1_555 1_555
H29 C59 1_555 1_555
C60 C59 1_555 1_555
H30 C60 1_555 1_555
C61 C58 1_555 1_555
C62 C61 1_555 1_555
H31 C62 1_555 1_555
C63 C62 1_555 1_555
H32 C63 1_555 1_555
C64 H33 1_555 1_555
C65 C61 1_555 1_555
H34 C65 1_555 1_555
C66 H35 1_555 1_555
C67 C66 1_555 1_555
H36 C67 1_555 1_555
C68 C67 1_555 1_555
C69 C68 1_555 1_555
H37 C69 1_555 1_555
C70 C69 1_555 1_555
H38 C70 1_555 1_555
C71 H39 1_555 1_555
C72 C71 1_555 1_555
H40 C72 1_555 1_555
C73 C68 1_555 1_555
C74 C73 1_555 1_555
H41 C74 1_555 1_555
C75 C74 1_555 1_555
H42 C75 1_555 1_555
C76 H43 1_555 1_555
H44 C76 1_555 1_555
C77 C76 1_555 1_555
H45 C77 1_555 1_555
H46 C77 1_555 1_555
N1 C31 1_555 1_555
N2 C36 1_555 1_555
N3 C41 1_555 1_555
N4 C46 1_555 1_555
N5 Cd2 1_555 1_555
N6 C71 1_555 1_555
N7 C56 1_555 1_555
N8 C63 1_555 1_555
N9 C51 1_555 1_555
O1 C1 1_555 1_555
O2 C1 1_555 1_555
O3 Cd3_3 1_555 1_555
O4 C6 1_555 1_555
O5 Cd1 1_555 1_555
O6 Cd1 1_555 1_555
O7 Cd1 1_555 1_555
O8 Cd1 1_555 1_555
O9 Cd6_2 1_555 1_555
O10 Cd2 1_555 1_555
O11 Cd2 1_555 1_555
O12 Cd5 1_555 1_555
O13 Cd2 1_555 1_555
O14 C22 1_555 1_555
O15 Cd5 1_555 1_555
O16 Cd5 1_555 1_555
O17 Cd4 1_555 1_555
O18 Cd3 1_555 1_555
O19 Cd6 1_555 1_555
O20 Cd2 1_555 1_555
O21 C20 1_555 1_555
O22 C20 1_555 1_555
O23 C13 1_555 1_555
O24 C13 1_555 1_555
O25 Cd6 1_555 1_555
O26 C77 1_555 1_555
H47 O26 1_555 1_555
C78 C3 1_555 1_555
H48 C78 1_555 1_555
C79 C2 1_555 1_555
H49 C79 1_555 1_555
C80 C8 1_555 1_555
H50 C80 1_555 1_555
C81 C9 1_555 1_555
H51 C81 1_555 1_555
C82 C80 1_555 1_555
H52 C82 1_555 1_555
C83 C78 1_555 1_555
H53 C83 1_555 1_555
C51A H23A 1_555 1_555
C52A C51A 1_555 1_555
H24A C52A 1_555 1_555
C53A C53 1_555 1_555
C54A C53A 1_555 1_555
H25A C54A 1_555 1_555
C55A C54A 1_555 1_555
H26A C55A 1_555 1_555
N9A C51A 1_555 1_555
Cd1A N1A 1_555 1_555
Cd2A N4A 1_555 1_555
Cd3A O18A 1_555 1_555
Cd4A N2 1_555 1_555
Cd5A N3 1_555 1_555
Cd6A O14A 1_555 1_555
C1A C2A 1_555 1_555
C2A C4A 1_555 1_555
C3A C4A 1_555 1_555
C4A C6A 1_555 1_555
C5A C3A 1_555 1_555
C6A O3A 1_555 1_555
C7A C8A 1_555 1_555
C8A C10A 1_555 1_555
C9A C10A 1_555 1_555
C10A C11A 1_555 1_555
C11A O9A 1_555 1_555
C12A C9A 1_555 1_555
C13A C14A 1_555 1_555
C14A C15A 1_555 1_555
C15A H1A 1_555 1_555
C16A C15A 1_555 1_555
H2A C16A 1_555 1_555
C17A C16A 1_555 1_555
H3A C17A 1_555 1_555
C18A C17A 1_555 1_555
C19A C14A 1_555 1_555
C20A C19A 1_555 1_555
C21A C18A 1_555 1_555
C22A C23A 1_555 1_555
C23A C24A 1_555 1_555
C24A H4A 1_555 1_555
C25A C24A 1_555 1_555
H5A C25A 1_555 1_555
C26A C25A 1_555 1_555
H6A C26A 1_555 1_555
C27A C26A 1_555 1_555
C28A C23A 1_555 1_555
C29A C28A 1_555 1_555
C30A C27A 1_555 1_555
C31A H7A 1_555 1_555
C32A C31A 1_555 1_555
H8A C32A 1_555 1_555
C33A C32A 1_555 1_555
C34A C33A 1_555 1_555
H9A C34A 1_555 1_555
C35A C34A 1_555 1_555
H10A C35A 1_555 1_555
C36A H11A 1_555 1_555
C37A C36A 1_555 1_555
H12A C37A 1_555 1_555
C38A C33A 1_555 1_555
C39A C38A 1_555 1_555
H13A C39A 1_555 1_555
C40A C39A 1_555 1_555
H14A C40A 1_555 1_555
C41A H15A 1_555 1_555
C42A C41A 1_555 1_555
H16A C42A 1_555 1_555
C43A C42A 1_555 1_555
C44A C43A 1_555 1_555
H17A C44A 1_555 1_555
C45A C44A 1_555 1_555
H18A C45A 1_555 1_555
C46A H19A 1_555 1_555
C47A C46A 1_555 1_555
H20A C47A 1_555 1_555
C48A C43A 1_555 1_555
C49A C48A 1_555 1_555
H21A C49A 1_555 1_555
C50A C49A 1_555 1_555
H22A C50A 1_555 1_555
C56A H27A 1_555 1_555
C57A C56A 1_555 1_555
H28A C57A 1_555 1_555
C58A C57A 1_555 1_555
C59A C58A 1_555 1_555
H29A C59A 1_555 1_555
C60A C59A 1_555 1_555
H30A C60A 1_555 1_555
C61A C58A 1_555 1_555
C62A C61A 1_555 1_555
H31A C62A 1_555 1_555
C63A C62A 1_555 1_555
H32A C63A 1_555 1_555
C64A H33A 1_555 1_555
C65A C61A 1_555 1_555
H34A C65A 1_555 1_555
C66A H35A 1_555 1_555
C67A C66A 1_555 1_555
H36A C67A 1_555 1_555
C68A C67A 1_555 1_555
C69A C68A 1_555 1_555
H37A C69A 1_555 1_555
C70A C69A 1_555 1_555
H38A C70A 1_555 1_555
C71A H39A 1_555 1_555
C72A C71A 1_555 1_555
H40A C72A 1_555 1_555
C73A C68A 1_555 1_555
C74A C73A 1_555 1_555
H41A C74A 1_555 1_555
C75A C74A 1_555 1_555
H42A C75A 1_555 1_555
C76A H43A 1_555 1_555
H44A C76A 1_555 1_555
C77A C76A 1_555 1_555
H45A C77A 1_555 1_555
H46A C77A 1_555 1_555
N1A C31A 1_555 1_555
N2A Cd4 1_555 1_555
N3A Cd5 1_555 1_555
N4A C46A 1_555 1_555
N5A Cd2A 1_555 1_555
N6A C71A 1_555 1_555
N7A Cd4A 1_555 1_555
N8A C63A 1_555 1_555
O1A C1A 1_555 1_555
O2A C1A 1_555 1_555
O3A Cd3A_3 1_555 1_555
O4A C6A 1_555 1_555
O5A Cd1A 1_555 1_555
O6A Cd1A 1_555 1_555
O7A Cd1A 1_555 1_555
O8A Cd1A 1_555 1_555
O9A Cd6A_3 1_555 1_555
O10A Cd2A 1_555 1_555
O11A Cd2A 1_555 1_555
O12A Cd5A 1_555 1_555
O13A Cd2A 1_555 1_555
O14A C22A 1_555 1_555
O15A Cd5A 1_555 1_555
O16A Cd5A 1_555 1_555
O17A Cd4A 1_555 1_555
O18A C30A 1_555 1_555
O19A Cd6A 1_555 1_555
O20A Cd2A 1_555 1_555
O21A C20A 1_555 1_555
O22A C20A 1_555 1_555
O23A C13A 1_555 1_555
O24A C13A 1_555 1_555
O25A Cd6A 1_555 1_555
O26A C77A 1_555 1_555
H47A O26A 1_555 1_555
C78A C3A 1_555 1_555
H48A C78A 1_555 1_555
C79A C2A 1_555 1_555
H49A C79A 1_555 1_555
C80A C8A 1_555 1_555
H50A C80A 1_555 1_555
C81A C9A 1_555 1_555
H51A C81A 1_555 1_555
C82A C80A 1_555 1_555
H52A C82A 1_555 1_555
C83A C78A 1_555 1_555
H53A C83A 1_555 1_555
Cd1_2 O21 1_555 1_555
Cd1A_2 O21A 1_555 1_555
Cd3_2 N6A 1_555 1_555
Cd3_3 O5 1_555 1_555
Cd3_4 O23 1_555 1_555
Cd3A_2 O23A 1_555 1_555
Cd3A_3 N9A 1_555 1_555
Cd3A_4 N6 1_555 1_555
Cd4_2 O1 1_555 1_555
Cd4A_2 O1A 1_555 1_555
Cd5_2 O2 1_555 1_555
Cd5A_2 O2A 1_555 1_555
Cd6_2 O8 1_555 1_555
Cd6_3 N8A 1_555 1_555
Cd6A_2 N8 1_555 1_555
Cd6A_3 O8A 1_555 1_555
N6_2 Cd3A 1_555 1_555
N6A_2 Cd3 1_555 1_555
N8_2 Cd6A 1_555 1_555
N8A_2 Cd6 1_555 1_555
N9A_2 Cd3A 1_555 1_555
O1_2 Cd4 1_555 1_555
O1A_2 Cd4A 1_555 1_555
O2_2 Cd5 1_555 1_555
O2A_2 Cd5A 1_555 1_555
O3_2 Cd3 1_555 1_555
O3A_2 Cd3A 1_555 1_555
O4_2 Cd4 1_555 1_555
O4A_2 Cd4A 1_555 1_555
O5_2 Cd3 1_555 1_555
O5A_2 Cd3A 1_555 1_555
O8_2 Cd6 1_555 1_555
O8A_2 Cd6A 1_555 1_555
O9_2 Cd6 1_555 1_555
O9A_2 Cd6A 1_555 1_555
O21_2 Cd1 1_555 1_555
O21A_2 Cd1A 1_555 1_555
O22_2 Cd1 1_555 1_555
O22A_2 Cd1A 1_555 1_555
O23_2 Cd3 1_555 1_555
O23A_2 Cd3A 1_555 1_555
O24_2 Cd4 1_555 1_555
O24A_2 Cd4A 1_555 1_555
C5 O5 1_555 1_555
C5 O6 1_555 1_555
C7 O7 1_555 1_555
C7 O8 1_555 1_555
C11 O10 1_555 1_555
C12 O11 1_555 1_555
C12 O12 1_555 1_555
C18 C19 1_555 1_555
C21 O19 1_555 1_555
C21 O20 1_555 1_555
C22 O13 1_555 1_555
C27 C28 1_555 1_555
C29 O15 1_555 1_555
C29 O16 1_555 1_555
C30 O17 1_555 1_555
C30 O18 1_555 1_555
C35 N1 1_555 1_555
C37 C38 1_555 1_555
C40 N2 1_555 1_555
C45 N3 1_555 1_555
C47 C48 1_555 1_555
C50 N4 1_555 1_555
C55 N9 1_555 1_555
C60 N7 1_555 1_555
C64 C65 1_555 1_555
C64 N8 1_555 1_555
C66 N5 1_555 1_555
C70 N5 1_555 1_555
C72 C73 1_555 1_555
C75 N6 1_555 1_555
C76 O25 1_555 1_555
O4 Cd4_2 1_555 1_555
O22 Cd1_2 1_555 1_555
O24 Cd4_2 1_555 1_555
C79 C83 1_555 1_555
C81 C82 1_555 1_555
C52A C53A 1_555 1_555
C55A N9A 1_555 1_555
Cd5A O11A 1_555 1_555
C5A O5A 1_555 1_555
C5A O6A 1_555 1_555
C7A O7A 1_555 1_555
C7A O8A 1_555 1_555
C11A O10A 1_555 1_555
C12A O11A 1_555 1_555
C12A O12A 1_555 1_555
C18A C19A 1_555 1_555
C21A O19A 1_555 1_555
C21A O20A 1_555 1_555
C22A O13A 1_555 1_555
C27A C28A 1_555 1_555
C29A O15A 1_555 1_555
C29A O16A 1_555 1_555
C30A O17A 1_555 1_555
C35A N1A 1_555 1_555
C36A N2A 1_555 1_555
C37A C38A 1_555 1_555
C40A N2A 1_555 1_555
C41A N3A 1_555 1_555
C45A N3A 1_555 1_555
C47A C48A 1_555 1_555
C50A N4A 1_555 1_555
C56A N7A 1_555 1_555
C60A N7A 1_555 1_555
C64A C65A 1_555 1_555
C64A N8A 1_555 1_555
C66A N5A 1_555 1_555
C70A N5A 1_555 1_555
C72A C73A 1_555 1_555
C75A N6A 1_555 1_555
C76A O25A 1_555 1_555
O4A Cd4A_2 1_555 1_555
O5A Cd3A_3 1_555 1_555
O22A Cd1A_2 1_555 1_555
O24A Cd4A_2 1_555 1_555
C79A C83A 1_555 1_555
C81A C82A 1_555 1_555
Cd1_2 O8_2 1_555 1_555
Cd1A_2 O8A_2 1_555 1_555

#END
