
#######################################################################
#
#                 Cambridge Crystallographic Data Centre
#                                CCDC 
#
#######################################################################
#
# If this CIF has been generated from an entry in the Cambridge 
# Structural Database, then it will include bibliographic, chemical, 
# crystal, experimental, refinement or atomic coordinate data resulting 
# from the CCDC's data processing and validation procedures.
#
#######################################################################

data_TORJOB
_symmetry_cell_setting           orthorhombic
_symmetry_space_group_name_H-M   'P n m a'
_symmetry_Int_Tables_number      62
_space_group_name_Hall           '-P 2ac 2n'
loop_
_symmetry_equiv_pos_site_id
_symmetry_equiv_pos_as_xyz
1 x,y,z
2 1/2-x,-y,1/2+z
3 -x,1/2+y,-z
4 1/2+x,1/2-y,1/2-z
5 -x,-y,-z
6 1/2+x,y,1/2-z
7 x,1/2-y,z
8 1/2-x,1/2+y,1/2+z
_cell_length_a                   10.959(2)
_cell_length_b                   16.565(3)
_cell_length_c                   19.750(4)
_cell_angle_alpha                90
_cell_angle_beta                 90
_cell_angle_gamma                90
_cell_volume                     3585.33
loop_
_atom_site_label
_atom_site_type_symbol
_atom_site_fract_x
_atom_site_fract_y
_atom_site_fract_z
N1 N 0.4182(10) 0.2500 1.0284(5)
Eu1 Eu 0.29256(6) 0.2500 0.70399(3)
O1 O 0.1861(9) 0.2500 0.8054(4)
O2 O -0.0076(10) 0.2500 0.8328(6)
O3 O 0.3428(11) 0.2500 1.1497(5)
H1 H 0.3493 0.2500 1.1910
O4 O 0.1476(13) 0.2500 1.1741(6)
O5 O 0.3642(7) -0.1439(5) 1.1863(4)
O6 O 0.2228(8) -0.1547(5) 1.1096(4)
C1 C 0.1024(12) 0.2500 0.8471(6)
C2 C 0.1346(12) 0.2500 0.9221(6)
C3 C 0.0459(13) 0.2500 0.9708(8)
H2 H -0.0359 0.2500 0.9583
C4 C 0.0777(13) 0.2500 1.0388(7)
H3 H 0.0169 0.2500 1.0716
C5 C 0.1997(13) 0.2500 1.0584(7)
C6 C 0.2908(12) 0.2500 1.0089(7)
C7 C 0.2557(12) 0.2500 0.9401(6)
H4 H 0.3153 0.2500 0.9065
C8 C 0.2269(16) 0.2500 1.1330(7)
C9 C 0.4827(9) 0.1761(6) 1.0043(5)
H5 H 0.5693 0.1814 1.0134
H6 H 0.4721 0.1710 0.9557
C10 C 0.4352(9) 0.1006(6) 1.0385(5)
C11 C 0.4823(11) 0.0764(7) 1.1001(6)
H7 H 0.5417 0.1079 1.1210
C12 C 0.4430(10) 0.0068(6) 1.1312(6)
H8 H 0.4760 -0.0081 1.1728
C13 C 0.3538(9) -0.0421(6) 1.1009(5)
C14 C 0.3058(9) -0.0173(6) 1.0391(6)
H9 H 0.2461 -0.0484 1.0181
C15 C 0.3461(10) 0.0536(6) 1.0084(5)
H10 H 0.3127 0.0694 0.9672
C16 C 0.3126(9) -0.1177(6) 1.1336(5)
O7 O 0.3912(7) 0.1438(5) 0.7673(5)
H11 H 0.4522 0.1652 0.7872
H12 H 0.3562 0.1141 0.7966
O5F O 0.3642(7) 0.6439(5) 1.1863(4)
O6F O 0.2228(8) 0.6547(5) 1.1096(4)
C9F C 0.4827(9) 0.3239(6) 1.0043(5)
H5F H 0.5693 0.3186 1.0134
H6F H 0.4721 0.3290 0.9557
C10F C 0.4352(9) 0.3994(6) 1.0385(5)
C11F C 0.4823(11) 0.4236(7) 1.1001(6)
H7F H 0.5417 0.3921 1.1210
C12F C 0.4430(10) 0.4932(6) 1.1312(6)
H8F H 0.4760 0.5081 1.1728
C13F C 0.3538(9) 0.5421(6) 1.1009(5)
C14F C 0.3058(9) 0.5173(6) 1.0391(6)
H9F H 0.2461 0.5484 1.0181
C15F C 0.3461(10) 0.4464(6) 1.0084(5)
H10F H 0.3127 0.4306 0.9672
C16F C 0.3126(9) 0.6177(6) 1.1336(5)
O7F O 0.3912(7) 0.3562(5) 0.7673(5)
H11F H 0.4522 0.3348 0.7872
H12F H 0.3562 0.3859 0.7966
Eu1A Eu 0.20744(6) -0.2500 1.20399(3)
Eu1A_2 Eu 0.20744(6) 0.7500 1.20399(3)
Eu1C Eu -0.20744(6) 0.2500 0.79601(3)
O2C O 0.4924(10) 0.2500 0.6672(6)
O5A O 0.1358(7) 0.1439(5) 0.6863(4)
O5G O 0.1358(7) 0.3561(5) 0.6863(4)
O6A O 0.2772(8) 0.1547(5) 0.6096(4)
O6G O 0.2772(8) 0.3453(5) 0.6096(4)
O8 O 0.2422(13) 0.0633(9) 0.8481(8)
C17 C 0.1602(14) 0.0180(9) 0.8471(8)
N2 N 0.1591(16) -0.0582(10) 0.8147(9)
C18 C 0.0454(16) 0.0264(12) 0.8899(11)
H13 H -0.0001 0.0743 0.8772
H14 H 0.0656 0.0296 0.9377
C19 C 0.045(2) -0.1015(13) 0.8235(13)
H15 H 0.0597 -0.1553 0.8410
H16 H 0.0019 -0.1058 0.7808
C20 C -0.029(2) -0.0509(17) 0.8745(18)
H17 H -0.0423 -0.0815 0.9158
H18 H -0.1077 -0.0369 0.8555
C21 C 0.248(2) -0.0789(18) 0.7652(15)
H19 H 0.3208 -0.0484 0.7729
H20 H 0.2164 -0.0669 0.7209
H21 H 0.2657 -0.1355 0.7683
O9 O 0.099(3) 0.2500 1.3140(18)
H22 H 0.0224 0.2500 1.3064
H23 H 0.1149 0.2500 1.2702
loop_
_geom_bond_atom_site_label_1
_geom_bond_atom_site_label_2
_geom_bond_site_symmetry_1
_geom_bond_site_symmetry_2
N1 C6 1_555 1_555
Eu1 O1 1_555 1_555
O1 C1 1_555 1_555
O2 C1 1_555 1_555
O3 H1 1_555 1_555
O4 C8 1_555 1_555
O5 C16 1_555 1_555
O6 C16 1_555 1_555
C1 C2 1_555 1_555
C2 C3 1_555 1_555
C3 H2 1_555 1_555
C4 C3 1_555 1_555
H3 C4 1_555 1_555
C5 C4 1_555 1_555
C6 C5 1_555 1_555
C7 C2 1_555 1_555
H4 C7 1_555 1_555
C8 O3 1_555 1_555
C9 N1 1_555 1_555
H5 C9 1_555 1_555
H6 C9 1_555 1_555
C10 C9 1_555 1_555
C11 C10 1_555 1_555
H7 C11 1_555 1_555
C12 C11 1_555 1_555
H8 C12 1_555 1_555
C13 C12 1_555 1_555
C14 C13 1_555 1_555
H9 C14 1_555 1_555
C15 C10 1_555 1_555
H10 C15 1_555 1_555
C16 C13 1_555 1_555
O7 Eu1 1_555 1_555
H11 O7 1_555 1_555
H12 O7 1_555 1_555
O8 C17 1_555 1_555
C17 N2 1_555 1_555
N2 C19 1_555 1_555
C18 C17 1_555 1_555
H13 C18 1_555 1_555
H14 C18 1_555 1_555
C19 H15 1_555 1_555
H16 C19 1_555 1_555
C20 C18 1_555 1_555
H17 C20 1_555 1_555
H18 C20 1_555 1_555
C21 N2 1_555 1_555
H19 C21 1_555 1_555
H20 C21 1_555 1_555
H21 C21 1_555 1_555
O9 H22 1_555 1_555
H23 O9 1_555 1_555
O5F C16F 1_555 1_555
O6F C16F 1_555 1_555
C9F N1 1_555 1_555
H5F C9F 1_555 1_555
H6F C9F 1_555 1_555
C10F C9F 1_555 1_555
C11F C10F 1_555 1_555
H7F C11F 1_555 1_555
C12F C11F 1_555 1_555
H8F C12F 1_555 1_555
C13F C12F 1_555 1_555
C14F C13F 1_555 1_555
H9F C14F 1_555 1_555
C15F C10F 1_555 1_555
H10F C15F 1_555 1_555
C16F C13F 1_555 1_555
O7F Eu1 1_555 1_555
H11F O7F 1_555 1_555
H12F O7F 1_555 1_555
Eu1A O5 1_555 1_555
Eu1A_2 O5F 1_555 1_555
Eu1C O2 1_555 1_555
O2C Eu1 1_555 1_555
O5A Eu1 1_555 1_555
O5G Eu1 1_555 1_555
O6A Eu1 1_555 1_555
O6G Eu1 1_555 1_555
O6 Eu1A 1_555 1_555
C5 C8 1_555 1_555
C6 C7 1_555 1_555
C14 C15 1_555 1_555
C19 C20 1_555 1_555
O6F Eu1A_2 1_555 1_555
C14F C15F 1_555 1_555

#END
