
#######################################################################
#
#                 Cambridge Crystallographic Data Centre
#                                CCDC 
#
#######################################################################
#
# If this CIF has been generated from an entry in the Cambridge 
# Structural Database, then it will include bibliographic, chemical, 
# crystal, experimental, refinement or atomic coordinate data resulting 
# from the CCDC's data processing and validation procedures.
#
#######################################################################

data_TOWLOI
_symmetry_cell_setting           cubic
_symmetry_space_group_name_H-M   'P a -3'
_symmetry_Int_Tables_number      205
_space_group_name_Hall           '-P 2ac 2ab 3'
loop_
_symmetry_equiv_pos_site_id
_symmetry_equiv_pos_as_xyz
1 x,y,z
2 z,x,y
3 y,z,x
4 1/2-y,-z,1/2+x
5 1/2+z,1/2-x,-y
6 -y,1/2+z,1/2-x
7 1/2-z,-x,1/2+y
8 -z,1/2+x,1/2-y
9 1/2+y,1/2-z,-x
10 1/2-x,-y,1/2+z
11 1/2+x,1/2-y,-z
12 -x,1/2+y,1/2-z
13 -x,-y,-z
14 -z,-x,-y
15 -y,-z,-x
16 1/2+y,z,1/2-x
17 1/2-z,1/2+x,y
18 y,1/2-z,1/2+x
19 1/2+z,x,1/2-y
20 z,1/2-x,1/2+y
21 1/2-y,1/2+z,x
22 1/2+x,y,1/2-z
23 1/2-x,1/2+y,z
24 x,1/2-y,1/2+z
_cell_length_a                   19.153(3)
_cell_length_b                   19.153(3)
_cell_length_c                   19.153(3)
_cell_angle_alpha                90
_cell_angle_beta                 90
_cell_angle_gamma                90
_cell_volume                     7026.04
loop_
_atom_site_label
_atom_site_type_symbol
_atom_site_fract_x
_atom_site_fract_y
_atom_site_fract_z
Fe1 Fe 0.89868(12) 0.37255(16) 0.23480(14)
O1 O 0.8458(6) 0.3458(6) 0.1542(6)
O2 O 0.9552(6) 0.4009(9) 0.3208(7)
H1 H 0.9279 0.4127 0.3530
O3 O 0.9906(5) 0.3553(5) 0.1909(5)
O4 O 1.2244(6) 0.3971(8) 0.2779(8)
O5 O 0.9742(7) 0.2915(9) 0.0922(6)
C1 C 1.0117(11) 0.3245(14) 0.1372(10)
C2 C 1.2492(11) 0.3830(14) 0.2178(10)
O6 O 1.3152(6) 0.3863(8) 0.2050(8)
C3 C 1.1321(5) 0.3556(3) 0.1723(5)
H2 H 1.1130 0.3796 0.2113
C4 C 1.2040(5) 0.3525(6) 0.1632(5)
C5 C 1.0880(4) 0.3235(6) 0.1244(6)
C6 C 1.1156(6) 0.2867(10) 0.0650(10)
H3 H 1.0859 0.2647 0.0319
C7 C 1.1878(6) 0.2852(7) 0.0583(5)
H4 H 1.2078 0.2614 0.0196
C8 C 1.2319(4) 0.3173(8) 0.1062(6)
H5 H 1.2811 0.3152 0.1000
Fe1G Fe 0.76520(14) 0.39868(12) 0.12745(16)
O2G O 0.6792(7) 0.4552(6) 0.0991(9)
O3G O 0.8091(5) 0.4906(5) 0.1447(5)
O4G O 0.7221(8) 0.7244(6) 0.1029(8)
O5G O 0.9078(6) 0.4742(7) 0.2085(9)
C1G C 0.8628(10) 0.5117(11) 0.1755(14)
C2G C 0.7822(10) 0.7492(11) 0.1170(14)
O6G O 0.7950(8) 0.8152(6) 0.1137(8)
C3G C 0.8277(5) 0.6321(5) 0.1444(3)
H2G H 0.7887 0.6130 0.1204
C4G C 0.8368(5) 0.7040(5) 0.1475(6)
C5G C 0.8756(6) 0.5880(4) 0.1765(6)
C6G C 0.9350(10) 0.6156(6) 0.2133(10)
H3G H 0.9681 0.5859 0.2353
C7G C 0.9417(5) 0.6878(6) 0.2148(7)
H4G H 0.9804 0.7078 0.2386
C8G C 0.8938(6) 0.7319(4) 0.1827(8)
H5G H 0.9000 0.7811 0.1848
Fe1H Fe 0.87255(16) 0.26520(14) 0.10132(12)
O2H O 0.9009(9) 0.1792(7) 0.0448(6)
O3H O 0.8553(5) 0.3091(5) 0.0094(5)
O4H O 0.8971(8) 0.2221(8) -0.2244(6)
O5H O 0.7915(9) 0.4078(6) 0.0258(7)
C1H C 0.8245(14) 0.3628(10) -0.0117(11)
C2H C 0.8830(14) 0.2822(10) -0.2492(11)
O6H O 0.8863(8) 0.2950(8) -0.3152(6)
C3H C 0.8556(3) 0.3277(5) -0.1321(5)
H2H H 0.8796 0.2887 -0.1130
C4H C 0.8525(6) 0.3368(5) -0.2040(5)
C5H C 0.8235(6) 0.3756(6) -0.0880(4)
C6H C 0.7867(10) 0.4350(10) -0.1156(6)
H3H H 0.7647 0.4681 -0.0859
C7H C 0.7852(7) 0.4417(5) -0.1878(6)
H4H H 0.7614 0.4804 -0.2078
C8H C 0.8173(8) 0.3938(6) -0.2319(4)
H5H H 0.8152 0.4000 -0.2811
Fe1N Fe 0.62745(16) 0.76520(14) 0.10132(12)
Fe1O Fe 0.87255(16) 0.23480(14) -0.39868(12)
Fe1P Fe 1.26520(14) 0.39868(12) 0.37255(16)
Fe1R Fe 0.73480(14) 0.89868(12) 0.12745(16)
Fe1U Fe 1.39868(12) 0.37255(16) 0.26520(14)
Fe1W Fe 0.89868(12) 0.12745(16) -0.26520(14)
O4O O 0.8971(8) 0.2779(8) 0.2756(6)
O4R O 0.7779(8) 0.2244(6) 0.1029(8)
O4U O 0.7244(6) 0.3971(8) 0.2221(8)
O6O O 0.8863(8) 0.2050(8) 0.1848(6)
O6R O 0.7050(8) 0.3152(6) 0.1137(8)
O6U O 0.8152(6) 0.3863(8) 0.2950(8)
loop_
_geom_bond_atom_site_label_1
_geom_bond_atom_site_label_2
_geom_bond_site_symmetry_1
_geom_bond_site_symmetry_2
Fe1 O1 1_555 1_555
O1 Fe1G 1_555 1_555
O2 Fe1 1_555 1_555
H1 O2 1_555 1_555
O3 Fe1 1_555 1_555
O4 C2 1_555 1_555
O5 C1 1_555 1_555
C1 O3 1_555 1_555
C2 O6 1_555 1_555
O6 Fe1U 1_555 1_555
C3 H2 1_555 1_555
C4 C2 1_555 1_555
C5 C1 1_555 1_555
C6 C5 1_555 1_555
H3 C6 1_555 1_555
C7 C6 1_555 1_555
H4 C7 1_555 1_555
C8 C4 1_555 1_555
H5 C8 1_555 1_555
Fe1G O2G 1_555 1_555
O3G Fe1G 1_555 1_555
O4G C2G 1_555 1_555
O5G Fe1 1_555 1_555
C1G O3G 1_555 1_555
C2G O6G 1_555 1_555
O6G Fe1R 1_555 1_555
C3G H2G 1_555 1_555
C4G C2G 1_555 1_555
C5G C1G 1_555 1_555
C6G C5G 1_555 1_555
H3G C6G 1_555 1_555
C7G C6G 1_555 1_555
H4G C7G 1_555 1_555
C8G C4G 1_555 1_555
H5G C8G 1_555 1_555
Fe1H O1 1_555 1_555
O2H Fe1H 1_555 1_555
O3H Fe1H 1_555 1_555
O4H C2H 1_555 1_555
O5H Fe1G 1_555 1_555
C1H O3H 1_555 1_555
C2H O6H 1_555 1_555
O6H Fe1O 1_555 1_555
C3H H2H 1_555 1_555
C4H C2H 1_555 1_555
C5H C1H 1_555 1_555
C6H C5H 1_555 1_555
H3H C6H 1_555 1_555
C7H C6H 1_555 1_555
H4H C7H 1_555 1_555
C8H C4H 1_555 1_555
H5H C8H 1_555 1_555
Fe1N O4G 1_555 1_555
Fe1P O4 1_555 1_555
Fe1W O4H 1_555 1_555
O4O Fe1 1_555 1_555
O4R Fe1H 1_555 1_555
O4U Fe1G 1_555 1_555
O6O Fe1H 1_555 1_555
O6R Fe1G 1_555 1_555
O6U Fe1 1_555 1_555
O5 Fe1H 1_555 1_555
C3 C4 1_555 1_555
C3 C5 1_555 1_555
C7 C8 1_555 1_555
O5G C1G 1_555 1_555
C3G C4G 1_555 1_555
C3G C5G 1_555 1_555
C7G C8G 1_555 1_555
O5H C1H 1_555 1_555
C3H C4H 1_555 1_555
C3H C5H 1_555 1_555
C7H C8H 1_555 1_555

#END
