
#######################################################################
#
#                 Cambridge Crystallographic Data Centre
#                                CCDC 
#
#######################################################################
#
# If this CIF has been generated from an entry in the Cambridge 
# Structural Database, then it will include bibliographic, chemical, 
# crystal, experimental, refinement or atomic coordinate data resulting 
# from the CCDC's data processing and validation procedures.
#
#######################################################################

data_TOWNOK
_symmetry_cell_setting           hexagonal
_symmetry_space_group_name_H-M   'P 63 2 2'
_symmetry_Int_Tables_number      182
_space_group_name_Hall           "P 6c 2'c"
loop_
_symmetry_equiv_pos_site_id
_symmetry_equiv_pos_as_xyz
1 x,y,z
2 x-y,x,1/2+z
3 -y,x-y,z
4 -x,-y,1/2+z
5 -x+y,-x,z
6 y,-x+y,1/2+z
7 x-y,-y,-z
8 -x,-x+y,-z
9 y,x,-z
10 -y,-x,1/2-z
11 -x+y,y,1/2-z
12 x,x-y,1/2-z
_cell_length_a                   12.3081(8)
_cell_length_b                   12.3081(8)
_cell_length_c                   27.375(4)
_cell_angle_alpha                90
_cell_angle_beta                 90
_cell_angle_gamma                120
_cell_volume                     3591.42
loop_
_atom_site_label
_atom_site_type_symbol
_atom_site_fract_x
_atom_site_fract_y
_atom_site_fract_z
Fe1 Fe 0.24320(4) 0.48641(8) 0.2500
S1 S 0.0000 0.34079(18) 0.0000
O1 O 0.1458(3) 0.4759(4) 0.18871(10)
O2 O 0.1124(3) 0.6367(4) 0.20308(10)
O3 O 0.1148(3) 0.3391(4) -0.01129(10)
O4 O 0.1488(2) 0.2975(5) 0.2500
H1 H 0.1713 0.2713 0.2741
O5 O 0.3333 0.6667 0.2500
C1 C 0.1119(4) 0.5502(6) 0.17649(12)
C2 C 0.0765(4) 0.5471(6) 0.12376(13)
C3 C 0.0595(5) 0.4524(5) 0.09387(16)
H2 H 0.0686 0.3850 0.1059
C4 C 0.0285(5) 0.4554(5) 0.04502(15)
C5 C 0.0163(5) 0.5525(5) 0.02651(13)
C6 C 0.0324(5) 0.6498(6) 0.05631(14)
H3 H 0.0253 0.7178 0.0436
C7 C 0.0592(5) 0.6464(6) 0.10508(15)
H4 H 0.0663 0.7104 0.1265
O1G O -0.1458(3) 0.3301(5) -0.18871(10)
O2G O -0.1124(3) 0.5243(5) -0.20308(10)
O3G O -0.1148(3) 0.2243(5) 0.01129(10)
C1G C -0.1119(4) 0.4383(7) -0.17649(12)
C2G C -0.0765(4) 0.4706(7) -0.12376(13)
C3G C -0.0595(5) 0.3929(7) -0.09387(16)
H2G H -0.0686 0.3164 -0.1059
C4G C -0.0285(5) 0.4269(7) -0.04502(15)
C5G C -0.0163(5) 0.5362(7) -0.02651(13)
C6G C -0.0324(5) 0.6174(8) -0.05631(14)
H3G H -0.0253 0.6925 -0.0436
C7G C -0.0592(5) 0.5872(8) -0.10508(15)
H4G H -0.0663 0.6441 -0.1265
Fe1B Fe 0.51359(8) 0.75679(9) 0.2500
S1B S 0.65921(18) 0.65921(18) 0.0000
O1B O 0.5241(4) 0.6699(5) 0.18871(10)
O2B O 0.3633(4) 0.4757(5) 0.20308(10)
O3B O 0.6609(4) 0.7757(5) -0.01129(10)
O4B O 0.7025(5) 0.8513(5) 0.2500
C1B C 0.4498(6) 0.5617(7) 0.17649(12)
C2B C 0.4529(6) 0.5294(7) 0.12376(13)
C3B C 0.5476(5) 0.6071(7) 0.09387(16)
H2B H 0.6150 0.6836 0.1059
C4B C 0.5446(5) 0.5731(7) 0.04502(15)
C5B C 0.4475(5) 0.4638(7) 0.02651(13)
C6B C 0.3502(6) 0.3826(8) 0.05631(14)
H3B H 0.2822 0.3075 0.0436
C7B C 0.3536(6) 0.4128(8) 0.10508(15)
H4B H 0.2896 0.3559 0.1265
O1F O 0.6699(5) 0.5241(4) -0.18871(10)
O2F O 0.4757(5) 0.3633(4) -0.20308(10)
O3F O 0.7757(5) 0.6609(4) 0.01129(10)
C1F C 0.5617(7) 0.4498(6) -0.17649(12)
C2F C 0.5294(7) 0.4529(6) -0.12376(13)
C3F C 0.6071(7) 0.5476(5) -0.09387(16)
H2F H 0.6836 0.6150 -0.1059
C4F C 0.5731(7) 0.5446(5) -0.04502(15)
C5F C 0.4638(7) 0.4475(5) -0.02651(13)
C6F C 0.3826(8) 0.3502(6) -0.05631(14)
H3F H 0.3075 0.2822 -0.0436
C7F C 0.4128(8) 0.3536(6) -0.10508(15)
H4F H 0.3559 0.2896 -0.1265
Fe1D Fe 0.24321(9) 0.75680(4) 0.2500
S1D S 0.34079(18) 1.0000 0.0000
O1D O 0.3301(5) 0.8542(3) 0.18871(10)
O2D O 0.5243(5) 0.8876(3) 0.20308(10)
O3D O 0.2243(5) 0.8852(3) -0.01129(10)
O4D O 0.1487(5) 0.8512(2) 0.2500
C1D C 0.4383(7) 0.8881(4) 0.17649(12)
C2D C 0.4706(7) 0.9235(4) 0.12376(13)
C3D C 0.3929(7) 0.9405(5) 0.09387(16)
H2D H 0.3164 0.9314 0.1059
C4D C 0.4269(7) 0.9715(5) 0.04502(15)
C5D C 0.5362(7) 0.9837(5) 0.02651(13)
C6D C 0.6174(8) 0.9676(5) 0.05631(14)
H3D H 0.6925 0.9747 0.0436
C7D C 0.5872(8) 0.9408(5) 0.10508(15)
H4D H 0.6441 0.9337 0.1265
O1H O 0.4759(4) 1.1458(3) -0.18871(10)
O2H O 0.6367(4) 1.1124(3) -0.20308(10)
O3H O 0.3391(4) 1.1148(3) 0.01129(10)
C1H C 0.5502(6) 1.1119(4) -0.17649(12)
C2H C 0.5471(6) 1.0765(4) -0.12376(13)
C3H C 0.4524(5) 1.0595(5) -0.09387(16)
H2H H 0.3850 1.0686 -0.1059
C4H C 0.4554(5) 1.0285(5) -0.04502(15)
C5H C 0.5525(5) 1.0163(5) -0.02651(13)
C6H C 0.6498(6) 1.0324(5) -0.05631(14)
H3H H 0.7178 1.0253 -0.0436
C7H C 0.6464(6) 1.0592(5) -0.10508(15)
H4H H 0.7104 1.0663 -0.1265
Fe1A Fe -0.24321(9) 0.24320(4) -0.2500
Fe1A_2 Fe 0.75679(9) 1.24320(4) -0.2500
Fe1C Fe -0.24320(4) 0.51359(8) -0.2500
Fe1C_2 Fe 0.75680(4) 0.51359(8) -0.2500
Fe1E Fe 0.48641(8) 0.24321(9) -0.2500
Fe1E_2 Fe 0.48641(8) 1.24321(9) -0.2500
O1I O 0.5241(4) 0.8542(3) 0.31129(10)
O1J O 0.3301(5) 0.4759(4) 0.31129(10)
O1K O 0.1458(3) 0.6699(5) 0.31129(10)
O2I O 0.3633(4) 0.8876(3) 0.29692(10)
O2J O 0.5243(5) 0.6367(4) 0.29692(10)
O2K O 0.1124(3) 0.4757(5) 0.29692(10)
loop_
_geom_bond_atom_site_label_1
_geom_bond_atom_site_label_2
_geom_bond_site_symmetry_1
_geom_bond_site_symmetry_2
Fe1 O1 1_555 1_555
S1 O3 1_555 1_555
O1 C1 1_555 1_555
O2 C1 1_555 1_555
O4 Fe1 1_555 1_555
H1 O4 1_555 1_555
O5 Fe1 1_555 1_555
C1 C2 1_555 1_555
C2 C3 1_555 1_555
C3 H2 1_555 1_555
C4 S1 1_555 1_555
C5 C4 1_555 1_555
C6 C5 1_555 1_555
H3 C6 1_555 1_555
C7 C2 1_555 1_555
H4 C7 1_555 1_555
O1G C1G 1_555 1_555
O2G C1G 1_555 1_555
O3G S1 1_555 1_555
C1G C2G 1_555 1_555
C2G C3G 1_555 1_555
C3G H2G 1_555 1_555
C4G S1 1_555 1_555
C5G C5 1_555 1_555
C6G C5G 1_555 1_555
H3G C6G 1_555 1_555
C7G C2G 1_555 1_555
H4G C7G 1_555 1_555
Fe1B O5 1_555 1_555
S1B O3B 1_555 1_555
O1B Fe1B 1_555 1_555
O2B Fe1 1_555 1_555
O4B Fe1B 1_555 1_555
C1B O1B 1_555 1_555
C2B C1B 1_555 1_555
C3B C2B 1_555 1_555
H2B C3B 1_555 1_555
C4B S1B 1_555 1_555
C5B C4B 1_555 1_555
C6B C5B 1_555 1_555
H3B C6B 1_555 1_555
C7B C2B 1_555 1_555
H4B C7B 1_555 1_555
O1F C1F 1_555 1_555
O2F C1F 1_555 1_555
O3F S1B 1_555 1_555
C1F C2F 1_555 1_555
C2F C3F 1_555 1_555
C3F H2F 1_555 1_555
C4F S1B 1_555 1_555
C5F C5B 1_555 1_555
C6F C5F 1_555 1_555
H3F C6F 1_555 1_555
C7F C2F 1_555 1_555
H4F C7F 1_555 1_555
Fe1D O2 1_555 1_555
S1D O3D 1_555 1_555
O1D Fe1D 1_555 1_555
O2D Fe1B 1_555 1_555
O4D Fe1D 1_555 1_555
C1D O1D 1_555 1_555
C2D C1D 1_555 1_555
C3D C2D 1_555 1_555
H2D C3D 1_555 1_555
C4D S1D 1_555 1_555
C5D C4D 1_555 1_555
C6D C5D 1_555 1_555
H3D C6D 1_555 1_555
C7D C2D 1_555 1_555
H4D C7D 1_555 1_555
O1H C1H 1_555 1_555
O2H C1H 1_555 1_555
O3H S1D 1_555 1_555
C1H C2H 1_555 1_555
C2H C3H 1_555 1_555
C3H H2H 1_555 1_555
C4H S1D 1_555 1_555
C5H C5D 1_555 1_555
C6H C5H 1_555 1_555
H3H C6H 1_555 1_555
C7H C2H 1_555 1_555
H4H C7H 1_555 1_555
Fe1A O1G 1_555 1_555
Fe1A_2 O2H 1_555 1_555
Fe1C O2G 1_555 1_555
Fe1C_2 O1F 1_555 1_555
Fe1E O2F 1_555 1_555
Fe1E_2 O1H 1_555 1_555
O1I Fe1B 1_555 1_555
O1J Fe1 1_555 1_555
O1K Fe1D 1_555 1_555
O2I Fe1D 1_555 1_555
O2J Fe1B 1_555 1_555
O2K Fe1 1_555 1_555
O5 Fe1D 1_555 1_555
C3 C4 1_555 1_555
C6 C7 1_555 1_555
C3G C4G 1_555 1_555
C4G C5G 1_555 1_555
C6G C7G 1_555 1_555
O2B C1B 1_555 1_555
C3B C4B 1_555 1_555
C6B C7B 1_555 1_555
C3F C4F 1_555 1_555
C4F C5F 1_555 1_555
C6F C7F 1_555 1_555
O2D C1D 1_555 1_555
C3D C4D 1_555 1_555
C6D C7D 1_555 1_555
C3H C4H 1_555 1_555
C4H C5H 1_555 1_555
C6H C7H 1_555 1_555

#END
