
#######################################################################
#
#                 Cambridge Crystallographic Data Centre
#                                CCDC 
#
#######################################################################
#
# If this CIF has been generated from an entry in the Cambridge 
# Structural Database, then it will include bibliographic, chemical, 
# crystal, experimental, refinement or atomic coordinate data resulting 
# from the CCDC's data processing and validation procedures.
#
#######################################################################

data_TOXHIZ
_symmetry_cell_setting           tetragonal
_symmetry_space_group_name_H-M   'I -4'
_symmetry_Int_Tables_number      82
_space_group_name_Hall           'I -4'
loop_
_symmetry_equiv_pos_site_id
_symmetry_equiv_pos_as_xyz
1 x,y,z
2 -x,-y,z
3 y,-x,-z
4 -y,x,-z
5 1/2+x,1/2+y,1/2+z
6 1/2-x,1/2-y,1/2+z
7 1/2+y,1/2-x,1/2-z
8 1/2-y,1/2+x,1/2-z
_cell_length_a                   32.610(4)
_cell_length_b                   32.610(4)
_cell_length_c                   8.1447(14)
_cell_angle_alpha                90
_cell_angle_beta                 90
_cell_angle_gamma                90
_cell_volume                     8661.17
loop_
_atom_site_label
_atom_site_type_symbol
_atom_site_fract_x
_atom_site_fract_y
_atom_site_fract_z
C1 C -0.1174(3) -0.1685(4) -0.4350(15)
C2 C -0.1430(4) -0.1608(4) -0.3121(17)
H1 H -0.1473 -0.1340 -0.2775
C3 C -0.1624(4) -0.1915(5) -0.2387(15)
H2 H -0.1804 -0.1862 -0.1526
C4 C -0.1563(4) -0.2298(4) -0.2882(16)
C5 C -0.1308(3) -0.2374(4) -0.411(2)
H3 H -0.1265 -0.2642 -0.4457
C6 C -0.1113(3) -0.2067(4) -0.484(2)
H4 H -0.0934 -0.2120 -0.5706
C7 C -0.0563(5) -0.0720(6) -0.543(2)
C8 C -0.0843(4) -0.0998(4) -0.435(2)
H5 H -0.0715 -0.1040 -0.3291
H6 H -0.1104 -0.0861 -0.4175
C9 C -0.3934(6) -0.4081(6) -0.441(3)
H7 H -0.4069 -0.3832 -0.4771
H8 H -0.3921 -0.4085 -0.3218
C10 C -0.4149(7) -0.4477(7) -0.511(3)
C11 C -0.1765(4) -0.2668(4) -0.2048(19)
C12 C -0.2119(4) -0.2842(3) -0.2754(16)
C13 C -0.2293(3) -0.3198(3) -0.2063(13)
C14 C -0.2114(3) -0.3379(3) -0.0667(14)
C15 C -0.1760(3) -0.3205(3) 0.0039(17)
C16 C -0.1586(4) -0.2849(4) -0.0652(19)
C17 C -0.2626(3) -0.3413(3) -0.2853(13)
C18 C -0.3032(3) -0.3361(4) -0.2313(16)
H9 H -0.3090 -0.3177 -0.1473
C19 C -0.3351(4) -0.3588(5) -0.3043(19)
H10 H -0.3620 -0.3553 -0.2686
C20 C -0.3263(5) -0.3867(4) -0.431(2)
C21 C -0.2857(5) -0.3919(4) -0.4855(18)
H11 H -0.2799 -0.4104 -0.5694
C22 C -0.2538(4) -0.3692(3) -0.4124(15)
H12 H -0.2269 -0.3727 -0.4482
C23 C -0.2307(3) -0.3756(4) 0.0089(16)
H13 H -0.2277 -0.3984 -0.0646
H14 H -0.2593 -0.3706 0.0285
H15 H -0.2173 -0.3817 0.1110
C24 C -0.0946(9) -0.4024(9) 0.664(4)
H16 H -0.1192 -0.4173 0.6945
H17 H -0.0941 -0.3763 0.7207
C25 C -0.0565(10) -0.4272(9) 0.699(4)
C26 C -0.1151(3) -0.3766(3) 0.4071(13)
C27 C -0.1053(3) -0.3862(3) 0.2437(14)
H18 H -0.0850 -0.4054 0.2212
C28 C -0.1261(3) -0.3668(3) 0.1143(12)
H19 H -0.1196 -0.3732 0.0061
C29 C -0.1568(3) -0.3378(3) 0.1482(10)
C30 C -0.1666(3) -0.3282(3) 0.3116(10)
H20 H -0.1869 -0.3089 0.3341
C31 C -0.1458(3) -0.3475(3) 0.4410(12)
H21 H -0.1523 -0.3412 0.5492
C32 C -0.1233(2) -0.2639(2) 0.0185(8)
H22 H -0.1118 -0.2436 -0.0536
H23 H -0.1026 -0.2838 0.0455
H24 H -0.1328 -0.2509 0.1172
C33 C -0.23414(17) -0.26907(17) -0.4199(8)
H25 H -0.2512 -0.2905 -0.4630
H26 H -0.2149 -0.2606 -0.5023
H27 H -0.2509 -0.2462 -0.3889
O1 O -0.04081(9) -0.08855(8) -0.6533(4)
O2 O -0.04997(14) -0.03566(12) -0.4599(5)
O3 O -0.4042(3) -0.4633(3) -0.6270(13)
O4 O -0.4515(3) -0.4466(3) -0.4864(14)
O5 O -0.0379(4) -0.4610(4) 0.584(2)
O6 O -0.0712(4) -0.4369(5) 0.8328(18)
O7 O -0.3538(3) -0.4126(3) -0.5129(11)
O8 O -0.09107(11) -0.13686(10) -0.5082(4)
O9 O -0.0924(4) -0.3985(4) 0.5302(15)
O10 O 0.00000(11) 0.00000(10) -0.7519(5)
Ru1 Ru 0.0000(4) -0.5000(5) 0.750(2)
Zn1 Zn -0.00460(10) -0.05579(9) -0.8005(4)
Zn2 Zn 0.00000(15) 0.00000(13) -0.5000(5)
C1A C 0.1174(3) -0.8315(4) -0.4350(15)
C2A C 0.1430(4) -0.8392(4) -0.3121(17)
H1A H 0.1473 -0.8660 -0.2775
C3A C 0.1624(4) -0.8085(5) -0.2387(15)
H2A H 0.1804 -0.8138 -0.1526
C4A C 0.1563(4) -0.7702(4) -0.2882(16)
C5A C 0.1308(3) -0.7626(4) -0.411(2)
H3A H 0.1265 -0.7358 -0.4457
C6A C 0.1113(3) -0.7933(4) -0.484(2)
H4A H 0.0934 -0.7880 -0.5706
C7A C 0.0563(5) -0.9280(6) -0.543(2)
C8A C 0.0843(4) -0.9002(4) -0.435(2)
H5A H 0.0715 -0.8960 -0.3291
H6A H 0.1104 -0.9139 -0.4175
C9A C 0.3934(6) -0.5919(6) -0.441(3)
H7A H 0.4069 -0.6168 -0.4771
H8A H 0.3921 -0.5915 -0.3218
C10A C 0.4149(7) -0.5523(7) -0.511(3)
C11A C 0.1765(4) -0.7332(4) -0.2048(19)
C12A C 0.2119(4) -0.7158(3) -0.2754(16)
C13A C 0.2293(3) -0.6802(3) -0.2063(13)
C14A C 0.2114(3) -0.6621(3) -0.0667(14)
C15A C 0.1760(3) -0.6795(3) 0.0039(17)
C16A C 0.1586(4) -0.7151(4) -0.0652(19)
C17A C 0.2626(3) -0.6587(3) -0.2853(13)
C18A C 0.3032(3) -0.6639(4) -0.2313(16)
H9A H 0.3090 -0.6823 -0.1473
C19A C 0.3351(4) -0.6412(5) -0.3043(19)
H10A H 0.3620 -0.6447 -0.2686
C20A C 0.3263(5) -0.6133(4) -0.431(2)
C21A C 0.2857(5) -0.6081(4) -0.4855(18)
H11A H 0.2799 -0.5896 -0.5694
C22A C 0.2538(4) -0.6308(3) -0.4124(15)
H12A H 0.2269 -0.6273 -0.4482
C23A C 0.2307(3) -0.6244(4) 0.0089(16)
H13A H 0.2277 -0.6016 -0.0646
H14A H 0.2593 -0.6294 0.0285
H15A H 0.2173 -0.6183 0.1110
C24A C 0.0946(9) -0.5976(9) 0.664(4)
H16A H 0.1192 -0.5827 0.6945
H17A H 0.0941 -0.6237 0.7207
C25A C 0.0565(10) -0.5728(9) 0.699(4)
C26A C 0.1151(3) -0.6234(3) 0.4071(13)
C27A C 0.1053(3) -0.6138(3) 0.2437(14)
H18A H 0.0850 -0.5946 0.2212
C28A C 0.1261(3) -0.6332(3) 0.1143(12)
H19A H 0.1196 -0.6268 0.0061
C29A C 0.1568(3) -0.6622(3) 0.1482(10)
C30A C 0.1666(3) -0.6718(3) 0.3116(10)
H20A H 0.1869 -0.6911 0.3341
C31A C 0.1458(3) -0.6525(3) 0.4410(12)
H21A H 0.1523 -0.6588 0.5492
C32A C 0.1233(2) -0.7361(2) 0.0185(8)
H22A H 0.1118 -0.7564 -0.0536
H23A H 0.1026 -0.7162 0.0455
H24A H 0.1328 -0.7491 0.1172
C33A C 0.23414(17) -0.73093(17) -0.4199(8)
H25A H 0.2512 -0.7095 -0.4630
H26A H 0.2149 -0.7394 -0.5023
H27A H 0.2509 -0.7538 -0.3889
O1A O 0.04081(9) -0.91145(8) -0.6533(4)
O2A O 0.04997(14) -0.96434(12) -0.4599(5)
O3A O 0.4042(3) -0.5367(3) -0.6270(13)
O4A O 0.4515(3) -0.5534(3) -0.4864(14)
O5A O 0.0379(4) -0.5390(4) 0.584(2)
O6A O 0.0712(4) -0.5631(5) 0.8328(18)
O7A O 0.3538(3) -0.5874(3) -0.5129(11)
O8A O 0.09107(11) -0.86314(10) -0.5082(4)
O9A O 0.0924(4) -0.6015(4) 0.5302(15)
Zn1A Zn 0.00460(10) -0.94421(9) -0.8005(4)
C1B C -0.1685(4) -0.8826(3) -0.5650(15)
C2B C -0.1608(4) -0.8570(4) -0.6879(17)
H1B H -0.1340 -0.8527 -0.7225
C3B C -0.1915(5) -0.8376(4) -0.7613(15)
H2B H -0.1862 -0.8196 -0.8474
C4B C -0.2298(4) -0.8437(4) -0.7118(16)
C5B C -0.2374(4) -0.8692(3) -0.589(2)
H3B H -0.2642 -0.8735 -0.5543
C6B C -0.2067(4) -0.8887(3) -0.516(2)
H4B H -0.2120 -0.9066 -0.4294
C7B C -0.0720(6) -0.9437(5) -0.457(2)
C8B C -0.0998(4) -0.9157(4) -0.565(2)
H5B H -0.1040 -0.9285 -0.6709
H6B H -0.0861 -0.8896 -0.5825
C9B C -0.4081(6) -0.6066(6) -0.559(3)
H7B H -0.3832 -0.5931 -0.5229
H8B H -0.4085 -0.6079 -0.6782
C10B C -0.4477(7) -0.5851(7) -0.489(3)
C11B C -0.2668(4) -0.8235(4) -0.7952(19)
C12B C -0.2842(3) -0.7881(4) -0.7246(16)
C13B C -0.3198(3) -0.7707(3) -0.7937(13)
C14B C -0.3379(3) -0.7886(3) -0.9333(14)
C15B C -0.3205(3) -0.8240(3) -1.0039(17)
C16B C -0.2849(4) -0.8414(4) -0.9348(19)
C17B C -0.3413(3) -0.7374(3) -0.7147(13)
C18B C -0.3361(4) -0.6968(3) -0.7687(16)
H9B H -0.3177 -0.6910 -0.8527
C19B C -0.3588(5) -0.6649(4) -0.6957(19)
H10B H -0.3553 -0.6380 -0.7314
C20B C -0.3867(4) -0.6737(5) -0.569(2)
C21B C -0.3919(4) -0.7143(5) -0.5145(18)
H11B H -0.4104 -0.7201 -0.4306
C22B C -0.3692(3) -0.7462(4) -0.5876(15)
H12B H -0.3727 -0.7731 -0.5518
C23B C -0.3756(4) -0.7693(3) -1.0089(16)
H13B H -0.3984 -0.7723 -0.9354
H14B H -0.3706 -0.7407 -1.0285
H15B H -0.3817 -0.7827 -1.1110
C24B C -0.4024(9) -0.9054(9) -1.664(4)
H16B H -0.4173 -0.8808 -1.6945
H17B H -0.3763 -0.9059 -1.7207
C25B C -0.4272(9) -0.9435(10) -1.699(4)
C26B C -0.3766(3) -0.8849(3) -1.4071(13)
C27B C -0.3862(3) -0.8947(3) -1.2437(14)
H18B H -0.4054 -0.9150 -1.2212
C28B C -0.3668(3) -0.8739(3) -1.1143(12)
H19B H -0.3732 -0.8804 -1.0061
C29B C -0.3378(3) -0.8432(3) -1.1482(10)
C30B C -0.3282(3) -0.8334(3) -1.3116(10)
H20B H -0.3089 -0.8131 -1.3341
C31B C -0.3475(3) -0.8542(3) -1.4410(12)
H21B H -0.3412 -0.8477 -1.5492
C32B C -0.2639(2) -0.8767(2) -1.0185(8)
H22B H -0.2436 -0.8882 -0.9464
H23B H -0.2838 -0.8974 -1.0455
H24B H -0.2509 -0.8672 -1.1172
C33B C -0.26907(17) -0.76586(17) -0.5801(8)
H25B H -0.2905 -0.7488 -0.5370
H26B H -0.2606 -0.7851 -0.4977
H27B H -0.2462 -0.7491 -0.6111
O1B O -0.08855(8) -0.95919(9) -0.3467(4)
O2B O -0.03566(12) -0.95003(14) -0.5401(5)
O3B O -0.4633(3) -0.5958(3) -0.3730(13)
O4B O -0.4466(3) -0.5485(3) -0.5136(14)
O5B O -0.4610(4) -0.9621(4) -1.584(2)
O6B O -0.4369(5) -0.9288(4) -1.8328(18)
O7B O -0.4126(3) -0.6462(3) -0.4871(11)
O8B O -0.13686(10) -0.90893(11) -0.4918(4)
O9B O -0.3985(4) -0.9076(4) -1.5302(15)
O10B O 0.00000(10) -1.00000(11) -0.2481(5)
Zn1B Zn -0.05579(9) -0.99540(10) -0.1995(4)
C1C C 0.1685(4) -0.1174(3) -0.5650(15)
C2C C 0.1608(4) -0.1430(4) -0.6879(17)
H1C H 0.1340 -0.1473 -0.7225
C3C C 0.1915(5) -0.1624(4) -0.7613(15)
H2C H 0.1862 -0.1804 -0.8474
C4C C 0.2298(4) -0.1563(4) -0.7118(16)
C5C C 0.2374(4) -0.1308(3) -0.589(2)
H3C H 0.2642 -0.1265 -0.5543
C6C C 0.2067(4) -0.1113(3) -0.516(2)
H4C H 0.2120 -0.0934 -0.4294
C7C C 0.0720(6) -0.0563(5) -0.457(2)
C8C C 0.0998(4) -0.0843(4) -0.565(2)
H5C H 0.1040 -0.0715 -0.6709
H6C H 0.0861 -0.1104 -0.5825
C9C C 0.4081(6) -0.3934(6) -0.559(3)
H7C H 0.3832 -0.4069 -0.5229
H8C H 0.4085 -0.3921 -0.6782
C10C C 0.4477(7) -0.4149(7) -0.489(3)
C11C C 0.2668(4) -0.1765(4) -0.7952(19)
C12C C 0.2842(3) -0.2119(4) -0.7246(16)
C13C C 0.3198(3) -0.2293(3) -0.7937(13)
C14C C 0.3379(3) -0.2114(3) -0.9333(14)
C15C C 0.3205(3) -0.1760(3) -1.0039(17)
C16C C 0.2849(4) -0.1586(4) -0.9348(19)
C17C C 0.3413(3) -0.2626(3) -0.7147(13)
C18C C 0.3361(4) -0.3032(3) -0.7687(16)
H9C H 0.3177 -0.3090 -0.8527
C19C C 0.3588(5) -0.3351(4) -0.6957(19)
H10C H 0.3553 -0.3620 -0.7314
C20C C 0.3867(4) -0.3263(5) -0.569(2)
C21C C 0.3919(4) -0.2857(5) -0.5145(18)
H11C H 0.4104 -0.2799 -0.4306
C22C C 0.3692(3) -0.2538(4) -0.5876(15)
H12C H 0.3727 -0.2269 -0.5518
C23C C 0.3756(4) -0.2307(3) -1.0089(16)
H13C H 0.3984 -0.2277 -0.9354
H14C H 0.3706 -0.2593 -1.0285
H15C H 0.3817 -0.2173 -1.1110
C24C C 0.4024(9) -0.0946(9) -1.664(4)
H16C H 0.4173 -0.1192 -1.6945
H17C H 0.3763 -0.0941 -1.7207
C25C C 0.4272(9) -0.0565(10) -1.699(4)
C26C C 0.3766(3) -0.1151(3) -1.4071(13)
C27C C 0.3862(3) -0.1053(3) -1.2437(14)
H18C H 0.4054 -0.0850 -1.2212
C28C C 0.3668(3) -0.1261(3) -1.1143(12)
H19C H 0.3732 -0.1196 -1.0061
C29C C 0.3378(3) -0.1568(3) -1.1482(10)
C30C C 0.3282(3) -0.1666(3) -1.3116(10)
H20C H 0.3089 -0.1869 -1.3341
C31C C 0.3475(3) -0.1458(3) -1.4410(12)
H21C H 0.3412 -0.1523 -1.5492
C32C C 0.2639(2) -0.1233(2) -1.0185(8)
H22C H 0.2436 -0.1118 -0.9464
H23C H 0.2838 -0.1026 -1.0455
H24C H 0.2509 -0.1328 -1.1172
C33C C 0.26907(17) -0.23414(17) -0.5801(8)
H25C H 0.2905 -0.2512 -0.5370
H26C H 0.2606 -0.2149 -0.4977
H27C H 0.2462 -0.2509 -0.6111
O1C O 0.08855(8) -0.04081(9) -0.3467(4)
O2C O 0.03566(12) -0.04997(14) -0.5401(5)
O3C O 0.4633(3) -0.4042(3) -0.3730(13)
O4C O 0.4466(3) -0.4515(3) -0.5136(14)
O5C O 0.4610(4) -0.0379(4) -1.584(2)
O6C O 0.4369(5) -0.0712(4) -1.8328(18)
O7C O 0.4126(3) -0.3538(3) -0.4871(11)
O8C O 0.13686(10) -0.09107(11) -0.4918(4)
O9C O 0.3985(4) -0.0924(4) -1.5302(15)
Zn1C Zn 0.05579(9) -0.00460(10) -0.1995(4)
O2_2 O -0.04997(14) -1.03566(12) -0.4599(5)
O2A_2 O 0.04997(14) 0.03566(12) -0.4599(5)
O2B_2 O -0.03566(12) 0.04997(14) -0.5401(5)
O3D O 0.0958(3) 0.0367(3) -0.1270(13)
O3E O -0.0958(3) -1.0367(3) -0.1270(13)
O3F O 0.0367(3) -0.0958(3) -0.8730(13)
O3G O -0.0367(3) -0.9042(3) -0.8730(13)
O4D O 0.0485(3) -0.9466(3) -0.9864(14)
O4D_2 O 0.0485(3) 0.0534(3) 0.0136(14)
O4E O -0.0485(3) -1.0534(3) 0.0136(14)
O4E_2 O -0.0485(3) -0.0534(3) -0.9864(14)
O4F O 0.0534(3) -0.0485(3) -1.0136(14)
O4F_2 O 0.0534(3) -0.0485(3) -0.0136(14)
O4G O -0.0534(3) -0.9515(3) -1.0136(14)
O4G_2 O -0.0534(3) -0.9515(3) -0.0136(14)
O5F O 0.0390(4) -0.4621(4) 0.916(2)
O5G O -0.0390(4) -0.5379(4) 0.916(2)
O10_2 O 0.00000(11) -1.00000(10) -0.7519(5)
O10B_2 O 0.00000(10) 0.00000(11) -0.2481(5)
Ru1B Ru -0.5000(5) -1.0000(4) -1.750(2)
Ru1B_2 Ru 0.5000(5) 0.0000(4) -1.750(2)
Zn1A_2 Zn 0.00460(10) 0.05579(9) -0.8005(4)
Zn1B_2 Zn -0.05579(9) 0.00460(10) -0.1995(4)
Zn1C_2 Zn 0.05579(9) -1.00460(10) -0.1995(4)
Zn1D Zn -0.50460(10) -0.55579(9) -0.3005(4)
Zn1D_2 Zn 0.49540(10) -0.55579(9) -0.3005(4)
Zn1E Zn -0.49540(10) -0.44421(9) -0.3005(4)
Zn1E_2 Zn 0.50460(10) -0.44421(9) -0.3005(4)
Zn1F Zn 0.44421(9) -0.49540(10) -0.6995(4)
Zn1G Zn -0.44421(9) -0.50460(10) -0.6995(4)
Zn2_2 Zn 0.00000(15) -1.00000(13) -0.5000(5)
loop_
_geom_bond_atom_site_label_1
_geom_bond_atom_site_label_2
_geom_bond_site_symmetry_1
_geom_bond_site_symmetry_2
C1 C2 1_555 1_555
C2 H1 1_555 1_555
C3 C2 1_555 1_555
H2 C3 1_555 1_555
C4 C3 1_555 1_555
C5 C4 1_555 1_555
H3 C5 1_555 1_555
C6 C1 1_555 1_555
H4 C6 1_555 1_555
C7 C8 1_555 1_555
C8 H5 1_555 1_555
H6 C8 1_555 1_555
C9 H7 1_555 1_555
H8 C9 1_555 1_555
C10 C9 1_555 1_555
C11 C4 1_555 1_555
C12 C11 1_555 1_555
C13 C12 1_555 1_555
C14 C13 1_555 1_555
C15 C14 1_555 1_555
C16 C11 1_555 1_555
C17 C13 1_555 1_555
C18 C17 1_555 1_555
H9 C18 1_555 1_555
C19 C18 1_555 1_555
H10 C19 1_555 1_555
C20 C19 1_555 1_555
C21 C20 1_555 1_555
H11 C21 1_555 1_555
C22 C17 1_555 1_555
H12 C22 1_555 1_555
C23 C14 1_555 1_555
H13 C23 1_555 1_555
H14 C23 1_555 1_555
H15 C23 1_555 1_555
C24 H16 1_555 1_555
H17 C24 1_555 1_555
C25 C24 1_555 1_555
C26 C27 1_555 1_555
C27 H18 1_555 1_555
C28 C27 1_555 1_555
H19 C28 1_555 1_555
C29 C15 1_555 1_555
C30 C29 1_555 1_555
H20 C30 1_555 1_555
C31 C26 1_555 1_555
H21 C31 1_555 1_555
C32 C16 1_555 1_555
H22 C32 1_555 1_555
H23 C32 1_555 1_555
H24 C32 1_555 1_555
C33 C12 1_555 1_555
H25 C33 1_555 1_555
H26 C33 1_555 1_555
H27 C33 1_555 1_555
O1 C7 1_555 1_555
O2 C7 1_555 1_555
O3 C10 1_555 1_555
O4 C10 1_555 1_555
O5 C25 1_555 1_555
O6 C25 1_555 1_555
O7 C9 1_555 1_555
O8 C1 1_555 1_555
O9 C24 1_555 1_555
O10 Zn1 1_555 1_555
Ru1 O5 1_555 1_555
Zn1 O1 1_555 1_555
Zn2 O2 1_555 1_555
C1A C2A 1_555 1_555
C2A H1A 1_555 1_555
C3A C2A 1_555 1_555
H2A C3A 1_555 1_555
C4A C3A 1_555 1_555
C5A C4A 1_555 1_555
H3A C5A 1_555 1_555
C6A C1A 1_555 1_555
H4A C6A 1_555 1_555
C7A C8A 1_555 1_555
C8A H5A 1_555 1_555
H6A C8A 1_555 1_555
C9A H7A 1_555 1_555
H8A C9A 1_555 1_555
C10A C9A 1_555 1_555
C11A C4A 1_555 1_555
C12A C11A 1_555 1_555
C13A C12A 1_555 1_555
C14A C13A 1_555 1_555
C15A C14A 1_555 1_555
C16A C11A 1_555 1_555
C17A C13A 1_555 1_555
C18A C17A 1_555 1_555
H9A C18A 1_555 1_555
C19A C18A 1_555 1_555
H10A C19A 1_555 1_555
C20A C19A 1_555 1_555
C21A C20A 1_555 1_555
H11A C21A 1_555 1_555
C22A C17A 1_555 1_555
H12A C22A 1_555 1_555
C23A C14A 1_555 1_555
H13A C23A 1_555 1_555
H14A C23A 1_555 1_555
H15A C23A 1_555 1_555
C24A H16A 1_555 1_555
H17A C24A 1_555 1_555
C25A C24A 1_555 1_555
C26A C27A 1_555 1_555
C27A H18A 1_555 1_555
C28A C27A 1_555 1_555
H19A C28A 1_555 1_555
C29A C15A 1_555 1_555
C30A C29A 1_555 1_555
H20A C30A 1_555 1_555
C31A C26A 1_555 1_555
H21A C31A 1_555 1_555
C32A C16A 1_555 1_555
H22A C32A 1_555 1_555
H23A C32A 1_555 1_555
H24A C32A 1_555 1_555
C33A C12A 1_555 1_555
H25A C33A 1_555 1_555
H26A C33A 1_555 1_555
H27A C33A 1_555 1_555
O1A C7A 1_555 1_555
O2A C7A 1_555 1_555
O3A C10A 1_555 1_555
O4A C10A 1_555 1_555
O5A Ru1 1_555 1_555
O6A C25A 1_555 1_555
O7A C9A 1_555 1_555
O8A C1A 1_555 1_555
O9A C24A 1_555 1_555
Zn1A O1A 1_555 1_555
C1B C2B 1_555 1_555
C2B H1B 1_555 1_555
C3B C2B 1_555 1_555
H2B C3B 1_555 1_555
C4B C3B 1_555 1_555
C5B C4B 1_555 1_555
H3B C5B 1_555 1_555
C6B C1B 1_555 1_555
H4B C6B 1_555 1_555
C7B C8B 1_555 1_555
C8B H5B 1_555 1_555
H6B C8B 1_555 1_555
C9B H7B 1_555 1_555
H8B C9B 1_555 1_555
C10B C9B 1_555 1_555
C11B C4B 1_555 1_555
C12B C11B 1_555 1_555
C13B C12B 1_555 1_555
C14B C13B 1_555 1_555
C15B C14B 1_555 1_555
C16B C11B 1_555 1_555
C17B C13B 1_555 1_555
C18B C17B 1_555 1_555
H9B C18B 1_555 1_555
C19B C18B 1_555 1_555
H10B C19B 1_555 1_555
C20B C19B 1_555 1_555
C21B C20B 1_555 1_555
H11B C21B 1_555 1_555
C22B C17B 1_555 1_555
H12B C22B 1_555 1_555
C23B C14B 1_555 1_555
H13B C23B 1_555 1_555
H14B C23B 1_555 1_555
H15B C23B 1_555 1_555
C24B H16B 1_555 1_555
H17B C24B 1_555 1_555
C25B C24B 1_555 1_555
C26B C27B 1_555 1_555
C27B H18B 1_555 1_555
C28B C27B 1_555 1_555
H19B C28B 1_555 1_555
C29B C15B 1_555 1_555
C30B C29B 1_555 1_555
H20B C30B 1_555 1_555
C31B C26B 1_555 1_555
H21B C31B 1_555 1_555
C32B C16B 1_555 1_555
H22B C32B 1_555 1_555
H23B C32B 1_555 1_555
H24B C32B 1_555 1_555
C33B C12B 1_555 1_555
H25B C33B 1_555 1_555
H26B C33B 1_555 1_555
H27B C33B 1_555 1_555
O1B C7B 1_555 1_555
O2B Zn1A 1_555 1_555
O3B C10B 1_555 1_555
O4B C10B 1_555 1_555
O5B C25B 1_555 1_555
O6B C25B 1_555 1_555
O7B C9B 1_555 1_555
O8B C1B 1_555 1_555
O9B C24B 1_555 1_555
O10B Zn1B 1_555 1_555
Zn1B O1B 1_555 1_555
C1C C2C 1_555 1_555
C2C H1C 1_555 1_555
C3C C2C 1_555 1_555
H2C C3C 1_555 1_555
C4C C3C 1_555 1_555
C5C C4C 1_555 1_555
H3C C5C 1_555 1_555
C6C C1C 1_555 1_555
H4C C6C 1_555 1_555
C7C C8C 1_555 1_555
C8C H5C 1_555 1_555
H6C C8C 1_555 1_555
C9C H7C 1_555 1_555
H8C C9C 1_555 1_555
C10C C9C 1_555 1_555
C11C C4C 1_555 1_555
C12C C11C 1_555 1_555
C13C C12C 1_555 1_555
C14C C13C 1_555 1_555
C15C C14C 1_555 1_555
C16C C11C 1_555 1_555
C17C C13C 1_555 1_555
C18C C17C 1_555 1_555
H9C C18C 1_555 1_555
C19C C18C 1_555 1_555
H10C C19C 1_555 1_555
C20C C19C 1_555 1_555
C21C C20C 1_555 1_555
H11C C21C 1_555 1_555
C22C C17C 1_555 1_555
H12C C22C 1_555 1_555
C23C C14C 1_555 1_555
H13C C23C 1_555 1_555
H14C C23C 1_555 1_555
H15C C23C 1_555 1_555
C24C H16C 1_555 1_555
H17C C24C 1_555 1_555
C25C C24C 1_555 1_555
C26C C27C 1_555 1_555
C27C H18C 1_555 1_555
C28C C27C 1_555 1_555
H19C C28C 1_555 1_555
C29C C15C 1_555 1_555
C30C C29C 1_555 1_555
H20C C30C 1_555 1_555
C31C C26C 1_555 1_555
H21C C31C 1_555 1_555
C32C C16C 1_555 1_555
H22C C32C 1_555 1_555
H23C C32C 1_555 1_555
H24C C32C 1_555 1_555
C33C C12C 1_555 1_555
H25C C33C 1_555 1_555
H26C C33C 1_555 1_555
H27C C33C 1_555 1_555
O1C C7C 1_555 1_555
O2C Zn1 1_555 1_555
O3C C10C 1_555 1_555
O4C C10C 1_555 1_555
O5C C25C 1_555 1_555
O6C C25C 1_555 1_555
O7C C9C 1_555 1_555
O8C C1C 1_555 1_555
O9C C24C 1_555 1_555
Zn1C O1C 1_555 1_555
O2_2 Zn1B 1_555 1_555
O2A_2 Zn2 1_555 1_555
O2B_2 Zn2 1_555 1_555
O3D Zn1C 1_555 1_555
O3E Zn1B 1_555 1_555
O3F Zn1 1_555 1_555
O3G Zn1A 1_555 1_555
O4D Zn1A 1_555 1_555
O4D_2 Zn1C 1_555 1_555
O4E Zn1B 1_555 1_555
O4E_2 Zn1 1_555 1_555
O4F Zn1 1_555 1_555
O4F_2 Zn1C 1_555 1_555
O4G Zn1A 1_555 1_555
O4G_2 Zn1B 1_555 1_555
O5F Ru1 1_555 1_555
O5G Ru1 1_555 1_555
O10_2 Zn1A 1_555 1_555
O10B_2 Zn2 1_555 1_555
Ru1B O5B 1_555 1_555
Ru1B_2 O5C 1_555 1_555
Zn1A_2 O10 1_555 1_555
Zn1B_2 O2 1_555 1_555
Zn1C_2 O2A 1_555 1_555
Zn1D O3B 1_555 1_555
Zn1D_2 O4A 1_555 1_555
Zn1E O4 1_555 1_555
Zn1E_2 O3C 1_555 1_555
Zn1F O3A 1_555 1_555
Zn1G O3 1_555 1_555
Zn2_2 O2A 1_555 1_555
C5 C6 1_555 1_555
C8 O8 1_555 1_555
C15 C16 1_555 1_555
C20 O7 1_555 1_555
C21 C22 1_555 1_555
C26 O9 1_555 1_555
C28 C29 1_555 1_555
C30 C31 1_555 1_555
O4 Zn1G 1_555 1_555
O10 Zn2 1_555 1_555
Zn2 O2C 1_555 1_555
C5A C6A 1_555 1_555
C8A O8A 1_555 1_555
C15A C16A 1_555 1_555
C20A O7A 1_555 1_555
C21A C22A 1_555 1_555
C25A O5A 1_555 1_555
C26A O9A 1_555 1_555
C28A C29A 1_555 1_555
C30A C31A 1_555 1_555
O4A Zn1F 1_555 1_555
C5B C6B 1_555 1_555
C7B O2B 1_555 1_555
C8B O8B 1_555 1_555
C15B C16B 1_555 1_555
C20B O7B 1_555 1_555
C21B C22B 1_555 1_555
C26B O9B 1_555 1_555
C28B C29B 1_555 1_555
C30B C31B 1_555 1_555
O2B Zn2_2 1_555 1_555
O4B Zn1D 1_555 1_555
O4B Zn1G 1_555 1_555
O10B Zn1C_2 1_555 1_555
O10B Zn2_2 1_555 1_555
C5C C6C 1_555 1_555
C7C O2C 1_555 1_555
C8C O8C 1_555 1_555
C15C C16C 1_555 1_555
C20C O7C 1_555 1_555
C21C C22C 1_555 1_555
C26C O9C 1_555 1_555
C28C C29C 1_555 1_555
C30C C31C 1_555 1_555
O4C Zn1E_2 1_555 1_555
O4C Zn1F 1_555 1_555
Zn1C O2A_2 1_555 1_555
Zn1C O10B_2 1_555 1_555
O2_2 Zn2_2 1_555 1_555
O2B_2 Zn1A_2 1_555 1_555
O10_2 Zn2_2 1_555 1_555
O10B_2 Zn1B_2 1_555 1_555

#END
