
#######################################################################
#
#                 Cambridge Crystallographic Data Centre
#                                CCDC 
#
#######################################################################
#
# If this CIF has been generated from an entry in the Cambridge 
# Structural Database, then it will include bibliographic, chemical, 
# crystal, experimental, refinement or atomic coordinate data resulting 
# from the CCDC's data processing and validation procedures.
#
#######################################################################

data_TOXNAX
_symmetry_cell_setting           tetragonal
_symmetry_space_group_name_H-M   'I 41 2 2'
_symmetry_Int_Tables_number      98
_space_group_name_Hall           'I 4bw 2bw'
loop_
_symmetry_equiv_pos_site_id
_symmetry_equiv_pos_as_xyz
1 x,y,z
2 1/2-x,y,3/4-z
3 -y,-x,-z
4 -y,1/2+x,1/4+z
5 1/2+y,-x,3/4+z
6 1/2+y,1/2+x,1/2-z
7 x,1/2-y,1/4-z
8 1/2-x,1/2-y,1/2+z
9 1/2+x,1/2+y,1/2+z
10 -x,1/2+y,1/4-z
11 1/2-y,1/2-x,1/2-z
12 1/2-y,x,3/4+z
13 y,1/2-x,1/4+z
14 y,x,-z
15 1/2+x,-y,3/4-z
16 -x,-y,z
_cell_length_a                   14.804690(33)
_cell_length_b                   14.804690(33)
_cell_length_c                   11.801726(35)
_cell_angle_alpha                90
_cell_angle_beta                 90
_cell_angle_gamma                90
_cell_volume                     2586.69
loop_
_atom_site_label
_atom_site_type_symbol
_atom_site_fract_x
_atom_site_fract_y
_atom_site_fract_z
H4 H 0.51077(31) 0.700457 0.09187(97)
H5 H 0.59292(31) 0.797536 0.09271(97)
C6 C 0.54676(31) 0.752448 0.24661(97)
H6 H 0.58618(31) 0.802135 0.29302(97)
H7 H 0.50412(31) 0.704984 0.29218(97)
C7 C 0.55036(31) 0.75000 0.13829(97)
C8 C 0.150(16) 0.3220(52) 0.196(10)
H8 H 0.1225(90) 0.3739(27) 0.2509(62)
H9 H 0.177(22) 0.3400(98) 0.113(12)
C9 C 0.152(26) 0.2397(52) 0.229(17)
H10 H 0.180(39) 0.1878(90) 0.174(24)
H11 H 0.126(22) 0.2217(48) 0.312(16)
H4F H 0.51077(31) 0.799543 0.15813(97)
H5F H 0.59292(31) 0.702464 0.15729(97)
C6F C 0.54676(31) 0.747552 0.00339(97)
H6F H 0.58618(31) 0.697865 -0.04302(97)
H7F H 0.50412(31) 0.795016 -0.04218(97)
C7F C 0.55036(31) 0.75000 0.11171(97)
C8J C 0.1780(52) 0.350(16) 0.304(10)
H8J H 0.1261(27) 0.3775(90) 0.2491(62)
H9J H 0.1600(98) 0.323(22) 0.387(12)
C9J C 0.2603(52) 0.348(26) 0.271(17)
H10J H 0.3122(90) 0.320(39) 0.326(24)
H11J H 0.2783(48) 0.374(22) 0.188(16)
Al1 Al 0.694153(49) 0.305847(49) 0.50000
O1 O 0.75401(12) 0.25000 0.625
O2 O 0.62233(28) 0.37947(30) 0.60369(21)
O3 O 0.60473(30) 0.28484(20) 0.74714(25)
C1 C 0.59305(22) 0.35991(18) 0.70027(18)
C2 C 0.541741(79) 0.429419(62) 0.76252(15)
C3 C 0.50000 0.50000 0.70313(18)
C4 C 0.541741(79) 0.429419(62) 0.88130(11)
C5 C 0.50000 0.50000 0.94069(10)
H1 H 0.81480(12) 0.250 0.625
H2 H 0.500 0.500 0.61416(18)
H3 H 0.57301(13) 0.376551(89) 0.92578(11)
O2B O 0.62053(30) 0.37767(28) 1.39631(21)
O3B O 0.71516(20) 0.39527(30) 1.25286(25)
C1B C 0.64009(18) 0.40695(22) 1.29973(18)
C2B C 0.570581(62) 0.458259(79) 1.23748(15)
C3B C 0.50000 0.50000 1.29687(18)
C4B C 0.570581(62) 0.458259(79) 1.11870(11)
C5B C 0.50000 0.50000 1.05931(10)
H2B H 0.500 0.500 1.38584(18)
H3B H 0.623449(89) 0.42699(13) 1.07422(11)
O2M O 0.37947(30) 0.62233(28) 1.39631(21)
O3M O 0.28484(20) 0.60473(30) 1.25286(25)
C1M C 0.35991(18) 0.59305(22) 1.29973(18)
C2M C 0.429419(62) 0.541741(79) 1.23748(15)
C4M C 0.429419(62) 0.541741(79) 1.11870(11)
H3M H 0.376551(89) 0.57301(13) 1.07422(11)
O2O O 0.37767(28) 0.62053(30) 0.60369(21)
O3O O 0.39527(30) 0.71516(20) 0.74714(25)
C1O C 0.40695(22) 0.64009(18) 0.70027(18)
C2O C 0.458259(79) 0.570581(62) 0.76252(15)
C4O C 0.458259(79) 0.570581(62) 0.88130(11)
H3O H 0.42699(13) 0.623449(89) 0.92578(11)
Al1A Al 0.805847(49) 0.305847(49) 1.25000
O1A O 0.74599(12) 0.25000 1.125
H1A H 0.68520(12) 0.250 1.125
Al1_2 Al 0.694153(49) 0.305847(49) 1.50000
Al1C Al 0.694153(49) 0.194153(49) 0.75000
Al1E Al 0.805847(49) 0.194153(49) 1.00000
Al1I Al 0.305847(49) 0.805847(49) 0.75000
Al1K Al 0.194153(49) 0.694153(49) 1.25000
Al1M Al 0.305847(49) 0.694153(49) 0.50000
Al1M_2 Al 0.305847(49) 0.694153(49) 1.50000
O1B O 0.75000 0.24599(12) 0.375
O1B_2 O 0.75000 0.24599(12) 1.375
O2A O 0.87767(28) 0.37947(30) 1.14631(21)
O2B_2 O 0.62053(30) 0.37767(28) 0.39631(21)
O2D O 0.87947(30) 0.37767(28) 1.35369(21)
O3D O 0.78484(20) 0.39527(30) 0.49714(25)
O3F O 0.60473(30) 0.21516(20) 0.50286(25)
O3G O 0.89527(30) 0.21516(20) 1.24714(25)
loop_
_geom_bond_atom_site_label_1
_geom_bond_atom_site_label_2
_geom_bond_site_symmetry_1
_geom_bond_site_symmetry_2
Al1 O1 1_555 1_555
O1 H1 1_555 1_555
O2 Al1 1_555 1_555
O3 C1 1_555 1_555
C1 O2 1_555 1_555
C2 C1 1_555 1_555
C3 C2 1_555 1_555
C4 C2 1_555 1_555
C5 C4 1_555 1_555
H2 C3 1_555 1_555
H3 C4 1_555 1_555
H4 C7 1_555 1_555
H5 C7 1_555 1_555
C6 H6 1_555 1_555
H7 C6 1_555 1_555
C7 C6 1_555 1_555
C8 H8 1_555 1_555
H9 C8 1_555 1_555
C9 C8 1_555 1_555
H10 C9 1_555 1_555
H11 C9 1_555 1_555
O2B C1B 1_555 1_555
O3B C1B 1_555 1_555
C1B C2B 1_555 1_555
C2B C3B 1_555 1_555
C3B H2B 1_555 1_555
C4B C2B 1_555 1_555
C5B C5 1_555 1_555
H3B C4B 1_555 1_555
O2M C1M 1_555 1_555
O3M C1M 1_555 1_555
C1M C2M 1_555 1_555
C2M C3B 1_555 1_555
C4M C5B 1_555 1_555
H3M C4M 1_555 1_555
O2O C1O 1_555 1_555
O3O C1O 1_555 1_555
C1O C2O 1_555 1_555
C2O C3 1_555 1_555
C4O C5 1_555 1_555
H3O C4O 1_555 1_555
Al1A O3B 1_555 1_555
O1A Al1A 1_555 1_555
H1A O1A 1_555 1_555
Al1_2 O2B 1_555 1_555
Al1C O1 1_555 1_555
Al1E O1A 1_555 1_555
Al1I O3O 1_555 1_555
Al1K O3M 1_555 1_555
Al1M O2O 1_555 1_555
Al1M_2 O2M 1_555 1_555
O1B Al1 1_555 1_555
O1B_2 Al1A 1_555 1_555
O2A Al1A 1_555 1_555
O2B_2 Al1 1_555 1_555
O2D Al1A 1_555 1_555
O3D Al1 1_555 1_555
O3F Al1 1_555 1_555
O3G Al1A 1_555 1_555
H4F C7F 1_555 1_555
H5F C7F 1_555 1_555
C6F H6F 1_555 1_555
H7F C6F 1_555 1_555
C7F C6F 1_555 1_555
C8J H8J 1_555 1_555
H9J C8J 1_555 1_555
C9J C8J 1_555 1_555
H10J C9J 1_555 1_555
H11J C9J 1_555 1_555
O3 Al1C 1_555 1_555
C4B C5B 1_555 1_555
C2M C4M 1_555 1_555
C2O C4O 1_555 1_555
Al1_2 O1B_2 1_555 1_555

#END
