
#######################################################################
#
#                 Cambridge Crystallographic Data Centre
#                                CCDC 
#
#######################################################################
#
# If this CIF has been generated from an entry in the Cambridge 
# Structural Database, then it will include bibliographic, chemical, 
# crystal, experimental, refinement or atomic coordinate data resulting 
# from the CCDC's data processing and validation procedures.
#
#######################################################################

data_TOXNEB
_symmetry_cell_setting           tetragonal
_symmetry_space_group_name_H-M   'I 41 2 2'
_symmetry_Int_Tables_number      98
_space_group_name_Hall           'I 4bw 2bw'
loop_
_symmetry_equiv_pos_site_id
_symmetry_equiv_pos_as_xyz
1 x,y,z
2 1/2-x,y,3/4-z
3 -y,-x,-z
4 -y,1/2+x,1/4+z
5 1/2+y,-x,3/4+z
6 1/2+y,1/2+x,1/2-z
7 x,1/2-y,1/4-z
8 1/2-x,1/2-y,1/2+z
9 1/2+x,1/2+y,1/2+z
10 -x,1/2+y,1/4-z
11 1/2-y,1/2-x,1/2-z
12 1/2-y,x,3/4+z
13 y,1/2-x,1/4+z
14 y,x,-z
15 1/2+x,-y,3/4-z
16 -x,-y,z
_cell_length_a                   14.785355(83)
_cell_length_b                   14.785355(83)
_cell_length_c                   11.77396(15)
_cell_angle_alpha                90
_cell_angle_beta                 90
_cell_angle_gamma                90
_cell_volume                     2573.87
loop_
_atom_site_label
_atom_site_type_symbol
_atom_site_fract_x
_atom_site_fract_y
_atom_site_fract_z
Al1 Al 0.69243(37) 0.30757(37) 0.50000
O1 O 0.75250(35) 0.25000 0.625
O2 O 0.62500(40) 0.38016(41) 0.59997(51)
O3 O 0.60774(40) 0.28648(41) 0.74083(51)
C1 C 0.59425(34) 0.36275(27) 0.69700(25)
C2 C 0.54312(14) 0.43076(10) 0.75845(20)
C3 C 0.50000 0.50000 0.69931(22)
C4 C 0.54312(14) 0.43076(10) 0.87672(20)
C5 C 0.50000 0.50000 0.93586(22)
H1 H 0.81494(82) 0.250 0.625
H2 H 0.500 0.500 0.61013(47)
H3 H 0.57563(23) 0.37856(27) 0.92131(29)
O2B O 0.61984(41) 0.37500(40) 1.40003(51)
O3B O 0.71352(41) 0.39226(40) 1.25917(51)
C1B C 0.63725(27) 0.40575(34) 1.30300(25)
C2B C 0.56924(10) 0.45688(14) 1.24155(20)
C3B C 0.50000 0.50000 1.30069(22)
C4B C 0.56924(10) 0.45688(14) 1.12328(20)
C5B C 0.50000 0.50000 1.06414(22)
H2B H 0.500 0.500 1.38987(47)
H3B H 0.62144(27) 0.42437(23) 1.07869(29)
O2M O 0.38016(41) 0.62500(40) 1.40003(51)
O3M O 0.28648(41) 0.60774(40) 1.25917(51)
C1M C 0.36275(27) 0.59425(34) 1.30300(25)
C2M C 0.43076(10) 0.54312(14) 1.24155(20)
C4M C 0.43076(10) 0.54312(14) 1.12328(20)
H3M H 0.37856(27) 0.57563(23) 1.07869(29)
O2O O 0.37500(40) 0.61984(41) 0.59997(51)
O3O O 0.39226(40) 0.71352(41) 0.74083(51)
C1O C 0.40575(34) 0.63725(27) 0.69700(25)
C2O C 0.45688(14) 0.56924(10) 0.75845(20)
C4O C 0.45688(14) 0.56924(10) 0.87672(20)
H3O H 0.42437(23) 0.62144(27) 0.92131(29)
Al1A Al 0.80757(37) 0.30757(37) 1.25000
O1A O 0.74750(35) 0.25000 1.125
H1A H 0.68506(82) 0.250 1.125
Al1_2 Al 0.69243(37) 0.30757(37) 1.50000
Al1C Al 0.69243(37) 0.19243(37) 0.75000
Al1E Al 0.80757(37) 0.19243(37) 1.00000
Al1I Al 0.30757(37) 0.80757(37) 0.75000
Al1K Al 0.19243(37) 0.69243(37) 1.25000
Al1M Al 0.30757(37) 0.69243(37) 0.50000
Al1M_2 Al 0.30757(37) 0.69243(37) 1.50000
O1B O 0.75000 0.24750(35) 0.375
O1B_2 O 0.75000 0.24750(35) 1.375
O2A O 0.87500(40) 0.38016(41) 1.15003(51)
O2B_2 O 0.61984(41) 0.37500(40) 0.40003(51)
O2D O 0.88016(41) 0.37500(40) 1.34997(51)
O3D O 0.78648(41) 0.39226(40) 0.49083(51)
O3F O 0.60774(40) 0.21352(41) 0.50917(51)
O3G O 0.89226(40) 0.21352(41) 1.24083(51)
C6 C 0.15347(82) 0.4114(11) 0.2490(11)
D1 D 0.18376(82) 0.4728(11) 0.2432(11)
C7 C 0.11839(82) 0.3402(11) 0.2558(11)
D2 D 0.08810(82) 0.2788(11) 0.2616(11)
C6J C 0.0886(11) 0.34653(82) 0.2510(11)
D1J D 0.0272(11) 0.31624(82) 0.2568(11)
C7J C 0.1598(11) 0.38161(82) 0.2442(11)
D2J D 0.2212(11) 0.41190(82) 0.2384(11)
C8? C 0.0730(15) 0.25000 0.6749(11)
D3? D 0.0730(15) 0.25000 0.4889(20)
C9? C -0.01023(95) 0.2485(17) 0.6266(24)
C10? C 0.06518(95) 0.2647(17) 0.6023(24)
D4? D 0.13028(95) 0.2787(17) 0.5813(24)
D5? D -0.07533(95) 0.2345(17) 0.6477(24)
loop_
_geom_bond_atom_site_label_1
_geom_bond_atom_site_label_2
_geom_bond_site_symmetry_1
_geom_bond_site_symmetry_2
Al1 O1 1_555 1_555
O1 H1 1_555 1_555
O2 Al1 1_555 1_555
O3 C1 1_555 1_555
C1 O2 1_555 1_555
C2 C1 1_555 1_555
C3 C2 1_555 1_555
C4 C2 1_555 1_555
C5 C4 1_555 1_555
H2 C3 1_555 1_555
H3 C4 1_555 1_555
C6 D1 1_555 1_555
C7 C6 1_555 1_555
D2 C7 1_555 1_555
O2B C1B 1_555 1_555
O3B C1B 1_555 1_555
C1B C2B 1_555 1_555
C2B C3B 1_555 1_555
C3B H2B 1_555 1_555
C4B C2B 1_555 1_555
C5B C5 1_555 1_555
H3B C4B 1_555 1_555
O2M C1M 1_555 1_555
O3M C1M 1_555 1_555
C1M C2M 1_555 1_555
C2M C3B 1_555 1_555
C4M C5B 1_555 1_555
H3M C4M 1_555 1_555
O2O C1O 1_555 1_555
O3O C1O 1_555 1_555
C1O C2O 1_555 1_555
C2O C3 1_555 1_555
C4O C5 1_555 1_555
H3O C4O 1_555 1_555
Al1A O3B 1_555 1_555
O1A Al1A 1_555 1_555
H1A O1A 1_555 1_555
Al1_2 O2B 1_555 1_555
Al1C O1 1_555 1_555
Al1E O1A 1_555 1_555
Al1I O3O 1_555 1_555
Al1K O3M 1_555 1_555
Al1M O2O 1_555 1_555
Al1M_2 O2M 1_555 1_555
O1B Al1 1_555 1_555
O1B_2 Al1A 1_555 1_555
O2A Al1A 1_555 1_555
O2B_2 Al1 1_555 1_555
O2D Al1A 1_555 1_555
O3D Al1 1_555 1_555
O3F Al1 1_555 1_555
O3G Al1A 1_555 1_555
C6J D1J 1_555 1_555
C7J C6J 1_555 1_555
D2J C7J 1_555 1_555
O3 Al1C 1_555 1_555
C4B C5B 1_555 1_555
C2M C4M 1_555 1_555
C2O C4O 1_555 1_555
Al1_2 O1B_2 1_555 1_555

#END
