
#######################################################################
#
#                 Cambridge Crystallographic Data Centre
#                                CCDC 
#
#######################################################################
#
# If this CIF has been generated from an entry in the Cambridge 
# Structural Database, then it will include bibliographic, chemical, 
# crystal, experimental, refinement or atomic coordinate data resulting 
# from the CCDC's data processing and validation procedures.
#
#######################################################################

data_TOZHAR
_symmetry_cell_setting           orthorhombic
_symmetry_space_group_name_H-M   'P 21 c n'
_symmetry_Int_Tables_number      33
_space_group_name_Hall           'P -2n 2a'
loop_
_symmetry_equiv_pos_site_id
_symmetry_equiv_pos_as_xyz
1 x,y,z
2 1/2+x,1/2+y,1/2-z
3 1/2+x,-y,-z
4 x,1/2-y,1/2+z
_cell_length_a                   8.2221(13)
_cell_length_b                   9.441(2)
_cell_length_c                   11.932(2)
_cell_angle_alpha                90
_cell_angle_beta                 90
_cell_angle_gamma                90
_cell_volume                     926.22
loop_
_atom_site_label
_atom_site_type_symbol
_atom_site_fract_x
_atom_site_fract_y
_atom_site_fract_z
Ag1 Ag 0.7054(1) 0.8894(1) 0.8182(1)
S1 S 0.6016(2) 1.1846(2) 0.5884(1)
F1 F 0.7820(8) 1.1235(7) 0.4177(7)
F2 F 0.5546(9) 1.0185(7) 0.4193(5)
F3 F 0.5688(9) 1.2397(8) 0.3760(5)
O1 O 0.6985(9) 1.3094(5) 0.6002(5)
O2 O 0.6674(7) 1.0632(6) 0.6441(5)
O3 O 0.4290(6) 1.2048(6) 0.5981(4)
N1 N 0.5957(6) 0.7368(5) 0.6869(3)
N2 N 0.5931(6) 0.8602(5) 1.0052(4)
N3 N 0.9094(6) 1.0545(5) 0.8597(4)
C1 C 0.4739(7) 0.6495(6) 0.7129(4)
C2 C 0.6497(7) 0.7290(6) 0.5820(5)
C3 C 0.4761(8) 0.5547(7) 0.5390(5)
C4 C 0.6274(12) 1.1380(11) 0.4423(9)
H1 H 0.7328(88) 0.7907(58) 0.5553(50)
H2 H 0.4385(70) 0.6790(63) 0.7931(49)
H3 H 0.4591(71) 0.4649(62) 0.4831(49)
N3A N 0.4094(6) 0.5545(5) 0.6403(4)
Ag1A Ag 0.2054(1) 0.3894(1) 0.6818(1)
N2C N 0.5931(6) 0.6398(5) 0.5052(4)
Ag1C Ag 0.7054(1) 0.6106(1) 0.3182(1)
O4 O 0.3910(16) 1.0166(16) -0.1977(10)
loop_
_geom_bond_atom_site_label_1
_geom_bond_atom_site_label_2
_geom_bond_site_symmetry_1
_geom_bond_site_symmetry_2
Ag1 O2 1_555 1_555
S1 O1 1_555 1_555
F1 C4 1_555 1_555
F2 C4 1_555 1_555
F3 C4 1_555 1_555
O2 S1 1_555 1_555
O3 S1 1_555 1_555
N1 Ag1 1_555 1_555
N2 Ag1 1_555 1_555
N3 Ag1 1_555 1_555
C1 N1 1_555 1_555
C2 N1 1_555 1_555
C3 H3 1_555 1_555
C4 S1 1_555 1_555
H1 C2 1_555 1_555
H2 C1 1_555 1_555
N3A C1 1_555 1_555
Ag1A N3A 1_555 1_555
N2C C2 1_555 1_555
Ag1C N2C 1_555 1_555
C3 N3A 1_555 1_555
C3 N2C 1_555 1_555

#END
