
#######################################################################
#
#                 Cambridge Crystallographic Data Centre
#                                CCDC 
#
#######################################################################
#
# If this CIF has been generated from an entry in the Cambridge 
# Structural Database, then it will include bibliographic, chemical, 
# crystal, experimental, refinement or atomic coordinate data resulting 
# from the CCDC's data processing and validation procedures.
#
#######################################################################

data_TUBCEA
_symmetry_cell_setting           triclinic
_symmetry_space_group_name_H-M   'P -1'
_symmetry_Int_Tables_number      2
_space_group_name_Hall           '-P 1'
loop_
_symmetry_equiv_pos_site_id
_symmetry_equiv_pos_as_xyz
1 x,y,z
2 -x,-y,-z
_cell_length_a                   10.102(4)
_cell_length_b                   10.769(5)
_cell_length_c                   16.709(7)
_cell_angle_alpha                108.150(5)
_cell_angle_beta                 106.995(5)
_cell_angle_gamma                110.535(4)
_cell_volume                     1443.49
loop_
_atom_site_label
_atom_site_type_symbol
_atom_site_fract_x
_atom_site_fract_y
_atom_site_fract_z
Cd1 Cd 0.0000 0.5000 0.0000
Cd2 Cd 0.15607(8) 0.90208(7) 0.17915(5)
Cd3 Cd 0.50013(8) 1.03976(8) 0.40275(5)
N1 N 0.1611(9) 0.5870(8) 0.1658(6)
N2 N 0.2330(9) 0.7381(9) 0.2154(6)
N3 N 0.3256(9) 0.7822(8) 0.3034(6)
N4 N 0.3189(9) 0.6627(9) 0.3141(6)
C1 C 0.2175(11) 0.5444(10) 0.2296(7)
C2 C 0.1796(11) 0.3921(11) 0.2141(7)
C3 C 0.1650(11) 0.3475(12) 0.2819(8)
H1 H 0.1680 0.4109 0.3358
C4 C 0.1458(11) 0.2064(11) 0.2684(8)
H2 H 0.1357 0.1760 0.3136
N5 N 0.1417(9) 0.1140(9) 0.1909(6)
C5 C 0.1519(11) 0.1547(11) 0.1256(8)
H3 H 0.1485 0.0890 0.0724
C6 C 0.1672(10) 0.2892(11) 0.1325(7)
H4 H 0.1694 0.3123 0.0835
O1 O 0.2002(7) 0.6725(7) -0.0008(5)
O2 O 0.1994(7) 0.8891(7) 0.0526(5)
C7 C 0.2238(10) 0.7961(11) 0.0020(7)
C8 C 0.2861(10) 0.8350(10) -0.0649(7)
C9 C 0.3798(11) 0.7793(11) -0.0911(7)
H5 H 0.4058 0.7191 -0.0674
C10 C 0.4349(11) 0.8134(11) -0.1526(8)
H6 H 0.4999 0.7782 -0.1689
C11 C 0.3932(10) 0.8991(11) -0.1891(7)
C12 C 0.3000(11) 0.9570(11) -0.1621(7)
H7 H 0.2700 1.0142 -0.1872
C13 C 0.2529(11) 0.9263(11) -0.0958(7)
H8 H 0.1981 0.9700 -0.0732
C14 C 0.4392(11) 0.9304(10) -0.2609(7)
O3 O 0.5633(7) 0.9266(7) -0.2647(5)
O4 O 0.3510(8) 0.9496(8) -0.3200(5)
O5 O 0.3711(7) 1.0332(7) 0.4968(5)
O6 O 0.2254(7) 1.0130(7) 0.3613(5)
C15 C 0.2415(11) 1.0166(10) 0.4387(8)
C16 C 0.1172(10) 1.0076(10) 0.4710(7)
C17 C 0.1537(12) 1.0587(11) 0.5654(8)
H9 H 0.2581 1.1010 0.6097
C18 C -0.0369(11) 0.9515(11) 0.4039(7)
H10 H -0.0616 0.9216 0.3405
O7 O -0.0790(7) 0.6670(7) 0.0532(5)
O8 O -0.0981(7) 0.8022(7) 0.1762(5)
C19 C -0.1596(11) 0.6929(10) 0.0971(7)
C20 C -0.3374(10) 0.5883(10) 0.0470(7)
C21 C -0.4281(11) 0.6108(11) 0.0900(7)
H11 H -0.3794 0.6867 0.1515
C22 C -0.4061(11) 0.4780(10) -0.0435(7)
H12 H -0.3450 0.4622 -0.0736
O9 O 0.6480(8) 1.2845(7) 0.5007(5)
H13 H 0.7224 1.2790 0.5403
H14 H 0.6150 1.3620 0.4977
O6A O -0.2254(7) 0.9870(7) 0.6387(5)
C15A C -0.2415(11) 0.9834(10) 0.5613(8)
C16A C -0.1172(10) 0.9924(10) 0.5290(7)
C17A C -0.1537(12) 0.9413(11) 0.4346(8)
H9A H -0.2581 0.8990 0.3903
C18A C 0.0369(11) 1.0485(11) 0.5961(7)
H10A H 0.0616 1.0784 0.6595
O5A O -0.3711(7) 0.9668(7) 0.5032(5)
O7A O -0.9210(7) 0.3330(7) -0.0532(5)
O8A O -0.9019(7) 0.1978(7) -0.1762(5)
C19A C -0.8404(11) 0.3071(10) -0.0971(7)
C20A C -0.6626(10) 0.4117(10) -0.0470(7)
C21A C -0.5719(11) 0.3892(11) -0.0900(7)
H11A H -0.6206 0.3133 -0.1515
C22A C -0.5939(11) 0.5220(10) 0.0435(7)
H12A H -0.6550 0.5378 0.0736
Cd2A Cd -1.15607(8) 0.09792(7) -0.17915(5)
Cd3A Cd -1.50013(8) -0.03976(8) -0.40275(5)
N1A N -1.1611(9) 0.4130(8) -0.1658(6)
N2A N -1.2330(9) 0.2619(9) -0.2154(6)
N3A N -1.3256(9) 0.2178(8) -0.3034(6)
N4A N -1.3189(9) 0.3373(9) -0.3141(6)
C1A C -1.2175(11) 0.4556(10) -0.2296(7)
C2A C -1.1796(11) 0.6079(11) -0.2141(7)
C3A C -1.1650(11) 0.6525(12) -0.2819(8)
H1A H -1.1680 0.5891 -0.3358
C4A C -1.1458(11) 0.7936(11) -0.2684(8)
H2A H -1.1357 0.8240 -0.3136
N5A N -1.1417(9) 0.8860(9) -0.1909(6)
C5A C -1.1519(11) 0.8453(11) -0.1256(8)
H3A H -1.1485 0.9110 -0.0724
C6A C -1.1672(10) 0.7108(11) -0.1325(7)
H4A H -1.1694 0.6877 -0.0835
O1A O -1.2002(7) 0.3275(7) 0.0008(5)
O2A O -1.1994(7) 0.1109(7) -0.0526(5)
C7A C -1.2238(10) 0.2039(11) -0.0020(7)
C8A C -1.2861(10) 0.1650(10) 0.0649(7)
C9A C -1.3798(11) 0.2207(11) 0.0911(7)
H5A H -1.4058 0.2809 0.0674
C10A C -1.4349(11) 0.1866(11) 0.1526(8)
H6A H -1.4999 0.2218 0.1689
C11A C -1.3932(10) 0.1009(11) 0.1891(7)
C12A C -1.3000(11) 0.0430(11) 0.1621(7)
H7A H -1.2700 -0.0142 0.1872
C13A C -1.2529(11) 0.0737(11) 0.0958(7)
H8A H -1.1981 0.0300 0.0732
C14A C -1.4392(11) 0.0696(10) 0.2609(7)
O3A O -1.5633(7) 0.0734(7) 0.2647(5)
O4A O -1.3510(8) 0.0504(8) 0.3200(5)
O9A O -1.6480(8) -0.2845(7) -0.5007(5)
H13A H -1.7224 -0.2790 -0.5403
H14A H -1.6150 -0.3620 -0.4977
Cd1_2 Cd -1.0000 0.5000 0.0000
Cd2_2 Cd -1.84393(8) -0.09792(7) 0.17915(5)
Cd2_3 Cd 0.15607(8) -0.09792(7) 0.17915(5)
Cd2A_2 Cd -1.15607(8) 1.09792(7) -0.17915(5)
Cd2A_3 Cd -0.15607(8) 1.09792(7) 0.82085(5)
Cd2A_4 Cd 0.84393(8) 1.09792(7) -0.17915(5)
Cd3_2 Cd -1.49987(8) 0.03976(8) 0.40275(5)
Cd3_3 Cd -0.49987(8) 1.03976(8) 0.40275(5)
Cd3A_2 Cd -0.50013(8) 0.96024(8) 0.59725(5)
Cd3A_3 Cd 0.49987(8) 0.96024(8) -0.40275(5)
Cd3A_4 Cd 0.49987(8) 0.96024(8) 0.59725(5)
N1A_2 N -0.1611(9) 0.4130(8) -0.1658(6)
N5_2 N 0.1417(9) 1.1140(9) 0.1909(6)
N5A_2 N -1.1417(9) -0.1140(9) -0.1909(6)
O1A_2 O -0.2002(7) 0.3275(7) 0.0008(5)
O3_2 O -1.4367(7) -0.0734(7) -0.2647(5)
O3A_2 O 0.4367(7) 1.0734(7) 0.2647(5)
O4_2 O -1.6490(8) -0.0504(8) -0.3200(5)
O4A_2 O 0.6490(8) 1.0504(8) 0.3200(5)
O5_2 O -1.6289(7) 0.0332(7) -0.5032(5)
O5A_2 O -1.3711(7) -0.0332(7) -0.4968(5)
O5A_3 O 0.6289(7) 0.9668(7) 0.5032(5)
O6A_2 O -1.2254(7) -0.0130(7) -0.3613(5)
O7A_2 O 0.0790(7) 0.3330(7) -0.0532(5)
loop_
_geom_bond_atom_site_label_1
_geom_bond_atom_site_label_2
_geom_bond_site_symmetry_1
_geom_bond_site_symmetry_2
Cd1 N1 1_555 1_555
Cd2 N2 1_555 1_555
Cd3 N3 1_555 1_555
N1 N2 1_555 1_555
N2 N3 1_555 1_555
N3 N4 1_555 1_555
N4 C1 1_555 1_555
C1 N1 1_555 1_555
C2 C1 1_555 1_555
C3 C2 1_555 1_555
H1 C3 1_555 1_555
C4 C3 1_555 1_555
H2 C4 1_555 1_555
N5 C4 1_555 1_555
C5 N5 1_555 1_555
H3 C5 1_555 1_555
C6 C2 1_555 1_555
H4 C6 1_555 1_555
O1 Cd1 1_555 1_555
O2 Cd2 1_555 1_555
C7 O1 1_555 1_555
C8 C7 1_555 1_555
C9 C8 1_555 1_555
H5 C9 1_555 1_555
C10 C9 1_555 1_555
H6 C10 1_555 1_555
C11 C10 1_555 1_555
C12 C11 1_555 1_555
H7 C12 1_555 1_555
C13 C8 1_555 1_555
H8 C13 1_555 1_555
C14 C11 1_555 1_555
O3 C14 1_555 1_555
O4 C14 1_555 1_555
O5 Cd3 1_555 1_555
O6 Cd2 1_555 1_555
C15 O5 1_555 1_555
C16 C15 1_555 1_555
C17 C16 1_555 1_555
H9 C17 1_555 1_555
C18 C16 1_555 1_555
H10 C18 1_555 1_555
O7 Cd1 1_555 1_555
O8 Cd2 1_555 1_555
C19 O7 1_555 1_555
C20 C19 1_555 1_555
C21 C20 1_555 1_555
H11 C21 1_555 1_555
C22 C20 1_555 1_555
H12 C22 1_555 1_555
O9 Cd3 1_555 1_555
H13 O9 1_555 1_555
H14 O9 1_555 1_555
O6A C15A 1_555 1_555
C15A C16A 1_555 1_555
C16A C17A 1_555 1_555
C17A C18 1_555 1_555
H9A C17A 1_555 1_555
C18A C17 1_555 1_555
H10A C18A 1_555 1_555
O5A C15A 1_555 1_555
O7A C19A 1_555 1_555
O8A C19A 1_555 1_555
C19A C20A 1_555 1_555
C20A C21A 1_555 1_555
C21A C22 1_555 1_555
H11A C21A 1_555 1_555
C22A C21 1_555 1_555
H12A C22A 1_555 1_555
Cd2A O7A 1_555 1_555
Cd3A N3A 1_555 1_555
N1A N2A 1_555 1_555
N2A Cd2A 1_555 1_555
N3A N2A 1_555 1_555
N4A N3A 1_555 1_555
C1A N1A 1_555 1_555
C2A C1A 1_555 1_555
C3A C2A 1_555 1_555
H1A C3A 1_555 1_555
C4A C3A 1_555 1_555
H2A C4A 1_555 1_555
N5A C4A 1_555 1_555
C5A N5A 1_555 1_555
H3A C5A 1_555 1_555
C6A C2A 1_555 1_555
H4A C6A 1_555 1_555
O1A C7A 1_555 1_555
O2A Cd2A 1_555 1_555
C7A O2A 1_555 1_555
C8A C7A 1_555 1_555
C9A C8A 1_555 1_555
H5A C9A 1_555 1_555
C10A C9A 1_555 1_555
H6A C10A 1_555 1_555
C11A C10A 1_555 1_555
C12A C11A 1_555 1_555
H7A C12A 1_555 1_555
C13A C8A 1_555 1_555
H8A C13A 1_555 1_555
C14A C11A 1_555 1_555
O3A C14A 1_555 1_555
O4A C14A 1_555 1_555
O9A Cd3A 1_555 1_555
H13A O9A 1_555 1_555
H14A O9A 1_555 1_555
Cd1_2 O7A 1_555 1_555
Cd2_2 O3A 1_555 1_555
Cd2_3 N5 1_555 1_555
Cd2A_2 N5A 1_555 1_555
Cd2A_3 O6A 1_555 1_555
Cd2A_4 O3 1_555 1_555
Cd3_2 O3A 1_555 1_555
Cd3_3 O5A 1_555 1_555
Cd3A_2 O6A 1_555 1_555
Cd3A_3 O3 1_555 1_555
Cd3A_4 O5 1_555 1_555
N1A_2 Cd1 1_555 1_555
N5_2 Cd2 1_555 1_555
N5A_2 Cd2A 1_555 1_555
O1A_2 Cd1 1_555 1_555
O3_2 Cd2A 1_555 1_555
O3A_2 Cd2 1_555 1_555
O4_2 Cd3A 1_555 1_555
O4A_2 Cd3 1_555 1_555
O5_2 Cd3A 1_555 1_555
O5A_2 Cd3A 1_555 1_555
O5A_3 Cd3 1_555 1_555
O6A_2 Cd2A 1_555 1_555
O7A_2 Cd1 1_555 1_555
Cd2 O7 1_555 1_555
Cd3 O6 1_555 1_555
Cd3 O3A_2 1_555 1_555
C5 C6 1_555 1_555
O2 C7 1_555 1_555
C12 C13 1_555 1_555
O4 Cd3A_3 1_555 1_555
O6 C15 1_555 1_555
O8 C19 1_555 1_555
C16A C18A 1_555 1_555
O5A Cd3A_2 1_555 1_555
O8A Cd2A 1_555 1_555
C20A C22A 1_555 1_555
Cd3A O3_2 1_555 1_555
Cd3A O6A_2 1_555 1_555
N1A Cd1_2 1_555 1_555
N4A C1A 1_555 1_555
C5A C6A 1_555 1_555
O1A Cd1_2 1_555 1_555
C12A C13A 1_555 1_555
O4A Cd3_2 1_555 1_555
Cd3A_4 O5A_3 1_555 1_555

#END
