
#######################################################################
#
#                 Cambridge Crystallographic Data Centre
#                                CCDC 
#
#######################################################################
#
# If this CIF has been generated from an entry in the Cambridge 
# Structural Database, then it will include bibliographic, chemical, 
# crystal, experimental, refinement or atomic coordinate data resulting 
# from the CCDC's data processing and validation procedures.
#
#######################################################################

data_TUDMAH
_symmetry_cell_setting           monoclinic
_symmetry_space_group_name_H-M   'C 2/c'
_symmetry_Int_Tables_number      15
_space_group_name_Hall           '-C 2yn'
loop_
_symmetry_equiv_pos_site_id
_symmetry_equiv_pos_as_xyz
1 x,y,z
2 -x,y,1/2-z
3 1/2+x,1/2+y,z
4 1/2-x,1/2+y,1/2-z
5 -x,-y,-z
6 x,-y,1/2+z
7 1/2-x,1/2-y,-z
8 1/2+x,1/2-y,1/2+z
_cell_length_a                   25.2087(5)
_cell_length_b                   16.2843(3)
_cell_length_c                   19.9379(4)
_cell_angle_alpha                90
_cell_angle_beta                 119.319(1)
_cell_angle_gamma                90
_cell_volume                     7136.23
loop_
_atom_site_label
_atom_site_type_symbol
_atom_site_fract_x
_atom_site_fract_y
_atom_site_fract_z
C1 C 0.13565(14) 0.61267(19) 0.0914(2)
H1 H 0.119 0.5837 0.0428
H2 H 0.1041 0.6476 0.0905
C2 C 0.26402(14) 0.7531(2) 0.04233(18)
H3 H 0.3004 0.7866 0.062
H4 H 0.276 0.6987 0.0647
C3 C 0.15706(14) 0.55175(17) 0.1571(2)
H5 H 0.1227 0.5205 0.1527
H6 H 0.1858 0.5137 0.1551
C4 C 0.21706(16) 0.54399(17) 0.2993(2)
H7 H 0.2474 0.5105 0.2957
H8 H 0.1876 0.5074 0.3015
C5 C 0.2476(2) 0.5941(2) 0.3726(2)
H9 H 0.2181 0.6326 0.3721
H10 H 0.259 0.5573 0.4158
C6 C 0.30225(17) 0.6405(2) 0.3859(2)
H11 H 0.3291 0.6045 0.3774
H12 H 0.3239 0.6586 0.439
C7 C 0.33878(14) 0.76248(19) 0.3445(2)
H13 H 0.37 0.7271 0.3451
H14 H 0.3561 0.7917 0.3931
C8 C 0.31711(14) 0.82408(16) 0.2778(2)
H15 H 0.289 0.863 0.2803
H16 H 0.3516 0.8543 0.2814
C9 C 0.25177(13) 0.83180(15) 0.13846(18)
H17 H 0.2215 0.8609 0.146
H18 H 0.2789 0.8725 0.136
C10 C 0.17101(13) 0.73726(18) 0.05449(18)
H19 H 0.1495 0.7205 0.001
H20 H 0.143 0.7691 0.0642
C11 C 0.36945(12) 0.28453(14) 0.2776(2)
C12 C 0.39293(9) 0.36565(12) 0.26606(15)
C13 C 0.44815(9) 0.36664(12) 0.26491(14)
H21 H 0.4703 0.3183 0.2739
C14 C 0.47021(8) 0.43882(11) 0.25050(12)
C15 C 0.43696(9) 0.51015(12) 0.23712(14)
H22 H 0.4513 0.5587 0.2272
C16 C 0.38164(9) 0.51050(12) 0.23831(14)
C17 C 0.36017(9) 0.43825(12) 0.25254(13)
H23 H 0.3235 0.4381 0.2531
C18 C 0.34647(10) 0.59031(14) 0.22247(16)
N1 N 0.18839(10) 0.66328(14) 0.10296(15)
H24 H 0.2119 0.6318 0.0902
N2 N 0.18587(10) 0.59621(12) 0.22969(15)
H25 H 0.1553 0.6223 0.2331
N3 N 0.28698(11) 0.71308(15) 0.33462(15)
H26 H 0.2633 0.7464 0.3457
N4 N 0.28699(9) 0.77930(11) 0.20522(13)
H27 H 0.3166 0.7552 0.1985
N5 N 0.22153(11) 0.78993(15) 0.06634(15)
O1 O 0.39718(14) 0.22236(12) 0.2774(3)
O2 O 0.32369(7) 0.28513(9) 0.28589(11)
O3 O 0.30023(7) 0.59104(9) 0.23015(11)
O4 O 0.36596(11) 0.65017(12) 0.20272(19)
Ni1 Ni 0.237654(12) 0.686540(15) 0.219017(19)
C1F C 0.36435(14) 0.88733(19) -0.0914(2)
H1F H 0.381 0.9163 -0.0428
H2F H 0.3959 0.8524 -0.0905
C2F C 0.23598(14) 0.7469(2) -0.04233(18)
H3F H 0.1996 0.7134 -0.062
H4F H 0.224 0.8013 -0.0647
C3F C 0.34294(14) 0.94825(17) -0.1571(2)
H5F H 0.3773 0.9795 -0.1527
H6F H 0.3142 0.9863 -0.1551
C4F C 0.28294(16) 0.95601(17) -0.2993(2)
H7F H 0.2526 0.9895 -0.2957
H8F H 0.3124 0.9926 -0.3015
C5F C 0.2524(2) 0.9059(2) -0.3726(2)
H9F H 0.2819 0.8674 -0.3721
H10F H 0.241 0.9427 -0.4158
C6F C 0.19775(17) 0.8595(2) -0.3859(2)
H11F H 0.1709 0.8955 -0.3774
H12F H 0.1761 0.8414 -0.439
C7F C 0.16122(14) 0.73752(19) -0.3445(2)
H13F H 0.13 0.7729 -0.3451
H14F H 0.1439 0.7083 -0.3931
C8F C 0.18289(14) 0.67592(16) -0.2778(2)
H15F H 0.211 0.637 -0.2803
H16F H 0.1484 0.6457 -0.2814
C9F C 0.24823(13) 0.66820(15) -0.13846(18)
H17F H 0.2785 0.6391 -0.146
H18F H 0.2211 0.6275 -0.136
C10F C 0.32899(13) 0.76274(18) -0.05449(18)
H19F H 0.3505 0.7795 -0.001
H20F H 0.357 0.7309 -0.0642
C11A C 0.63055(12) 0.28453(14) 0.2224(2)
C12A C 0.60707(9) 0.36565(12) 0.23394(15)
C13A C 0.55185(9) 0.36664(12) 0.23509(14)
H21A H 0.5297 0.3183 0.2261
C14A C 0.52979(8) 0.43882(11) 0.24950(12)
C15A C 0.56304(9) 0.51015(12) 0.26288(14)
H22A H 0.5487 0.5587 0.2728
C16A C 0.61836(9) 0.51050(12) 0.26169(14)
C17A C 0.63983(9) 0.43825(12) 0.24746(13)
H23A H 0.6765 0.4381 0.2469
C18A C 0.65353(10) 0.59031(14) 0.27753(16)
N1F N 0.31161(10) 0.83672(14) -0.10296(15)
H24F H 0.2881 0.8682 -0.0902
N2F N 0.31413(10) 0.90379(12) -0.22969(15)
H25F H 0.3447 0.8777 -0.2331
N3F N 0.21302(11) 0.78692(15) -0.33462(15)
H26F H 0.2367 0.7536 -0.3457
N4F N 0.21301(9) 0.72070(11) -0.20522(13)
H27F H 0.1834 0.7448 -0.1985
N5F N 0.27847(11) 0.71007(15) -0.06634(15)
O1A O 0.60282(14) 0.22236(12) 0.2226(3)
O2A O 0.67631(7) 0.28513(9) 0.21411(11)
O2C O 0.17631(7) 0.78513(9) 0.21411(11)
O2E O 0.32369(7) 0.71487(9) -0.21411(11)
O3A O 0.69977(7) 0.59104(9) 0.26985(11)
O3F O 0.19977(7) 0.90896(9) -0.23015(11)
O4A O 0.63404(11) 0.65017(12) 0.29728(19)
Ni1A Ni 0.762346(12) 0.686540(15) 0.280983(19)
Ni1F Ni 0.262346(12) 0.813460(15) -0.219017(19)
Ni1C Ni 0.262346(12) 0.186540(15) 0.280983(19)
Ni1B Ni 0.737654(12) 0.186540(15) 0.219017(19)
loop_
_geom_bond_atom_site_label_1
_geom_bond_atom_site_label_2
_geom_bond_site_symmetry_1
_geom_bond_site_symmetry_2
C1 H1 1_555 1_555
H2 C1 1_555 1_555
C2 H3 1_555 1_555
H4 C2 1_555 1_555
C3 C1 1_555 1_555
H5 C3 1_555 1_555
H6 C3 1_555 1_555
C4 H7 1_555 1_555
H8 C4 1_555 1_555
C5 C4 1_555 1_555
H9 C5 1_555 1_555
H10 C5 1_555 1_555
C6 C5 1_555 1_555
H11 C6 1_555 1_555
H12 C6 1_555 1_555
C7 H13 1_555 1_555
H14 C7 1_555 1_555
C8 C7 1_555 1_555
H15 C8 1_555 1_555
H16 C8 1_555 1_555
C9 H17 1_555 1_555
H18 C9 1_555 1_555
C10 H19 1_555 1_555
H20 C10 1_555 1_555
C11 C12 1_555 1_555
C12 C13 1_555 1_555
C13 H21 1_555 1_555
C14 C13 1_555 1_555
C15 C14 1_555 1_555
H22 C15 1_555 1_555
C16 C15 1_555 1_555
C17 C12 1_555 1_555
H23 C17 1_555 1_555
C18 C16 1_555 1_555
N1 C1 1_555 1_555
H24 N1 1_555 1_555
N2 C3 1_555 1_555
H25 N2 1_555 1_555
N3 C6 1_555 1_555
H26 N3 1_555 1_555
N4 C8 1_555 1_555
H27 N4 1_555 1_555
N5 C2 1_555 1_555
O1 C11 1_555 1_555
O2 C11 1_555 1_555
O3 C18 1_555 1_555
O4 C18 1_555 1_555
Ni1 N1 1_555 1_555
C1F H1F 1_555 1_555
H2F C1F 1_555 1_555
C2F C2 1_555 1_555
H3F C2F 1_555 1_555
H4F C2F 1_555 1_555
C3F C1F 1_555 1_555
H5F C3F 1_555 1_555
H6F C3F 1_555 1_555
C4F H7F 1_555 1_555
H8F C4F 1_555 1_555
C5F C4F 1_555 1_555
H9F C5F 1_555 1_555
H10F C5F 1_555 1_555
C6F C5F 1_555 1_555
H11F C6F 1_555 1_555
H12F C6F 1_555 1_555
C7F H13F 1_555 1_555
H14F C7F 1_555 1_555
C8F C7F 1_555 1_555
H15F C8F 1_555 1_555
H16F C8F 1_555 1_555
C9F H17F 1_555 1_555
H18F C9F 1_555 1_555
C10F H19F 1_555 1_555
H20F C10F 1_555 1_555
C11A C12A 1_555 1_555
C12A C13A 1_555 1_555
C13A H21A 1_555 1_555
C14A C14 1_555 1_555
C15A C14A 1_555 1_555
H22A C15A 1_555 1_555
C16A C15A 1_555 1_555
C17A C12A 1_555 1_555
H23A C17A 1_555 1_555
C18A C16A 1_555 1_555
N1F C1F 1_555 1_555
H24F N1F 1_555 1_555
N2F C3F 1_555 1_555
H25F N2F 1_555 1_555
N3F C6F 1_555 1_555
H26F N3F 1_555 1_555
N4F C8F 1_555 1_555
H27F N4F 1_555 1_555
N5F C2F 1_555 1_555
O1A C11A 1_555 1_555
O2A C11A 1_555 1_555
O2C Ni1 1_555 1_555
O2E Ni1F 1_555 1_555
O3A C18A 1_555 1_555
O3F Ni1F 1_555 1_555
O4A C18A 1_555 1_555
Ni1A O3A 1_555 1_555
Ni1F N1F 1_555 1_555
Ni1C O2 1_555 1_555
Ni1B O2A 1_555 1_555
C4 N2 1_555 1_555
C7 N3 1_555 1_555
C9 N4 1_555 1_555
C9 N5 1_555 1_555
C10 N1 1_555 1_555
C10 N5 1_555 1_555
C16 C17 1_555 1_555
N2 Ni1 1_555 1_555
N3 Ni1 1_555 1_555
N4 Ni1 1_555 1_555
O3 Ni1 1_555 1_555
C4F N2F 1_555 1_555
C7F N3F 1_555 1_555
C9F N4F 1_555 1_555
C9F N5F 1_555 1_555
C10F N1F 1_555 1_555
C10F N5F 1_555 1_555
C13A C14A 1_555 1_555
C16A C17A 1_555 1_555
N2F Ni1F 1_555 1_555
N3F Ni1F 1_555 1_555
N4F Ni1F 1_555 1_555

#END
