
#######################################################################
#
#                 Cambridge Crystallographic Data Centre
#                                CCDC 
#
#######################################################################
#
# If this CIF has been generated from an entry in the Cambridge 
# Structural Database, then it will include bibliographic, chemical, 
# crystal, experimental, refinement or atomic coordinate data resulting 
# from the CCDC's data processing and validation procedures.
#
#######################################################################

data_TUJCAE
_symmetry_cell_setting           triclinic
_symmetry_space_group_name_H-M   'P -1'
_symmetry_Int_Tables_number      2
_space_group_name_Hall           '-P 1'
loop_
_symmetry_equiv_pos_site_id
_symmetry_equiv_pos_as_xyz
1 x,y,z
2 -x,-y,-z
_cell_length_a                   8.976(4)
_cell_length_b                   10.699(5)
_cell_length_c                   11.570(6)
_cell_angle_alpha                99.393(8)
_cell_angle_beta                 104.513(8)
_cell_angle_gamma                102.434(8)
_cell_volume                     1022.34
loop_
_atom_site_label
_atom_site_type_symbol
_atom_site_fract_x
_atom_site_fract_y
_atom_site_fract_z
Cu1 Cu 1.0000 1.0000 0.0000
Cu2 Cu 0.5000 0.0000 0.5000
O1 O 0.9568(3) 0.7556(2) 0.5181(2)
O2 O 0.7326(4) 0.2016(3) 0.6465(3)
O3 O 0.5603(3) 0.1714(2) 0.4629(2)
O4 O 0.9680(3) 0.9452(3) 0.1471(2)
O5 O 0.8078(4) 1.0784(3) 0.1488(3)
C1 C 0.9142(4) 0.8684(3) 0.3557(3)
H1 H 0.9960 0.8435 0.3302
C2 C 0.8833(4) 0.4613(3) 0.6346(3)
H2 H 0.9319 0.4300 0.7005
C3 C 0.9506(4) 0.5874(3) 0.6249(3)
H3 H 1.0435 0.6403 0.6836
N1 N 0.6702(3) 0.9437(3) 0.4337(3)
C4 C 0.8771(4) 0.6329(3) 0.5263(3)
C5 C 0.8324(4) 0.9492(3) 0.2976(3)
C6 C 0.7449(4) 0.3815(3) 0.5477(3)
C7 C 0.8700(4) 0.8267(3) 0.4521(3)
C8 C 0.7473(4) 0.8639(3) 0.4875(3)
H4 H 0.7168 0.8327 0.5509
C9 C 0.6768(4) 0.2428(3) 0.5551(3)
C10 C 0.7136(4) 0.9861(3) 0.3405(3)
H5 H 0.6619 1.0423 0.3035
C11 C 0.7378(5) 0.5569(3) 0.4398(4)
H6 H 0.6878 0.5897 0.3754
C12 C 0.6728(4) 0.4298(3) 0.4502(4)
H7 H 0.5801 0.3770 0.3912
C13 C 0.8697(4) 0.9968(4) 0.1893(3)
N2 N 1.2163(4) 1.1178(4) 0.0993(3)
C14 C 1.2040(7) 1.2321(5) 0.1834(5)
H8 H 1.1462 1.2021 0.2375
H9 H 1.1486 1.2835 0.1367
H10 H 1.3092 1.2851 0.2307
C15 C 1.3240(6) 1.0486(6) 0.1640(5)
H11 H 1.4272 1.1090 0.2046
H12 H 1.3341 0.9781 0.1060
H13 H 1.2809 1.0135 0.2236
H14 H 1.269(6) 1.149(5) 0.051(5)
O1A O 0.0432(3) -0.7556(2) 0.4819(2)
O2A O 0.2674(4) -0.2016(3) 0.3535(3)
O3A O 0.4397(3) -0.1714(2) 0.5371(2)
O4A O 0.0320(3) -0.9452(3) 0.8529(2)
O5A O 0.1922(4) -1.0784(3) 0.8512(3)
C1A C 0.0858(4) -0.8684(3) 0.6443(3)
H1A H 0.0040 -0.8435 0.6698
C2A C 0.1167(4) -0.4613(3) 0.3654(3)
H2A H 0.0681 -0.4300 0.2995
C3A C 0.0494(4) -0.5874(3) 0.3751(3)
H3A H -0.0435 -0.6403 0.3164
N1A N 0.3298(3) -0.9437(3) 0.5663(3)
C4A C 0.1229(4) -0.6329(3) 0.4737(3)
C5A C 0.1676(4) -0.9492(3) 0.7024(3)
C6A C 0.2551(4) -0.3815(3) 0.4523(3)
C7A C 0.1300(4) -0.8267(3) 0.5479(3)
C8A C 0.2527(4) -0.8639(3) 0.5125(3)
H4A H 0.2832 -0.8327 0.4491
C9A C 0.3232(4) -0.2428(3) 0.4449(3)
C10A C 0.2864(4) -0.9861(3) 0.6595(3)
H5A H 0.3381 -1.0423 0.6965
C11A C 0.2622(5) -0.5569(3) 0.5602(4)
H6A H 0.3122 -0.5897 0.6246
C12A C 0.3272(4) -0.4298(3) 0.5498(4)
H7A H 0.4199 -0.3770 0.6088
C13A C 0.1303(4) -0.9968(4) 0.8107(3)
N2A N 0.7837(4) 0.8822(4) -0.0993(3)
C14A C 0.7960(7) 0.7679(5) -0.1834(5)
H8A H 0.8538 0.7979 -0.2375
H9A H 0.8514 0.7165 -0.1367
H10A H 0.6908 0.7149 -0.2307
C15A C 0.6760(6) 0.9514(6) -0.1640(5)
H11A H 0.5728 0.8910 -0.2046
H12A H 0.6659 1.0219 -0.1060
H13A H 0.7191 0.9865 -0.2236
H14A H 0.731(6) 0.851(5) -0.051(5)
Cu1_2 Cu 0.0000 -1.0000 1.0000
Cu2_2 Cu 0.5000 -1.0000 0.5000
Cu2_3 Cu 0.5000 1.0000 0.5000
O4A_2 O 1.0320(3) 1.0548(3) -0.1471(2)
N1_2 N 0.6702(3) -0.0563(3) 0.4337(3)
N1A_2 N 0.3298(3) 0.0563(3) 0.5663(3)
N3 N 0.3492(6) 0.6673(6) 0.0470(6)
O6 O 0.5832(7) 0.7319(7) 0.0169(7)
C16 C 0.4314(12) 0.7226(10) -0.0115(11)
H15 H 0.3841 0.7572 -0.0755
C17 C 0.4092(14) 0.6082(11) 0.1453(10)
H16 H 0.5222 0.6211 0.1604
H17 H 0.3570 0.5157 0.1232
H18 H 0.3885 0.6482 0.2181
C18 C 0.1833(9) 0.6740(11) 0.0324(10)
H19 H 0.1749 0.7163 0.1094
H20 H 0.1130 0.5866 0.0061
H21 H 0.1540 0.7233 -0.0278
O7 O 0.140(2) 0.3599(13) 0.8969(11)
loop_
_geom_bond_atom_site_label_1
_geom_bond_atom_site_label_2
_geom_bond_site_symmetry_1
_geom_bond_site_symmetry_2
Cu1 O4 1_555 1_555
Cu2 O2 1_555 1_555
O1 C4 1_555 1_555
O2 C9 1_555 1_555
O3 Cu2 1_555 1_555
O4 C13 1_555 1_555
O5 C13 1_555 1_555
C1 H1 1_555 1_555
C2 H2 1_555 1_555
C3 C2 1_555 1_555
H3 C3 1_555 1_555
N1 C8 1_555 1_555
C4 C3 1_555 1_555
C5 C1 1_555 1_555
C6 C2 1_555 1_555
C7 O1 1_555 1_555
C8 C7 1_555 1_555
H4 C8 1_555 1_555
C9 O3 1_555 1_555
C10 N1 1_555 1_555
H5 C10 1_555 1_555
C11 C4 1_555 1_555
H6 C11 1_555 1_555
C12 C6 1_555 1_555
H7 C12 1_555 1_555
C13 C5 1_555 1_555
N2 Cu1 1_555 1_555
C14 N2 1_555 1_555
H8 C14 1_555 1_555
H9 C14 1_555 1_555
H10 C14 1_555 1_555
C15 N2 1_555 1_555
H11 C15 1_555 1_555
H12 C15 1_555 1_555
H13 C15 1_555 1_555
H14 N2 1_555 1_555
N3 C16 1_555 1_555
O6 C16 1_555 1_555
C16 H15 1_555 1_555
C17 N3 1_555 1_555
H16 C17 1_555 1_555
H17 C17 1_555 1_555
H18 C17 1_555 1_555
C18 N3 1_555 1_555
H19 C18 1_555 1_555
H20 C18 1_555 1_555
H21 C18 1_555 1_555
O1A C4A 1_555 1_555
O2A Cu2 1_555 1_555
O3A Cu2 1_555 1_555
O4A C13A 1_555 1_555
O5A C13A 1_555 1_555
C1A H1A 1_555 1_555
C2A H2A 1_555 1_555
C3A C2A 1_555 1_555
H3A C3A 1_555 1_555
N1A C8A 1_555 1_555
C4A C3A 1_555 1_555
C5A C1A 1_555 1_555
C6A C2A 1_555 1_555
C7A O1A 1_555 1_555
C8A C7A 1_555 1_555
H4A C8A 1_555 1_555
C9A O2A 1_555 1_555
C10A N1A 1_555 1_555
H5A C10A 1_555 1_555
C11A C4A 1_555 1_555
H6A C11A 1_555 1_555
C12A C6A 1_555 1_555
H7A C12A 1_555 1_555
C13A C5A 1_555 1_555
N2A Cu1 1_555 1_555
C14A N2A 1_555 1_555
H8A C14A 1_555 1_555
H9A C14A 1_555 1_555
H10A C14A 1_555 1_555
C15A N2A 1_555 1_555
H11A C15A 1_555 1_555
H12A C15A 1_555 1_555
H13A C15A 1_555 1_555
H14A N2A 1_555 1_555
Cu1_2 O4A 1_555 1_555
Cu2_2 N1A 1_555 1_555
Cu2_3 N1 1_555 1_555
O4A_2 Cu1 1_555 1_555
N1_2 Cu2 1_555 1_555
N1A_2 Cu2 1_555 1_555
C1 C7 1_555 1_555
C5 C10 1_555 1_555
C6 C9 1_555 1_555
C11 C12 1_555 1_555
O3A C9A 1_555 1_555
C1A C7A 1_555 1_555
C5A C10A 1_555 1_555
C6A C9A 1_555 1_555
C11A C12A 1_555 1_555

#END
