
#######################################################################
#
#                 Cambridge Crystallographic Data Centre
#                                CCDC 
#
#######################################################################
#
# If this CIF has been generated from an entry in the Cambridge 
# Structural Database, then it will include bibliographic, chemical, 
# crystal, experimental, refinement or atomic coordinate data resulting 
# from the CCDC's data processing and validation procedures.
#
#######################################################################

data_TUMRIE
_symmetry_cell_setting           monoclinic
_symmetry_space_group_name_H-M   'P 21/n'
_symmetry_Int_Tables_number      14
_space_group_name_Hall           '-P 2yn'
loop_
_symmetry_equiv_pos_site_id
_symmetry_equiv_pos_as_xyz
1 x,y,z
2 1/2-x,1/2+y,1/2-z
3 -x,-y,-z
4 1/2+x,1/2-y,1/2+z
_cell_length_a                   9.9977(7)
_cell_length_b                   18.2887(10)
_cell_length_c                   12.0082(9)
_cell_angle_alpha                90
_cell_angle_beta                 100.581(6)
_cell_angle_gamma                90
_cell_volume                     2158.3
loop_
_atom_site_label
_atom_site_type_symbol
_atom_site_fract_x
_atom_site_fract_y
_atom_site_fract_z
C1 C 0.3202(2) 0.09008(13) 0.2274(2)
C2 C 0.8156(2) 0.12515(13) 0.20400(19)
C3 C 0.5687(2) 0.10872(13) 0.2184(2)
H1 H 0.5721 0.0605 0.1896
C4 C 0.4486(2) 0.13466(13) 0.2466(2)
C5 C 0.6845(2) 0.15299(13) 0.2320(2)
C6 C 0.4436(2) 0.20479(13) 0.2904(2)
H2 H 0.3624 0.2228 0.3110
C7 C 0.6800(2) 0.22366(13) 0.2749(2)
H3 H 0.7578 0.2544 0.2843
C8 C 0.5596(2) 0.24788(12) 0.3034(2)
C9 C 0.6393(3) 0.27080(14) 0.5511(2)
H4 H 0.7325 0.2597 0.5419
H5 H 0.5832 0.2266 0.5365
H6 H 0.6398 0.2878 0.6285
C10 C 0.5821(2) 0.32882(13) 0.4696(2)
C11 C 0.5054(2) 0.38354(12) 0.3093(2)
C12 C 0.4564(2) 0.40258(13) 0.1895(2)
C13 C 0.4499(3) 0.35548(15) 0.0977(2)
H7 H 0.4874 0.3078 0.1099
C14 C 0.3423(4) 0.44296(16) -0.0207(3)
H8 H 0.2969 0.4582 -0.0935
C15 C 0.3548(3) 0.49182(15) 0.0696(2)
H9 H 0.3216 0.5403 0.0566
N1 N 0.55334(19) 0.31873(10) 0.35521(17)
N2 N 0.5529(2) 0.39676(11) 0.49243(17)
N3 N 0.5046(2) 0.43132(11) 0.39130(17)
N4 N 0.4124(2) 0.47159(12) 0.17374(18)
N5 N 0.3923(3) 0.37552(15) -0.0075(2)
O1 O 0.3155(2) 0.03037(12) 0.1762(2)
O2 O 0.21881(17) 0.11744(10) 0.26132(16)
O3 O 0.8262(2) 0.05757(10) 0.18712(19)
O4 O 0.91079(18) 0.16877(11) 0.19945(18)
Cd1 Cd 0.452154(15) 0.551750(8) 0.334134(14)
N2B N 0.4471(2) 0.60324(11) 0.50757(17)
O1A O 0.1845(2) 0.53037(12) 0.3238(2)
O2A O 0.28119(17) 0.61744(10) 0.23868(16)
O3A O 0.6738(2) 0.55757(10) 0.31288(19)
O4A O 0.58921(18) 0.66877(11) 0.30055(18)
Cd1A Cd 0.047846(15) 0.051750(8) 0.165866(14)
Cd1A_2 Cd 1.047846(15) 0.051750(8) 0.165866(14)
Cd1B Cd 0.547846(15) 0.448250(8) 0.665866(14)
O5 O 0.0784(3) 0.26823(15) 0.3608(3)
O6 O 0.7956(4) 0.2739(2) 0.0229(3)
O7 O 0.6025(6) 0.0093(3) 0.0124(5)
O10 O 0.5934(7) -0.1358(4) 0.0550(7)
O11 O 0.3342(3) 0.88308(19) 0.2711(3)
O13 O 0.7246(6) 0.9240(3) 0.2537(5)
O15 O 0.5013(10) 0.9489(5) 0.4638(8)
O8? O 0.6715(16) -0.0645(9) 0.0919(13)
O9? O 0.6378(7) -0.1258(4) 0.1292(6)
O12? O 0.455(2) 0.9043(11) 0.1853(16)
O14? O 0.7101(7) 0.9021(4) 0.3636(6)
O16? O 0.5773(7) 0.9150(4) 0.4230(6)
loop_
_geom_bond_atom_site_label_1
_geom_bond_atom_site_label_2
_geom_bond_site_symmetry_1
_geom_bond_site_symmetry_2
C1 C4 1_555 1_555
C2 C5 1_555 1_555
C3 H1 1_555 1_555
C4 C3 1_555 1_555
C5 C3 1_555 1_555
C6 C4 1_555 1_555
H2 C6 1_555 1_555
C7 C5 1_555 1_555
H3 C7 1_555 1_555
C8 C6 1_555 1_555
C9 H4 1_555 1_555
H5 C9 1_555 1_555
H6 C9 1_555 1_555
C10 C9 1_555 1_555
C11 C12 1_555 1_555
C12 C13 1_555 1_555
C13 H7 1_555 1_555
C14 H8 1_555 1_555
C15 C14 1_555 1_555
H9 C15 1_555 1_555
N1 C8 1_555 1_555
N2 C10 1_555 1_555
N3 C11 1_555 1_555
N4 C12 1_555 1_555
N5 C13 1_555 1_555
O1 C1 1_555 1_555
O2 C1 1_555 1_555
O3 C2 1_555 1_555
O4 C2 1_555 1_555
Cd1 N3 1_555 1_555
N2B Cd1 1_555 1_555
O1A Cd1 1_555 1_555
O2A Cd1 1_555 1_555
O3A Cd1 1_555 1_555
O4A Cd1 1_555 1_555
Cd1A O1 1_555 1_555
Cd1A_2 O3 1_555 1_555
Cd1B N2 1_555 1_555
C7 C8 1_555 1_555
C10 N1 1_555 1_555
C11 N1 1_555 1_555
C14 N5 1_555 1_555
C15 N4 1_555 1_555
N2 N3 1_555 1_555
N4 Cd1 1_555 1_555
O2 Cd1A 1_555 1_555
O4 Cd1A_2 1_555 1_555

#END
