
#######################################################################
#
#                 Cambridge Crystallographic Data Centre
#                                CCDC 
#
#######################################################################
#
# If this CIF has been generated from an entry in the Cambridge 
# Structural Database, then it will include bibliographic, chemical, 
# crystal, experimental, refinement or atomic coordinate data resulting 
# from the CCDC's data processing and validation procedures.
#
#######################################################################

data_TUMRUQ
_symmetry_cell_setting           monoclinic
_symmetry_space_group_name_H-M   'P 21/n'
_symmetry_Int_Tables_number      14
_space_group_name_Hall           '-P 2yn'
loop_
_symmetry_equiv_pos_site_id
_symmetry_equiv_pos_as_xyz
1 x,y,z
2 1/2-x,1/2+y,1/2-z
3 -x,-y,-z
4 1/2+x,1/2-y,1/2+z
_cell_length_a                   9.9602(9)
_cell_length_b                   17.0086(12)
_cell_length_c                   12.2279(14)
_cell_angle_alpha                90
_cell_angle_beta                 96.947(8)
_cell_angle_gamma                90
_cell_volume                     2056.31
loop_
_atom_site_label
_atom_site_type_symbol
_atom_site_fract_x
_atom_site_fract_y
_atom_site_fract_z
C1 C 0.3349(4) 0.0574(2) 0.2174(4)
C2 C 0.8331(3) 0.1170(2) 0.2386(3)
C3 C 0.5830(3) 0.0883(2) 0.2339(4)
H1 H 0.5970 0.0386 0.2014
C4 C 0.4536(3) 0.1109(2) 0.2536(3)
C5 C 0.6930(3) 0.1394(2) 0.2624(3)
C6 C 0.4320(3) 0.1824(2) 0.3018(3)
H2 H 0.3433 0.1979 0.3138
C7 C 0.6724(3) 0.2111(2) 0.3116(3)
H3 H 0.7458 0.2460 0.3309
C8 C 0.5417(3) 0.2311(2) 0.3325(3)
C9 C 0.5928(4) 0.2557(2) 0.5803(4)
H4 H 0.6917 0.2565 0.5946
H5 H 0.5627 0.2039 0.5519
H6 H 0.5544 0.2662 0.6490
C10 C 0.5469(3) 0.3166(2) 0.4983(3)
C11 C 0.4801(3) 0.3760(2) 0.3431(3)
C12 C 0.4424(3) 0.3972(2) 0.2269(3)
C13 C 0.3845(4) 0.3671(3) 0.0476(4)
H7 H 0.3743 0.3298 -0.0106
C14 C 0.3583(4) 0.4449(3) 0.0235(4)
H8 H 0.3248 0.4612 -0.0490
C15 C 0.3822(4) 0.4984(3) 0.1078(3)
H9 H 0.3669 0.5527 0.0931
N1 N 0.5205(3) 0.30412(18) 0.3875(3)
N2 N 0.5221(3) 0.39128(18) 0.5194(3)
N3 N 0.4795(3) 0.42836(18) 0.4209(3)
N4 N 0.4268(3) 0.47502(19) 0.2107(3)
N5 N 0.4244(3) 0.3419(2) 0.1511(3)
O1 O 0.3522(3) -0.0150(2) 0.2158(4)
O2 O 0.2241(2) 0.09235(17) 0.1929(3)
O3 O 0.8438(2) 0.05952(15) 0.1723(2)
O4 O 0.9320(2) 0.15455(17) 0.2837(2)
Cu1 Cu 0.45556(4) 0.54850(3) 0.34140(4)
N2B N 0.4779(3) 0.60872(18) 0.4806(3)
O2A O 0.2759(2) 0.59235(17) 0.3071(3)
O3A O 0.6562(2) 0.55952(15) 0.3277(2)
O4A O 0.5680(2) 0.65455(17) 0.2163(2)
Cu1A Cu 0.04444(4) 0.04850(3) 0.15860(4)
Cu1A_2 Cu 1.04444(4) 0.04850(3) 0.15860(4)
Cu1B Cu 0.54444(4) 0.45150(3) 0.65860(4)
O5 O 0.4942(4) 0.9372(2) 0.4274(4)
O6 O 0.7595(4) 0.4039(2) 0.3075(4)
O7 O 0.7502(4) 0.3840(3) 0.0874(5)
O10 O 0.6536(5) 0.2726(3) -0.0783(4)
O11 O 0.6570(5) 0.1108(3) -0.0267(5)
O12 O 0.8855(6) 0.3390(4) 0.4891(6)
O8? O 0.738(3) 0.2415(17) 0.007(2)
O9? O 0.653(2) 0.2057(15) -0.032(2)
loop_
_geom_bond_atom_site_label_1
_geom_bond_atom_site_label_2
_geom_bond_site_symmetry_1
_geom_bond_site_symmetry_2
C1 C4 1_555 1_555
C2 C5 1_555 1_555
C3 H1 1_555 1_555
C4 C3 1_555 1_555
C5 C3 1_555 1_555
C6 C4 1_555 1_555
H2 C6 1_555 1_555
C7 C5 1_555 1_555
H3 C7 1_555 1_555
C8 C6 1_555 1_555
C9 H4 1_555 1_555
H5 C9 1_555 1_555
H6 C9 1_555 1_555
C10 C9 1_555 1_555
C11 C12 1_555 1_555
C12 N4 1_555 1_555
C13 H7 1_555 1_555
C14 C13 1_555 1_555
H8 C14 1_555 1_555
C15 C14 1_555 1_555
H9 C15 1_555 1_555
N1 C8 1_555 1_555
N2 C10 1_555 1_555
N3 C11 1_555 1_555
N4 C15 1_555 1_555
N5 C12 1_555 1_555
O1 C1 1_555 1_555
O2 C1 1_555 1_555
O3 C2 1_555 1_555
O4 C2 1_555 1_555
Cu1 N3 1_555 1_555
N2B Cu1 1_555 1_555
O2A Cu1 1_555 1_555
O3A Cu1 1_555 1_555
O4A Cu1 1_555 1_555
Cu1A O2 1_555 1_555
Cu1A_2 O3 1_555 1_555
Cu1B N2 1_555 1_555
C7 C8 1_555 1_555
C10 N1 1_555 1_555
C11 N1 1_555 1_555
C13 N5 1_555 1_555
N2 N3 1_555 1_555
N4 Cu1 1_555 1_555
O4 Cu1A_2 1_555 1_555

#END
