
#######################################################################
#
#                 Cambridge Crystallographic Data Centre
#                                CCDC 
#
#######################################################################
#
# If this CIF has been generated from an entry in the Cambridge 
# Structural Database, then it will include bibliographic, chemical, 
# crystal, experimental, refinement or atomic coordinate data resulting 
# from the CCDC's data processing and validation procedures.
#
#######################################################################

data_TUVDUJ
_symmetry_cell_setting           hexagonal
_symmetry_space_group_name_H-M   'P 6/m c c'
_symmetry_Int_Tables_number      192
_space_group_name_Hall           "-P 6 2'c"
loop_
_symmetry_equiv_pos_site_id
_symmetry_equiv_pos_as_xyz
1 x,y,z
2 -y,x-y,z
3 -x+y,-x,z
4 y,-x+y,z
5 x-y,x,z
6 y,x,1/2-z
7 -x+y,y,1/2-z
8 x,x-y,1/2-z
9 x,y,-z
10 -x+y,y,1/2+z
11 x,x-y,1/2+z
12 y,x,1/2+z
13 -x,-y,-z
14 y,-x+y,-z
15 x-y,x,-z
16 -y,x-y,-z
17 -x+y,-x,-z
18 -y,-x,1/2+z
19 x-y,-y,1/2+z
20 -x,-x+y,1/2+z
21 -x,-y,z
22 x-y,-y,1/2-z
23 -x,-x+y,1/2-z
24 -y,-x,1/2-z
_cell_length_a                   15.229(2)
_cell_length_b                   15.229(2)
_cell_length_c                   15.852(5)
_cell_angle_alpha                90
_cell_angle_beta                 90
_cell_angle_gamma                120
_cell_volume                     3183.89
loop_
_atom_site_label
_atom_site_type_symbol
_atom_site_fract_x
_atom_site_fract_y
_atom_site_fract_z
Er1 Er 0.6667 0.3333 0.2500
Mn1 Mn 0.5000 0.5000 0.0000
N1 N 0.4810(3) 0.24049(14) 0.2500
O1 O 0.4507(2) 0.3848(3) 0.0932(2)
O2 O 0.5892(2) 0.3879(2) 0.14533(16)
O3 O 0.6551(3) 0.5113(3) 0.0000
C1 C 0.4951(3) 0.3532(3) 0.1409(3)
C2 C 0.4288(3) 0.2663(3) 0.1971(3)
C3 C 0.3257(4) 0.2149(4) 0.1951(3)
H1 H 0.2914 0.2331 0.1567
C4 C 0.2727(4) 0.1364(2) 0.2500
H2 H 0.2022 0.1011 0.2500
C3G C 0.3257(4) 0.1108(6) 0.3049(3)
C2G C 0.4288(3) 0.1625(4) 0.3029(3)
C1G C 0.4951(3) 0.1419(4) 0.3591(3)
O1G O 0.4507(2) 0.0659(4) 0.4068(2)
O2G O 0.5892(2) 0.2013(3) 0.35467(16)
H1G H 0.2914 0.0583 0.3433
N1A N 0.75951(14) 0.24051(33) 0.2500
O1A O 0.6152(3) 0.0659(4) 0.0932(2)
O2A O 0.6121(2) 0.2013(3) 0.14533(16)
C1A C 0.6468(3) 0.1419(4) 0.1409(3)
C2A C 0.7337(3) 0.1625(4) 0.1971(3)
C3A C 0.7851(4) 0.1108(6) 0.1951(3)
H1A H 0.7669 0.0583 0.1567
C4A C 0.8636(2) 0.1363(4) 0.2500
H2A H 0.8989 0.1011 0.2500
C3F C 0.8892(6) 0.2149(4) 0.3049(3)
C2F C 0.8375(4) 0.2663(3) 0.3029(3)
C1F C 0.8581(4) 0.3532(3) 0.3591(3)
O1F O 0.9341(4) 0.3848(3) 0.4068(2)
O2F O 0.7987(3) 0.3879(2) 0.35467(16)
H1F H 0.9417 0.2331 0.3433
N1B N 0.75949(33) 0.5190(3) 0.2500
O1B O 0.9341(4) 0.5493(2) 0.0932(2)
O2B O 0.7987(3) 0.4108(2) 0.14533(16)
C1B C 0.8581(4) 0.5049(3) 0.1409(3)
C2B C 0.8375(4) 0.5712(3) 0.1971(3)
C3B C 0.8892(6) 0.6743(4) 0.1951(3)
H1B H 0.9417 0.7086 0.1567
C4B C 0.8637(4) 0.7273(4) 0.2500
H2B H 0.8989 0.7978 0.2500
C3W C 0.7851(4) 0.6743(4) 0.3049(3)
C2W C 0.7337(3) 0.5712(3) 0.3029(3)
C1W C 0.6468(3) 0.5049(3) 0.3591(3)
O1W O 0.6152(3) 0.5493(2) 0.4068(2)
O2W O 0.6121(2) 0.4108(2) 0.35467(16)
H1W H 0.7669 0.7086 0.3433
Mn1G Mn 0.5000 0.0000 0.5000
Mn1A Mn 0.5000 0.0000 0.0000
Mn1F Mn 1.0000 0.5000 0.5000
Mn1B Mn 1.0000 0.5000 0.0000
Mn1W Mn 0.5000 0.5000 0.5000
N1H N 0.4810(3) 0.24049(14) -0.2500
O1H O 0.4507(2) 0.3848(3) -0.0932(2)
O2H O 0.5892(2) 0.3879(2) -0.14533(16)
C1H C 0.4951(3) 0.3532(3) -0.1409(3)
C2H C 0.4288(3) 0.2663(3) -0.1971(3)
C3H C 0.3257(4) 0.2149(4) -0.1951(3)
H1H H 0.2914 0.2331 -0.1567
C4H C 0.2727(4) 0.1364(2) -0.2500
H2H H 0.2022 0.1011 -0.2500
C3J C 0.3257(4) 0.1108(6) -0.3049(3)
C2J C 0.4288(3) 0.1625(4) -0.3029(3)
C1J C 0.4951(3) 0.1419(4) -0.3591(3)
O1J O 0.4507(2) 0.0659(4) -0.4068(2)
O2J O 0.5892(2) 0.2013(3) -0.35467(16)
H1J H 0.2914 0.0583 -0.3433
O1L O 0.5493(2) 0.6152(3) -0.0932(2)
O1T O 0.5493(2) 0.6152(3) 0.0932(2)
O3L O 0.3449(3) 0.4887(3) 0.0000
O1J_2 O 0.4507(2) 0.0659(4) 0.5932(2)
O1S O 0.5493(2) -0.0659(4) 0.5932(2)
O1V O 0.5493(2) -0.0659(4) 0.4068(2)
O3G O 0.6551(3) 0.1438(4) 0.5000
O3S O 0.3449(3) -0.1438(4) 0.5000
N1O N 0.75951(14) 0.24051(33) -0.2500
O1O O 0.6152(3) 0.0659(4) -0.0932(2)
O2O O 0.6121(2) 0.2013(3) -0.14533(16)
C1O C 0.6468(3) 0.1419(4) -0.1409(3)
C2O C 0.7337(3) 0.1625(4) -0.1971(3)
C3O C 0.7851(4) 0.1108(6) -0.1951(3)
H1O H 0.7669 0.0583 -0.1567
C4O C 0.8636(2) 0.1363(4) -0.2500
H2O H 0.8989 0.1011 -0.2500
C3I C 0.8892(6) 0.2149(4) -0.3049(3)
C2I C 0.8375(4) 0.2663(3) -0.3029(3)
C1I C 0.8581(4) 0.3532(3) -0.3591(3)
O1I O 0.9341(4) 0.3848(3) -0.4068(2)
O2I O 0.7987(3) 0.3879(2) -0.35467(16)
H1I H 0.9417 0.2331 -0.3433
N1M N 0.24049(14) -0.24051(33) -0.2500
O1M O 0.3848(3) -0.0659(4) -0.0932(2)
O2M O 0.3879(2) -0.2013(3) -0.14533(16)
C1M C 0.3532(3) -0.1419(4) -0.1409(3)
C2M C 0.2663(3) -0.1625(4) -0.1971(3)
C3M C 0.2149(4) -0.1108(6) -0.1951(3)
H1M H 0.2331 -0.0583 -0.1567
C4M C 0.1364(2) -0.1363(4) -0.2500
H2M H 0.1011 -0.1011 -0.2500
C3R C 0.1108(6) -0.2149(4) -0.3049(3)
C2R C 0.1625(4) -0.2663(3) -0.3029(3)
C1R C 0.1419(4) -0.3532(3) -0.3591(3)
O1R O 0.0659(4) -0.3848(3) -0.4068(2)
O2R O 0.2013(3) -0.3879(2) -0.35467(16)
H1R H 0.0583 -0.2331 -0.3433
O1C O 0.3848(3) -0.0659(4) 0.0932(2)
O3A O 0.4887(3) 0.1438(4) 0.0000
O3M O 0.5113(3) -0.1438(4) 0.0000
Er1H Er 0.6667 0.3333 -0.2500
Mn1G_2 Mn 0.5000 0.0000 -0.5000
Mn1F_2 Mn 1.0000 0.5000 -0.5000
Er1K Er 0.3333 -0.3333 -0.2500
Mn1F_3 Mn 0.0000 -0.5000 -0.5000
N1P N 0.75949(33) 0.5190(3) -0.2500
O2P O 0.7987(3) 0.4108(2) -0.14533(16)
O2Q O 0.6121(2) 0.4108(2) -0.35467(16)
O4 O 0.7923(12) 0.7330(10) 0.0000
loop_
_geom_bond_atom_site_label_1
_geom_bond_atom_site_label_2
_geom_bond_site_symmetry_1
_geom_bond_site_symmetry_2
Er1 N1 1_555 1_555
Mn1 O1 1_555 1_555
N1 C2 1_555 1_555
O1 C1 1_555 1_555
O2 Er1 1_555 1_555
O3 Mn1 1_555 1_555
C1 O2 1_555 1_555
C2 C1 1_555 1_555
C3 C2 1_555 1_555
H1 C3 1_555 1_555
C4 C3 1_555 1_555
H2 C4 1_555 1_555
C3G C4 1_555 1_555
C2G N1 1_555 1_555
C1G C2G 1_555 1_555
O1G C1G 1_555 1_555
O2G Er1 1_555 1_555
H1G C3G 1_555 1_555
N1A Er1 1_555 1_555
O1A C1A 1_555 1_555
O2A Er1 1_555 1_555
C1A O2A 1_555 1_555
C2A N1A 1_555 1_555
C3A C2A 1_555 1_555
H1A C3A 1_555 1_555
C4A C3A 1_555 1_555
H2A C4A 1_555 1_555
C3F C4A 1_555 1_555
C2F N1A 1_555 1_555
C1F C2F 1_555 1_555
O1F C1F 1_555 1_555
O2F Er1 1_555 1_555
H1F C3F 1_555 1_555
N1B Er1 1_555 1_555
O1B C1B 1_555 1_555
O2B Er1 1_555 1_555
C1B O2B 1_555 1_555
C2B N1B 1_555 1_555
C3B C2B 1_555 1_555
H1B C3B 1_555 1_555
C4B C3B 1_555 1_555
H2B C4B 1_555 1_555
C3W C4B 1_555 1_555
C2W N1B 1_555 1_555
C1W C2W 1_555 1_555
O1W C1W 1_555 1_555
O2W Er1 1_555 1_555
H1W C3W 1_555 1_555
Mn1G O1G 1_555 1_555
Mn1A O1A 1_555 1_555
Mn1F O1F 1_555 1_555
Mn1B O1B 1_555 1_555
Mn1W O1W 1_555 1_555
N1H C2H 1_555 1_555
O1H Mn1 1_555 1_555
O2H C1H 1_555 1_555
C1H O1H 1_555 1_555
C2H C1H 1_555 1_555
C3H C2H 1_555 1_555
H1H C3H 1_555 1_555
C4H C3H 1_555 1_555
H2H C4H 1_555 1_555
C3J C4H 1_555 1_555
C2J N1H 1_555 1_555
C1J C2J 1_555 1_555
O1J C1J 1_555 1_555
O2J C1J 1_555 1_555
H1J C3J 1_555 1_555
O1L Mn1 1_555 1_555
O1T Mn1 1_555 1_555
O3L Mn1 1_555 1_555
O1J_2 Mn1G 1_555 1_555
O1S Mn1G 1_555 1_555
O1V Mn1G 1_555 1_555
O3G Mn1G 1_555 1_555
O3S Mn1G 1_555 1_555
N1O C2O 1_555 1_555
O1O Mn1A 1_555 1_555
O2O C1O 1_555 1_555
C1O O1O 1_555 1_555
C2O C1O 1_555 1_555
C3O C2O 1_555 1_555
H1O C3O 1_555 1_555
C4O C3O 1_555 1_555
H2O C4O 1_555 1_555
C3I C4O 1_555 1_555
C2I N1O 1_555 1_555
C1I C2I 1_555 1_555
O1I C1I 1_555 1_555
O2I C1I 1_555 1_555
H1I C3I 1_555 1_555
N1M C2M 1_555 1_555
O1M Mn1A 1_555 1_555
O2M C1M 1_555 1_555
C1M O1M 1_555 1_555
C2M C1M 1_555 1_555
C3M C2M 1_555 1_555
H1M C3M 1_555 1_555
C4M C3M 1_555 1_555
H2M C4M 1_555 1_555
C3R C4M 1_555 1_555
C2R N1M 1_555 1_555
C1R C2R 1_555 1_555
O1R C1R 1_555 1_555
O2R C1R 1_555 1_555
H1R C3R 1_555 1_555
O1C Mn1A 1_555 1_555
O3A Mn1A 1_555 1_555
O3M Mn1A 1_555 1_555
Er1H N1H 1_555 1_555
Mn1G_2 O1J 1_555 1_555
Mn1F_2 O1I 1_555 1_555
Er1K N1M 1_555 1_555
Mn1F_3 O1R 1_555 1_555
N1P Er1H 1_555 1_555
O2P Er1H 1_555 1_555
O2Q Er1H 1_555 1_555
C3G C2G 1_555 1_555
C1G O2G 1_555 1_555
C1A C2A 1_555 1_555
C3F C2F 1_555 1_555
C1F O2F 1_555 1_555
C1B C2B 1_555 1_555
C3W C2W 1_555 1_555
C1W O2W 1_555 1_555
O2H Er1H 1_555 1_555
C3J C2J 1_555 1_555
O2J Er1H 1_555 1_555
N1O Er1H 1_555 1_555
O2O Er1H 1_555 1_555
C3I C2I 1_555 1_555
O2I Er1H 1_555 1_555
O2M Er1K 1_555 1_555
C3R C2R 1_555 1_555
O2R Er1K 1_555 1_555

#END
