
#######################################################################
#
#                 Cambridge Crystallographic Data Centre
#                                CCDC 
#
#######################################################################
#
# If this CIF has been generated from an entry in the Cambridge 
# Structural Database, then it will include bibliographic, chemical, 
# crystal, experimental, refinement or atomic coordinate data resulting 
# from the CCDC's data processing and validation procedures.
#
#######################################################################

data_UFISUY
_symmetry_cell_setting           orthorhombic
_symmetry_space_group_name_H-M   'F d d 2'
_symmetry_Int_Tables_number      43
_space_group_name_Hall           'F 2 -2d'
loop_
_symmetry_equiv_pos_site_id
_symmetry_equiv_pos_as_xyz
1 x,y,z
2 -x,-y,z
3 1/4-x,1/4+y,1/4+z
4 1/4+x,1/4-y,1/4+z
5 x,1/2+y,1/2+z
6 -x,1/2-y,1/2+z
7 1/4-x,3/4+y,3/4+z
8 1/4+x,3/4-y,3/4+z
9 1/2+x,y,1/2+z
10 1/2-x,-y,1/2+z
11 3/4-x,1/4+y,3/4+z
12 3/4+x,1/4-y,3/4+z
13 1/2+x,1/2+y,z
14 1/2-x,1/2-y,z
15 3/4-x,3/4+y,1/4+z
16 3/4+x,3/4-y,1/4+z
_cell_length_a                   14.986(4)
_cell_length_b                   23.552(6)
_cell_length_c                   9.051(2)
_cell_angle_alpha                90
_cell_angle_beta                 90
_cell_angle_gamma                90
_cell_volume                     3194.55
loop_
_atom_site_label
_atom_site_type_symbol
_atom_site_fract_x
_atom_site_fract_y
_atom_site_fract_z
Na2 Na 0.0157(17) 0.1626(10) 0.114(4)
Fe1 Fe 0.07179(4) 0.05425(2) 0.69772(6)
Cl1 Cl 0.18147(8) -0.00431(6) 0.5989(2)
O1 O 0.1592(2) 0.12505(14) 0.6401(4)
O2 O 0.2309(2) 0.13005(12) 1.0039(4)
O3 O 0.2645(2) 0.17903(12) 0.7447(4)
O4 O 0.1315(2) 0.07291(13) 0.8961(4)
O5 O 0.0000 0.0000 0.7720(6)
C1 C 0.1882(3) 0.11221(17) 0.8947(5)
C2 C 0.2047(3) 0.14158(17) 0.7453(5)
Fe1K Fe -0.17821(4) 0.19575(2) 0.44772(6)
Fe1C Fe 0.32179(4) 0.19575(2) 0.94772(6)
Fe1A Fe -0.07179(4) -0.05425(2) 0.69772(6)
Cl1K Cl -0.06853(8) 0.25431(6) 0.3489(2)
O1K O -0.0908(2) 0.12495(14) 0.3901(4)
O2K O -0.0191(2) 0.11995(12) 0.7539(4)
O2H O -0.2691(2) 0.13005(12) 0.5039(4)
O3K O 0.0145(2) 0.07097(12) 0.4947(4)
O3H O -0.2355(2) 0.17903(12) 0.2447(4)
O4K O -0.1185(2) 0.17709(13) 0.6461(4)
O5J O -0.2500 0.2500 0.5220(6)
C1K C -0.0618(3) 0.13779(17) 0.6447(5)
C2K C -0.0453(3) 0.10842(17) 0.4953(5)
Na1 Na 0.1022(14) 0.0079(10) 0.229(3)
Na3? Na 0.088(2) 0.0707(14) 0.194(6)
Na4? Na 0.1523(17) -0.0616(9) -0.024(4)
loop_
_geom_bond_atom_site_label_1
_geom_bond_atom_site_label_2
_geom_bond_site_symmetry_1
_geom_bond_site_symmetry_2
Fe1 Cl1 1_555 1_555
O1 Fe1 1_555 1_555
O2 C1 1_555 1_555
O3 C2 1_555 1_555
O4 Fe1 1_555 1_555
O5 Fe1 1_555 1_555
C1 O4 1_555 1_555
C2 O1 1_555 1_555
Fe1K Cl1K 1_555 1_555
Fe1C O2 1_555 1_555
Fe1A O5 1_555 1_555
O1K Fe1K 1_555 1_555
O2K Fe1 1_555 1_555
O2H Fe1K 1_555 1_555
O3K Fe1 1_555 1_555
O3H Fe1K 1_555 1_555
O4K Fe1K 1_555 1_555
O5J Fe1K 1_555 1_555
C1K O2K 1_555 1_555
C2K O1K 1_555 1_555
O3 Fe1C 1_555 1_555
C1 C2 1_555 1_555
O3K C2K 1_555 1_555
O4K C1K 1_555 1_555
C1K C2K 1_555 1_555

#END
