
#######################################################################
#
#                 Cambridge Crystallographic Data Centre
#                                CCDC 
#
#######################################################################
#
# If this CIF has been generated from an entry in the Cambridge 
# Structural Database, then it will include bibliographic, chemical, 
# crystal, experimental, refinement or atomic coordinate data resulting 
# from the CCDC's data processing and validation procedures.
#
#######################################################################

data_UHISOU
_symmetry_cell_setting           triclinic
_symmetry_space_group_name_H-M   'P -1'
_symmetry_Int_Tables_number      2
_space_group_name_Hall           '-P 1'
loop_
_symmetry_equiv_pos_site_id
_symmetry_equiv_pos_as_xyz
1 x,y,z
2 -x,-y,-z
_cell_length_a                   6.90070(10)
_cell_length_b                   7.47220(10)
_cell_length_c                   8.2521(2)
_cell_angle_alpha                90.2270(10)
_cell_angle_beta                 108.6700(10)
_cell_angle_gamma                93.3320(10)
_cell_volume                     402.319
loop_
_atom_site_label
_atom_site_type_symbol
_atom_site_fract_x
_atom_site_fract_y
_atom_site_fract_z
Mg1 Mg 0.5000 -0.5000 -1.0000
Mg2 Mg 1.0000 0.0000 0.0000
O1 O 0.45067(8) 0.26448(7) -0.14641(7)
O2 O 0.52139(10) -0.35781(8) -0.20938(7)
O3 O 0.83624(10) -0.22634(8) -0.11849(8)
O4 O 0.73676(10) 0.12375(10) -0.04164(8)
C1 C 0.57810(11) 0.15637(9) -0.16004(8)
C2 C 0.53660(10) 0.06829(9) -0.33339(8)
C3 C 0.45441(11) 0.17385(9) -0.47559(8)
H1 H 0.4238 0.2907 -0.4591
C4 C 0.58252(10) -0.10773(9) -0.35876(8)
C5 C 0.65330(11) -0.23849(9) -0.21637(8)
O5 O 0.18442(10) -0.48370(9) -1.09819(9)
H2 H 0.1324 -0.5657 -1.0473
H3 H 0.1322 -0.3945 -1.0994
O6 O 0.95398(11) -0.09718(13) 0.22892(9)
H4 H 0.8405 -0.1468 0.2151
H5 H 1.0247 -0.1237 0.3321
Mg1_2 Mg 0.5000 -0.5000 0.0000
Mg1_3 Mg 0.5000 0.5000 0.0000
Mg1_4 Mg 0.5000 0.5000 -1.0000
Mg2_2 Mg 0.0000 0.0000 -1.0000
O1A O 0.54933(8) -0.26448(7) -0.85359(7)
O1_2 O 0.45067(8) -0.73552(7) -1.14641(7)
O2A O 0.47861(10) 0.35781(8) -0.79062(7)
O2_2 O 0.52139(10) -0.35781(8) -1.20938(7)
O2A_2 O 0.47861(10) -0.64219(8) -0.79062(7)
O3A O 0.16376(10) 0.22634(8) -0.88151(8)
O3A_2 O 1.16376(10) 0.22634(8) 0.11849(8)
O4A O 0.26324(10) -0.12375(10) -0.95836(8)
O4A_2 O 1.26324(10) -0.12375(10) 0.04164(8)
C1A C 0.42190(11) -0.15637(9) -0.83996(8)
C2A C 0.46340(10) -0.06829(9) -0.66661(8)
C3A C 0.54559(11) -0.17385(9) -0.52441(8)
H1A H 0.5762 -0.2907 -0.5409
C4A C 0.41748(10) 0.10773(9) -0.64124(8)
C5A C 0.34670(11) 0.23849(9) -0.78363(8)
O5A O 0.81558(10) -0.51630(9) -0.90181(9)
H2A H 0.8676 -0.4343 -0.9527
H3A H 0.8678 -0.6055 -0.9006
O6A O 1.04602(11) 0.09718(13) -0.22892(9)
H4A H 1.1595 0.1468 -0.2151
H5A H 0.9753 0.1237 -0.3321
O7 O -0.0986(3) 0.2303(3) -0.5748(2)
H6 H -0.0699 0.1429 -0.5558
H7 H -0.2224 0.2625 -0.6279
O8 O -0.1348(5) 0.4299(6) -0.4849(5)
H8 H -0.1254 0.5072 -0.4012
H9 H -0.2277 0.4079 -0.5804
loop_
_geom_bond_atom_site_label_1
_geom_bond_atom_site_label_2
_geom_bond_site_symmetry_1
_geom_bond_site_symmetry_2
Mg1 O5 1_555 1_555
Mg2 O3 1_555 1_555
O1 C1 1_555 1_555
O2 C5 1_555 1_555
O3 C5 1_555 1_555
O4 Mg2 1_555 1_555
C1 O4 1_555 1_555
C2 C1 1_555 1_555
C3 C2 1_555 1_555
H1 C3 1_555 1_555
C4 C2 1_555 1_555
C5 C4 1_555 1_555
O5 H2 1_555 1_555
H3 O5 1_555 1_555
O6 Mg2 1_555 1_555
H4 O6 1_555 1_555
H5 O6 1_555 1_555
O7 H6 1_555 1_555
H7 O7 1_555 1_555
O8 H8 1_555 1_555
H9 O8 1_555 1_555
Mg1_2 O2 1_555 1_555
Mg1_3 O1 1_555 1_555
Mg1_4 O2A 1_555 1_555
Mg2_2 O3A 1_555 1_555
O1A Mg1 1_555 1_555
O1_2 Mg1 1_555 1_555
O2A C5A 1_555 1_555
O2_2 Mg1 1_555 1_555
O2A_2 Mg1 1_555 1_555
O3A C5A 1_555 1_555
O3A_2 Mg2 1_555 1_555
O4A Mg2_2 1_555 1_555
O4A_2 Mg2 1_555 1_555
C1A O1A 1_555 1_555
C2A C1A 1_555 1_555
C3A C4 1_555 1_555
H1A C3A 1_555 1_555
C4A C3 1_555 1_555
C5A C4A 1_555 1_555
O5A Mg1 1_555 1_555
H2A O5A 1_555 1_555
H3A O5A 1_555 1_555
O6A Mg2 1_555 1_555
H4A O6A 1_555 1_555
H5A O6A 1_555 1_555
O4A C1A 1_555 1_555
C2A C3A 1_555 1_555
C2A C4A 1_555 1_555

#END
