
#######################################################################
#
#                 Cambridge Crystallographic Data Centre
#                                CCDC 
#
#######################################################################
#
# If this CIF has been generated from an entry in the Cambridge 
# Structural Database, then it will include bibliographic, chemical, 
# crystal, experimental, refinement or atomic coordinate data resulting 
# from the CCDC's data processing and validation procedures.
#
#######################################################################

data_UKAQED
_symmetry_cell_setting           triclinic
_symmetry_space_group_name_H-M   'P -1'
_symmetry_Int_Tables_number      2
_space_group_name_Hall           '-P 1'
loop_
_symmetry_equiv_pos_site_id
_symmetry_equiv_pos_as_xyz
1 x,y,z
2 -x,-y,-z
_cell_length_a                   10.724(2)
_cell_length_b                   11.831(2)
_cell_length_c                   14.593(3)
_cell_angle_alpha                73.66(3)
_cell_angle_beta                 71.98(3)
_cell_angle_gamma                66.90(3)
_cell_volume                     1592.2
loop_
_atom_site_label
_atom_site_type_symbol
_atom_site_fract_x
_atom_site_fract_y
_atom_site_fract_z
Eu1 Eu -0.01243(2) 0.55121(2) 0.627773(16)
P1 P 0.14274(15) 0.71945(14) 0.72620(10)
O1 O -0.0532(4) 0.5752(4) 1.2164(3)
O2 O 0.7643(4) 0.5607(4) 0.4095(3)
O3 O -0.0673(5) 1.3194(4) 0.5177(3)
O4 O 0.1678(4) 0.4590(5) 1.2037(3)
O5 O -0.0335(5) 1.3512(4) 0.6527(3)
C1 C 0.1287(6) 0.6675(5) 0.8557(4)
C2 C 0.4882(6) 0.6393(6) 0.5092(4)
H1 H 0.5077 0.6323 0.4426
C3 C 0.0782(6) 0.8869(6) 0.7027(4)
C4 C 0.3225(6) 0.6776(5) 0.6627(4)
C5 C -0.0122(7) 0.9457(6) 0.6389(5)
H2 H -0.0458 0.8976 0.6162
C6 C 0.3529(6) 0.6668(6) 0.5642(4)
H3 H 0.2799 0.6786 0.5350
C7 C 0.5952(6) 0.6218(6) 0.5514(4)
C8 C 0.0259(7) 0.7408(7) 0.9203(5)
H4 H -0.0314 0.8217 0.8959
C9 C 0.5672(7) 0.6313(7) 0.6493(4)
H5 H 0.6415 0.6168 0.6782
C10 C 0.4304(7) 0.6618(7) 0.7055(5)
H6 H 0.4109 0.6718 0.7714
C11 C 0.1255(7) 0.9588(6) 0.7369(5)
H7 H 0.1874 0.9191 0.7799
C12 C 0.0908(6) 0.5795(6) 1.0562(4)
C13 C 0.0672(6) 0.5353(6) 1.1654(4)
C14 C 0.1929(7) 0.5040(7) 0.9923(5)
H8 H 0.2507 0.4235 1.0169
C15 C 0.0071(7) 0.6965(7) 1.0193(5)
H9 H -0.0642 0.7468 1.0632
O6 O 0.8403(4) 0.5750(4) 0.5285(3)
C16 C -0.0043(7) 1.1460(6) 0.6421(4)
C17 C -0.0528(7) 1.0749(6) 0.6089(5)
H10 H -0.1141 1.1149 0.5654
C18 C 0.0821(7) 1.0876(6) 0.7082(5)
H11 H 0.1113 1.1363 0.7337
C19 C -0.0387(6) 1.2829(6) 0.6023(4)
C20 C 0.7416(6) 0.5850(5) 0.4928(4)
O7 O 0.0641(4) 0.6710(4) 0.6870(3)
C21 C 0.2091(7) 0.5478(7) 0.8924(5)
H12 H 0.2759 0.4956 0.8482
O8 O -0.1952(5) 0.7580(5) 0.6313(4)
C22 C -0.2925(14) 0.8251(11) 0.6728(10)
H13 H -0.3218 0.7992 0.7414
N1 N -0.3689(11) 0.9396(11) 0.6303(10)
C23 C -0.331(2) 0.996(2) 0.5265(15)
H14 H -0.2766 1.0491 0.5202
H15 H -0.4151 1.0465 0.5022
H16 H -0.2745 0.9297 0.4881
C24 C -0.497(2) 1.027(2) 0.670(2)
H17 H -0.5746 1.0037 0.6687
H18 H -0.5052 1.1109 0.6298
H19 H -0.5001 1.0283 0.7371
Eu1A Eu 0.01243(2) 0.44879(2) 1.372227(16)
Eu1_2 Eu -1.01243(2) 0.55121(2) 1.627773(16)
Eu1_3 Eu -0.01243(2) -0.44879(2) 1.627773(16)
Eu1_4 Eu -0.01243(2) 1.55121(2) 0.627773(16)
Eu1_5 Eu 0.98757(2) 0.55121(2) 0.627773(16)
Eu1A_2 Eu -0.98757(2) 0.44879(2) 1.372227(16)
Eu1A_3 Eu 0.01243(2) -0.55121(2) 1.372227(16)
Eu1A_4 Eu 0.01243(2) 1.44879(2) 0.372227(16)
Eu1A_5 Eu 1.01243(2) 0.44879(2) 0.372227(16)
P1A P -0.14274(15) 0.28055(14) 1.27380(10)
O1A O 0.0532(4) 0.4248(4) 0.7836(3)
O2A O -0.7643(4) 0.4393(4) 1.5905(3)
O2_2 O -0.2357(4) 0.5607(4) 1.4095(3)
O2A_2 O 0.2357(4) 0.4393(4) 0.5905(3)
O3A O 0.0673(5) -0.3194(4) 1.4823(3)
O3_2 O -0.0673(5) 0.3194(4) 1.5177(3)
O3A_2 O 0.0673(5) 0.6806(4) 0.4823(3)
O4A O -0.1678(4) 0.5410(5) 0.7963(3)
O5A O 0.0335(5) -0.3512(4) 1.3473(3)
O5_2 O -0.0335(5) 0.3512(4) 0.6527(3)
O5A_2 O 0.0335(5) 0.6488(4) 1.3473(3)
C1A C -0.1287(6) 0.3325(5) 1.1443(4)
C2A C -0.4882(6) 0.3607(6) 1.4908(4)
H1A H -0.5077 0.3677 1.5574
C3A C -0.0782(6) 0.1131(6) 1.2973(4)
C4A C -0.3225(6) 0.3224(5) 1.3373(4)
C5A C 0.0122(7) 0.0543(6) 1.3611(5)
H2A H 0.0458 0.1024 1.3838
C6A C -0.3529(6) 0.3332(6) 1.4358(4)
H3A H -0.2799 0.3214 1.4650
C7A C -0.5952(6) 0.3782(6) 1.4486(4)
C8A C -0.0259(7) 0.2592(7) 1.0797(5)
H4A H 0.0314 0.1783 1.1041
C9A C -0.5672(7) 0.3687(7) 1.3507(4)
H5A H -0.6415 0.3832 1.3218
C10A C -0.4304(7) 0.3382(7) 1.2945(5)
H6A H -0.4109 0.3282 1.2286
C11A C -0.1255(7) 0.0412(6) 1.2631(5)
H7A H -0.1874 0.0809 1.2201
C12A C -0.0908(6) 0.4205(6) 0.9438(4)
C13A C -0.0672(6) 0.4647(6) 0.8346(4)
C14A C -0.1929(7) 0.4960(7) 1.0077(5)
H8A H -0.2507 0.5765 0.9831
C15A C -0.0071(7) 0.3035(7) 0.9807(5)
H9A H 0.0642 0.2532 0.9368
O6A O -0.8403(4) 0.4250(4) 1.4715(3)
O6_2 O -0.1597(4) 0.5750(4) 0.5285(3)
O6_3 O -0.1597(4) 0.5750(4) 1.5285(3)
O6A_2 O 0.1597(4) 0.4250(4) 0.4715(3)
O6A_3 O 0.1597(4) 0.4250(4) 1.4715(3)
C16A C 0.0043(7) -0.1460(6) 1.3579(4)
C17A C 0.0528(7) -0.0749(6) 1.3911(5)
H10A H 0.1141 -0.1149 1.4346
C18A C -0.0821(7) -0.0876(6) 1.2918(5)
H11A H -0.1113 -0.1363 1.2663
C19A C 0.0387(6) -0.2829(6) 1.3977(4)
C20A C -0.7416(6) 0.4150(5) 1.5072(4)
O7A O -0.0641(4) 0.3290(4) 1.3130(3)
C21A C -0.2091(7) 0.4522(7) 1.1076(5)
H12A H -0.2759 0.5044 1.1518
O8A O 0.1952(5) 0.2420(5) 1.3687(4)
C22A C 0.2925(14) 0.1749(11) 1.3272(10)
H13A H 0.3218 0.2008 1.2586
N1A N 0.3689(11) 0.0604(11) 1.3697(10)
C23A C 0.331(2) 0.004(2) 1.4735(15)
H14A H 0.2766 -0.0491 1.4798
H15A H 0.4151 -0.0465 1.4978
H16A H 0.2745 0.0703 1.5119
C24A C 0.497(2) -0.027(2) 1.330(2)
H17A H 0.5746 -0.0037 1.3313
H18A H 0.5052 -0.1109 1.3702
H19A H 0.5001 -0.0283 1.2629
loop_
_geom_bond_atom_site_label_1
_geom_bond_atom_site_label_2
_geom_bond_site_symmetry_1
_geom_bond_site_symmetry_2
Eu1 O7 1_555 1_555
P1 C1 1_555 1_555
O1 C13 1_555 1_555
O2 C20 1_555 1_555
O3 C19 1_555 1_555
O4 C13 1_555 1_555
O5 C19 1_555 1_555
C1 C8 1_555 1_555
C2 H1 1_555 1_555
C3 P1 1_555 1_555
C4 P1 1_555 1_555
C5 C3 1_555 1_555
H2 C5 1_555 1_555
C6 C2 1_555 1_555
H3 C6 1_555 1_555
C7 C2 1_555 1_555
C8 H4 1_555 1_555
C9 C7 1_555 1_555
H5 C9 1_555 1_555
C10 C4 1_555 1_555
H6 C10 1_555 1_555
C11 C3 1_555 1_555
H7 C11 1_555 1_555
C12 C13 1_555 1_555
C14 C12 1_555 1_555
H8 C14 1_555 1_555
C15 C8 1_555 1_555
H9 C15 1_555 1_555
O6 C20 1_555 1_555
C16 C17 1_555 1_555
C17 C5 1_555 1_555
H10 C17 1_555 1_555
C18 C11 1_555 1_555
H11 C18 1_555 1_555
C19 C16 1_555 1_555
C20 C7 1_555 1_555
O7 P1 1_555 1_555
C21 C1 1_555 1_555
H12 C21 1_555 1_555
O8 Eu1 1_555 1_555
C22 O8 1_555 1_555
H13 C22 1_555 1_555
N1 C22 1_555 1_555
C23 N1 1_555 1_555
H14 C23 1_555 1_555
H15 C23 1_555 1_555
H16 C23 1_555 1_555
C24 N1 1_555 1_555
H17 C24 1_555 1_555
H18 C24 1_555 1_555
H19 C24 1_555 1_555
Eu1A O1 1_555 1_555
Eu1_2 O2A 1_555 1_555
Eu1_3 O3A 1_555 1_555
Eu1_4 O5 1_555 1_555
Eu1_5 O6 1_555 1_555
Eu1A_2 O6A 1_555 1_555
Eu1A_3 O5A 1_555 1_555
Eu1A_4 O3 1_555 1_555
Eu1A_5 O2 1_555 1_555
P1A C1A 1_555 1_555
O1A Eu1 1_555 1_555
O2A C20A 1_555 1_555
O2_2 Eu1A 1_555 1_555
O2A_2 Eu1 1_555 1_555
O3A C19A 1_555 1_555
O3_2 Eu1A 1_555 1_555
O3A_2 Eu1 1_555 1_555
O4A Eu1 1_555 1_555
O5A C19A 1_555 1_555
O5_2 Eu1 1_555 1_555
O5A_2 Eu1A 1_555 1_555
C1A C8A 1_555 1_555
C2A H1A 1_555 1_555
C3A P1A 1_555 1_555
C4A P1A 1_555 1_555
C5A C3A 1_555 1_555
H2A C5A 1_555 1_555
C6A C2A 1_555 1_555
H3A C6A 1_555 1_555
C7A C2A 1_555 1_555
C8A H4A 1_555 1_555
C9A C7A 1_555 1_555
H5A C9A 1_555 1_555
C10A C4A 1_555 1_555
H6A C10A 1_555 1_555
C11A C3A 1_555 1_555
H7A C11A 1_555 1_555
C12A C13A 1_555 1_555
C13A O1A 1_555 1_555
C14A C12A 1_555 1_555
H8A C14A 1_555 1_555
C15A C8A 1_555 1_555
H9A C15A 1_555 1_555
O6A Eu1_2 1_555 1_555
O6_2 Eu1 1_555 1_555
O6_3 Eu1A 1_555 1_555
O6A_2 Eu1 1_555 1_555
O6A_3 Eu1A 1_555 1_555
C16A C17A 1_555 1_555
C17A C5A 1_555 1_555
H10A C17A 1_555 1_555
C18A C11A 1_555 1_555
H11A C18A 1_555 1_555
C19A C16A 1_555 1_555
C20A C7A 1_555 1_555
O7A Eu1A 1_555 1_555
C21A C1A 1_555 1_555
H12A C21A 1_555 1_555
O8A Eu1A 1_555 1_555
C22A O8A 1_555 1_555
H13A C22A 1_555 1_555
N1A C22A 1_555 1_555
C23A N1A 1_555 1_555
H14A C23A 1_555 1_555
H15A C23A 1_555 1_555
H16A C23A 1_555 1_555
C24A N1A 1_555 1_555
H17A C24A 1_555 1_555
H18A C24A 1_555 1_555
H19A C24A 1_555 1_555
O4 Eu1A 1_555 1_555
C4 C6 1_555 1_555
C9 C10 1_555 1_555
C12 C15 1_555 1_555
C14 C21 1_555 1_555
O6 Eu1A_5 1_555 1_555
C16 C18 1_555 1_555
P1A O7A 1_555 1_555
O4A C13A 1_555 1_555
C4A C6A 1_555 1_555
C9A C10A 1_555 1_555
C12A C15A 1_555 1_555
C14A C21A 1_555 1_555
O6A C20A 1_555 1_555
C16A C18A 1_555 1_555

#END
