
#######################################################################
#
#                 Cambridge Crystallographic Data Centre
#                                CCDC 
#
#######################################################################
#
# If this CIF has been generated from an entry in the Cambridge 
# Structural Database, then it will include bibliographic, chemical, 
# crystal, experimental, refinement or atomic coordinate data resulting 
# from the CCDC's data processing and validation procedures.
#
#######################################################################

data_UKUBOS
_symmetry_cell_setting           tetragonal
_symmetry_space_group_name_H-M   'P 42/n'
_symmetry_Int_Tables_number      86
_space_group_name_Hall           '-P 4bc'
loop_
_symmetry_equiv_pos_site_id
_symmetry_equiv_pos_as_xyz
1 x,y,z
2 1/2-x,1/2-y,z
3 -y,1/2+x,1/2+z
4 1/2+y,-x,1/2+z
5 -x,-y,-z
6 1/2+x,1/2+y,-z
7 y,1/2-x,1/2-z
8 1/2-y,x,1/2-z
_cell_length_a                   12.1750(7)
_cell_length_b                   12.1750(7)
_cell_length_c                   24.924(3)
_cell_angle_alpha                90
_cell_angle_beta                 90
_cell_angle_gamma                90
_cell_volume                     3694.5
loop_
_atom_site_label
_atom_site_type_symbol
_atom_site_fract_x
_atom_site_fract_y
_atom_site_fract_z
C1 C 1.0623(3) 0.1400(3) 0.15020(17)
H1 H 1.0771 0.0809 0.1277
C2 C 0.9808(3) 0.1271(3) 0.18804(14)
H2 H 0.9425 0.0613 0.1910
C3 C 0.9576(3) 0.2138(3) 0.22110(15)
C4 C 1.0183(3) 0.3086(3) 0.21622(16)
H3 H 1.0062 0.3686 0.2386
C5 C 1.0976(3) 0.3110(3) 0.17694(15)
H4 H 1.1387 0.3751 0.1736
C6 C 0.8461(3) 0.2882(3) 0.29154(14)
H5 H 0.8257 0.3525 0.2708
H6 H 0.9080 0.3071 0.3142
C7 C 0.7500 0.2500 0.32551(19)
C8 C 0.7091(3) 0.3448(3) 0.36062(15)
H7 H 0.6742 0.4004 0.3386
H8 H 0.6557 0.3181 0.3864
C9 C 0.7854(3) 0.4634(3) 0.42749(15)
C10 C 0.8746(3) 0.5143(3) 0.44882(16)
H9 H 0.9445 0.4994 0.4357
C11 C 0.6849(3) 0.4952(3) 0.44533(16)
H10 H 0.6212 0.4646 0.4312
C12 C 0.8602(3) 0.5881(3) 0.49009(17)
H11 H 0.9230 0.6189 0.5051
C13 C 0.6800(3) 0.5757(3) 0.48574(16)
H12 H 0.6111 0.6007 0.4963
Mn1 Mn 1.2500 0.2500 0.07616(3)
N1 N 1.1203(3) 0.2295(3) 0.14357(13)
N2 N 0.7671(2) 0.6181(3) 0.50964(14)
O1 O 0.8746(2) 0.1993(2) 0.25646(10)
O2 O 0.80226(18) 0.39067(19) 0.38800(10)
S1 S 1.22321(8) 0.45373(7) 0.07666(4)
H19 H 1.2408 0.4820 0.1116
C1A C 0.4377(3) 0.3600(3) 0.15020(17)
H1A H 0.4229 0.4191 0.1277
C2A C 0.5192(3) 0.3729(3) 0.18804(14)
H2A H 0.5575 0.4387 0.1910
C3A C 0.5424(3) 0.2862(3) 0.22110(15)
C4A C 0.4817(3) 0.1914(3) 0.21622(16)
H3A H 0.4938 0.1314 0.2386
C5A C 0.4024(3) 0.1890(3) 0.17694(15)
H4A H 0.3613 0.1249 0.1736
C6A C 0.6539(3) 0.2118(3) 0.29154(14)
H5A H 0.6743 0.1475 0.2708
H6A H 0.5920 0.1929 0.3142
C8A C 0.7909(3) 0.1552(3) 0.36062(15)
H7A H 0.8258 0.0996 0.3386
H8A H 0.8443 0.1819 0.3864
C9A C 0.7146(3) 0.0366(3) 0.42749(15)
C10A C 0.6254(3) -0.0143(3) 0.44882(16)
H9A H 0.5555 0.0006 0.4357
C11A C 0.8151(3) 0.0048(3) 0.44533(16)
H10A H 0.8788 0.0354 0.4312
C12A C 0.6398(3) -0.0881(3) 0.49009(17)
H11A H 0.5770 -0.1189 0.5051
C13A C 0.8200(3) -0.0757(3) 0.48574(16)
H12A H 0.8889 -0.1007 0.4963
Mn1B Mn 0.7500 0.7500 0.57616(3)
Mn1_2 Mn 0.2500 0.2500 0.07616(3)
Mn1B_2 Mn 0.7500 -0.2500 0.57616(3)
N1A N 0.3797(3) 0.2705(3) 0.14357(13)
N1A_2 N 1.3797(3) 0.2705(3) 0.14357(13)
N2A N 0.7329(2) -0.1181(3) 0.50964(14)
N2B N 1.3819(3) 0.2671(2) 0.00964(14)
N2C N 1.1181(3) 0.2329(2) 0.00964(14)
O1A O 0.6254(2) 0.3007(2) 0.25646(10)
O2A O 0.69774(18) 0.10933(19) 0.38800(10)
S1A S 1.27679(8) 0.04627(7) 0.07666(4)
H19A H 1.2592 0.0180 0.1116
O3 O 0.7079(7) 0.8688(7) 0.1878(4)
H13 H 0.7388 0.9143 0.1668
H14 H 0.7145 0.8909 0.2200
O4 O 0.1530(7) 0.5503(7) 0.8823(4)
H15 H 0.1175 0.6054 0.8941
H16 H 0.1106 0.4950 0.8806
O5? O 0.2381(5) 0.6941(5) 0.9304(2)
H17? H 0.3076 0.6892 0.9277
H18? H 0.2169 0.7553 0.9177
loop_
_geom_bond_atom_site_label_1
_geom_bond_atom_site_label_2
_geom_bond_site_symmetry_1
_geom_bond_site_symmetry_2
C1 H1 1_555 1_555
C2 C1 1_555 1_555
H2 C2 1_555 1_555
C3 C2 1_555 1_555
C4 C3 1_555 1_555
H3 C4 1_555 1_555
C5 C4 1_555 1_555
H4 C5 1_555 1_555
C6 H5 1_555 1_555
H6 C6 1_555 1_555
C7 C6 1_555 1_555
C8 C7 1_555 1_555
H7 C8 1_555 1_555
H8 C8 1_555 1_555
C9 C10 1_555 1_555
C10 H9 1_555 1_555
C11 C9 1_555 1_555
H10 C11 1_555 1_555
C12 C10 1_555 1_555
H11 C12 1_555 1_555
C13 C11 1_555 1_555
H12 C13 1_555 1_555
Mn1 N1 1_555 1_555
N1 C1 1_555 1_555
N2 C12 1_555 1_555
O1 C3 1_555 1_555
O2 C8 1_555 1_555
O3 H13 1_555 1_555
H14 O3 1_555 1_555
O4 H15 1_555 1_555
H16 O4 1_555 1_555
S1 Mn1 1_555 1_555
H19 S1 1_555 1_555
C1A H1A 1_555 1_555
C2A C1A 1_555 1_555
H2A C2A 1_555 1_555
C3A C2A 1_555 1_555
C4A C3A 1_555 1_555
H3A C4A 1_555 1_555
C5A C4A 1_555 1_555
H4A C5A 1_555 1_555
C6A C7 1_555 1_555
H5A C6A 1_555 1_555
H6A C6A 1_555 1_555
C8A C7 1_555 1_555
H7A C8A 1_555 1_555
H8A C8A 1_555 1_555
C9A C10A 1_555 1_555
C10A H9A 1_555 1_555
C11A C9A 1_555 1_555
H10A C11A 1_555 1_555
C12A C10A 1_555 1_555
H11A C12A 1_555 1_555
C13A C11A 1_555 1_555
H12A C13A 1_555 1_555
Mn1B N2 1_555 1_555
Mn1_2 N1A 1_555 1_555
Mn1B_2 N2A 1_555 1_555
N1A C1A 1_555 1_555
N1A_2 Mn1 1_555 1_555
N2A C12A 1_555 1_555
N2B Mn1 1_555 1_555
N2C Mn1 1_555 1_555
O1A C3A 1_555 1_555
O2A C8A 1_555 1_555
S1A Mn1 1_555 1_555
H19A S1A 1_555 1_555
C5 N1 1_555 1_555
C6 O1 1_555 1_555
C9 O2 1_555 1_555
C13 N2 1_555 1_555
C5A N1A 1_555 1_555
C6A O1A 1_555 1_555
C9A O2A 1_555 1_555
C13A N2A 1_555 1_555

#END
