
#######################################################################
#
#                 Cambridge Crystallographic Data Centre
#                                CCDC 
#
#######################################################################
#
# If this CIF has been generated from an entry in the Cambridge 
# Structural Database, then it will include bibliographic, chemical, 
# crystal, experimental, refinement or atomic coordinate data resulting 
# from the CCDC's data processing and validation procedures.
#
#######################################################################

data_UMEXUF
_symmetry_cell_setting           monoclinic
_symmetry_space_group_name_H-M   'P 21/n'
_symmetry_Int_Tables_number      14
_space_group_name_Hall           '-P 2yn'
loop_
_symmetry_equiv_pos_site_id
_symmetry_equiv_pos_as_xyz
1 x,y,z
2 1/2-x,1/2+y,1/2-z
3 -x,-y,-z
4 1/2+x,1/2-y,1/2+z
_cell_length_a                   7.4087(3)
_cell_length_b                   16.4236(6)
_cell_length_c                   14.5347(5)
_cell_angle_alpha                90
_cell_angle_beta                 94.9930(10)
_cell_angle_gamma                90
_cell_volume                     1761.84
loop_
_atom_site_label
_atom_site_type_symbol
_atom_site_fract_x
_atom_site_fract_y
_atom_site_fract_z
Zn1 Zn 0.5000 0.5000 0.5000
Zn2 Zn -0.22160(10) 0.51808(5) 0.31913(5)
Zn3 Zn -0.19130(10) 0.62723(5) 0.52090(5)
O1 O 0.0300(7) 0.6590(3) 0.4574(3)
O2 O -0.0174(7) 0.6053(3) 0.3167(3)
O3 O 0.6222(6) 0.6862(3) 0.4397(4)
O4 O 0.3962(6) 0.5959(3) 0.4191(3)
O5 O 0.4763(6) 0.9130(3) 0.1284(3)
O6 O 0.5728(6) 0.9504(3) 0.2671(3)
O7 O -0.0783(7) 0.9295(4) 0.2169(4)
O8 O 0.0986(6) 0.9157(3) 0.1027(3)
O9 O 0.2460(6) 0.4826(3) 0.5465(3)
O10 O -0.1580(10) 0.7587(5) 0.5717(5)
O11 O -0.3799(8) 0.5930(3) 0.2356(4)
C1 C 0.1693(8) 0.7197(4) 0.3356(4)
C2 C 0.3569(9) 0.7253(4) 0.3524(4)
C3 C 0.4465(8) 0.7895(4) 0.3128(4)
C4 C 0.3561(8) 0.8455(4) 0.2552(4)
C5 C 0.1673(8) 0.8403(4) 0.2401(4)
C6 C 0.0770(8) 0.7784(4) 0.2805(4)
C7 C 0.0541(8) 0.6543(4) 0.3741(5)
C8 C 0.4656(9) 0.6637(4) 0.4080(4)
C9 C 0.4719(8) 0.9079(4) 0.2137(4)
C10 C 0.0544(9) 0.9007(4) 0.1810(4)
H1 H 0.1638 0.5240 0.5180
H2 H -0.2193 0.7975 0.5446
H3 H -0.0719 0.7789 0.6069
H4 H -0.3648 0.6422 0.2191
H5 H -0.3587 0.5613 0.1918
H6 H 0.5712 0.7946 0.3258
H7 H -0.0486 0.7756 0.2708
O1B O 0.9700(7) 0.3410(3) 0.5426(3)
O2B O 1.0174(7) 0.3947(3) 0.6833(3)
O3B O 0.3778(6) 0.3138(3) 0.5603(4)
O4B O 0.6038(6) 0.4041(3) 0.5809(3)
O5B O 0.5237(6) 0.0870(3) 0.8716(3)
O6B O 0.4272(6) 0.0496(3) 0.7329(3)
O7B O 1.0783(7) 0.0705(4) 0.7831(4)
O8B O 0.9014(6) 0.0843(3) 0.8973(3)
C1B C 0.8307(8) 0.2803(4) 0.6644(4)
C2B C 0.6431(9) 0.2747(4) 0.6476(4)
C3B C 0.5535(8) 0.2105(4) 0.6872(4)
C4B C 0.6439(8) 0.1545(4) 0.7448(4)
C5B C 0.8327(8) 0.1597(4) 0.7599(4)
C6B C 0.9230(8) 0.2216(4) 0.7195(4)
C7B C 0.9459(8) 0.3457(4) 0.6259(5)
C8B C 0.5344(9) 0.3363(4) 0.5920(4)
C9B C 0.5281(8) 0.0921(4) 0.7863(4)
C10B C 0.9456(9) 0.0993(4) 0.8190(4)
H6B H 0.4288 0.2054 0.6742
H7B H 1.0486 0.2244 0.7292
O9B O 0.7540(6) 0.5174(3) 0.4535(3)
H1B H 0.8362 0.4760 0.4820
Zn2B Zn 1.22160(10) 0.48192(5) 0.68087(5)
Zn3B Zn 1.19130(10) 0.37277(5) 0.47910(5)
O11B O 1.3799(8) 0.4070(3) 0.7644(4)
H4B H 1.3648 0.3578 0.7809
H5B H 1.3587 0.4387 0.8082
O10B O 1.1580(10) 0.2413(5) 0.4283(5)
H2B H 1.2193 0.2025 0.4554
H3B H 1.0719 0.2211 0.3931
O8C O 0.5986(6) 0.5843(3) 0.6027(3)
O8A O 0.4014(6) 0.4157(3) 0.3973(3)
O5A O 0.0237(6) 0.4130(3) 0.3716(3)
O6A O -0.0728(6) 0.4504(3) 0.2329(3)
O7A O -0.4217(7) 0.4295(4) 0.2831(4)
O9B_2 O -0.2460(6) 0.5174(3) 0.4535(3)
O3_2 O -0.3778(6) 0.6862(3) 0.4397(4)
O5C O -0.0237(6) 0.5870(3) 0.6284(3)
O8C_2 O -0.4014(6) 0.5843(3) 0.6027(3)
Zn3_2 Zn 0.80870(10) 0.62723(5) 0.52090(5)
Zn2A Zn 0.72160(10) 1.01808(5) 0.18087(5)
Zn3C Zn 0.30870(10) 0.87277(5) 0.02090(5)
Zn2A_2 Zn -0.27840(10) 1.01808(5) 0.18087(5)
Zn1C Zn 0.0000 1.0000 0.0000
Zn2B_2 Zn 0.22160(10) 0.48192(5) 0.68087(5)
Zn3B_2 Zn 0.19130(10) 0.37277(5) 0.47910(5)
Zn2C Zn 0.27840(10) -0.01808(5) 0.81913(5)
Zn3A Zn 0.69130(10) 0.12723(5) 0.97910(5)
Zn2C_2 Zn 1.27840(10) -0.01808(5) 0.81913(5)
Zn1C_2 Zn 1.0000 0.0000 1.0000
Zn2_2 Zn 0.77840(10) 0.51808(5) 0.31913(5)
O5C_2 O 0.9763(6) 0.5870(3) 0.6284(3)
O6C O 1.0728(6) 0.5496(3) 0.7671(3)
O7C O 1.4217(7) 0.5705(4) 0.7169(4)
O9_2 O 1.2460(6) 0.4826(3) 0.5465(3)
O3B_2 O 1.3778(6) 0.3138(3) 0.5603(4)
O5A_2 O 1.0237(6) 0.4130(3) 0.3716(3)
O8A_2 O 1.4014(6) 0.4157(3) 0.3973(3)
H1B_2 H -0.1638 0.4760 0.4820
H1_2 H 1.1638 0.5240 0.5180
O12 O 0.7530(10) 0.9253(5) 0.6824(5)
H8 H 0.6984 0.9477 0.7250
H9 H 0.7742 0.9611 0.6421
O13 O 0.142(2) 0.0994(7) 0.5710(7)
H10 H 0.2347 0.0756 0.5528
H11 H 0.0574 0.0636 0.5744
O14 O 0.219(2) 0.7697(8) 0.6310(10)
H12 H 0.2518 0.7269 0.6015
H13 H 0.2106 0.8089 0.5898
O15 O 0.775(2) 0.0433(9) 0.5430(10)
H14 H 0.6645 0.0254 0.5282
H15 H 0.7988 0.0748 0.4971
O16 O 0.491(2) 0.8410(10) 0.5490(10)
H16 H 0.5163 0.8767 0.5065
H17 H 0.5243 0.8649 0.6015
loop_
_geom_bond_atom_site_label_1
_geom_bond_atom_site_label_2
_geom_bond_site_symmetry_1
_geom_bond_site_symmetry_2
Zn1 O4 1_555 1_555
Zn2 O2 1_555 1_555
Zn3 O1 1_555 1_555
O1 C7 1_555 1_555
O2 C7 1_555 1_555
O3 C8 1_555 1_555
O4 C8 1_555 1_555
O5 C9 1_555 1_555
O6 C9 1_555 1_555
O7 C10 1_555 1_555
O8 C10 1_555 1_555
O9 Zn1 1_555 1_555
O10 Zn3 1_555 1_555
O11 Zn2 1_555 1_555
C1 C2 1_555 1_555
C2 C3 1_555 1_555
C3 C4 1_555 1_555
C4 C5 1_555 1_555
C5 C6 1_555 1_555
C6 C1 1_555 1_555
C7 C1 1_555 1_555
C8 C2 1_555 1_555
C9 C4 1_555 1_555
C10 C5 1_555 1_555
H1 O9 1_555 1_555
H2 O10 1_555 1_555
H3 O10 1_555 1_555
H4 O11 1_555 1_555
H5 O11 1_555 1_555
H6 C3 1_555 1_555
H7 C6 1_555 1_555
O12 H8 1_555 1_555
H9 O12 1_555 1_555
O13 H10 1_555 1_555
H11 O13 1_555 1_555
O14 H12 1_555 1_555
H13 O14 1_555 1_555
O15 H14 1_555 1_555
H15 O15 1_555 1_555
O16 H16 1_555 1_555
H17 O16 1_555 1_555
O1B C7B 1_555 1_555
O2B C7B 1_555 1_555
O3B C8B 1_555 1_555
O4B Zn1 1_555 1_555
O5B C9B 1_555 1_555
O6B C9B 1_555 1_555
O7B C10B 1_555 1_555
O8B C10B 1_555 1_555
C1B C2B 1_555 1_555
C2B C3B 1_555 1_555
C3B C4B 1_555 1_555
C4B C5B 1_555 1_555
C5B C6B 1_555 1_555
C6B C1B 1_555 1_555
C7B C1B 1_555 1_555
C8B O4B 1_555 1_555
C9B C4B 1_555 1_555
C10B C5B 1_555 1_555
H6B C3B 1_555 1_555
H7B C6B 1_555 1_555
O9B Zn1 1_555 1_555
H1B O9B 1_555 1_555
Zn2B O2B 1_555 1_555
Zn3B O1B 1_555 1_555
O11B Zn2B 1_555 1_555
H4B O11B 1_555 1_555
H5B O11B 1_555 1_555
O10B Zn3B 1_555 1_555
H2B O10B 1_555 1_555
H3B O10B 1_555 1_555
O8C Zn1 1_555 1_555
O8A Zn1 1_555 1_555
O5A Zn2 1_555 1_555
O6A Zn2 1_555 1_555
O7A Zn2 1_555 1_555
O9B_2 Zn2 1_555 1_555
O3_2 Zn3 1_555 1_555
O5C Zn3 1_555 1_555
O8C_2 Zn3 1_555 1_555
Zn3_2 O3 1_555 1_555
Zn2A O5 1_555 1_555
Zn3C O5 1_555 1_555
Zn2A_2 O7 1_555 1_555
Zn1C O8 1_555 1_555
Zn2B_2 O9 1_555 1_555
Zn3B_2 O9 1_555 1_555
Zn2C O5B 1_555 1_555
Zn3A O5B 1_555 1_555
Zn2C_2 O7B 1_555 1_555
Zn1C_2 O8B 1_555 1_555
Zn2_2 O9B 1_555 1_555
O5C_2 Zn2B 1_555 1_555
O6C Zn2B 1_555 1_555
O7C Zn2B 1_555 1_555
O9_2 Zn2B 1_555 1_555
O3B_2 Zn3B 1_555 1_555
O5A_2 Zn3B 1_555 1_555
O8A_2 Zn3B 1_555 1_555
H1B_2 O9B_2 1_555 1_555
H1_2 O9_2 1_555 1_555
Zn3 O9B_2 1_555 1_555
O6 Zn2A 1_555 1_555
O8 Zn3C 1_555 1_555
O3B Zn3B_2 1_555 1_555
O6B Zn2C 1_555 1_555
O8B Zn3A 1_555 1_555
C2B C8B 1_555 1_555
O9B Zn3_2 1_555 1_555
Zn3B O9_2 1_555 1_555
O8C Zn3_2 1_555 1_555
O8A Zn3B_2 1_555 1_555
O5A Zn3B_2 1_555 1_555
O5C Zn2B_2 1_555 1_555
Zn3_2 O5C_2 1_555 1_555
Zn2_2 O5A_2 1_555 1_555

#END
