
#######################################################################
#
#                 Cambridge Crystallographic Data Centre
#                                CCDC 
#
#######################################################################
#
# If this CIF has been generated from an entry in the Cambridge 
# Structural Database, then it will include bibliographic, chemical, 
# crystal, experimental, refinement or atomic coordinate data resulting 
# from the CCDC's data processing and validation procedures.
#
#######################################################################

data_UNABUH
_symmetry_cell_setting           monoclinic
_symmetry_space_group_name_H-M   'P 21/c'
_symmetry_Int_Tables_number      14
_space_group_name_Hall           '-P 2ybc'
loop_
_symmetry_equiv_pos_site_id
_symmetry_equiv_pos_as_xyz
1 x,y,z
2 -x,1/2+y,1/2-z
3 -x,-y,-z
4 x,1/2-y,1/2+z
_cell_length_a                   8.405(5)
_cell_length_b                   10.293(4)
_cell_length_c                   17.812(8)
_cell_angle_alpha                90
_cell_angle_beta                 104.582(19)
_cell_angle_gamma                90
_cell_volume                     1491.33
loop_
_atom_site_label
_atom_site_type_symbol
_atom_site_fract_x
_atom_site_fract_y
_atom_site_fract_z
Cu1 Cu 0.60564(4) 0.55755(3) 0.931976(19)
O1 O 0.1244(4) 0.4591(3) 0.43674(13)
O2 O 0.5309(3) 0.5375(2) 0.82375(12)
O3 O 0.6936(3) 0.7026(3) 0.81292(13)
O4 O 0.6220(3) 0.8908(3) 0.54178(12)
O5 O 0.4729(3) 0.7847(2) 0.44385(12)
N1 N 0.2349(3) 0.3984(3) 0.56182(14)
N2 N -0.2157(3) 0.0722(3) 0.45068(15)
C1 C 0.3437(4) 0.5029(3) 0.58786(16)
C2 C 0.4129(4) 0.5119(3) 0.66700(16)
C3 C 0.5208(4) 0.6120(3) 0.69788(16)
C4 C 0.5612(4) 0.7048(3) 0.64908(16)
C5 C 0.4923(4) 0.6949(3) 0.56946(16)
C6 C 0.3846(4) 0.5950(3) 0.53778(16)
C7 C 0.1315(4) 0.3848(3) 0.49097(17)
C8 C -0.1424(4) 0.1073(3) 0.52380(17)
C9 C -0.0258(4) 0.2051(3) 0.54055(17)
C10 C 0.0171(4) 0.2690(3) 0.48026(17)
C11 C -0.0571(4) 0.2313(4) 0.40468(18)
C12 C -0.1727(4) 0.1334(4) 0.39206(18)
C13 C 0.5896(4) 0.6208(3) 0.78422(16)
C14 C 0.5310(4) 0.7931(3) 0.51648(16)
H1 H 0.2346 0.3371 0.5946
H2 H 0.3867 0.4500 0.7000
H3 H 0.6329 0.7723 0.6692
H4 H 0.3407 0.5895 0.4845
H5 H -0.1708 0.0645 0.5645
H6 H 0.0230 0.2276 0.5917
H7 H -0.0292 0.2716 0.3631
H8 H -0.2226 0.1089 0.3413
Cu1C Cu 0.60564(4) 0.94245(3) 0.431976(19)
Cu1C_2 Cu -0.39436(4) -0.05755(3) 0.431976(19)
O4C O 0.6220(3) 0.6092(3) 1.04178(12)
O5C O 0.4729(3) 0.7153(2) 0.94385(12)
N2C N 0.7843(3) 0.4278(3) 0.95068(15)
O6 O 0.1037(19) 0.9075(14) 0.7897(8)
O7 O 0.1568(13) 0.6501(14) 0.7940(6)
O8? O -0.003(3) 0.9470(14) 0.7854(9)
O9? O 0.153(3) 0.5646(19) 0.7937(10)
O10? O 0.228(3) 0.7824(19) 0.7932(11)
loop_
_geom_bond_atom_site_label_1
_geom_bond_atom_site_label_2
_geom_bond_site_symmetry_1
_geom_bond_site_symmetry_2
Cu1 O2 1_555 1_555
O1 C7 1_555 1_555
O2 C13 1_555 1_555
O3 C13 1_555 1_555
O4 C14 1_555 1_555
O5 C14 1_555 1_555
N1 C1 1_555 1_555
N2 C8 1_555 1_555
C1 C2 1_555 1_555
C2 C3 1_555 1_555
C3 C4 1_555 1_555
C4 C5 1_555 1_555
C5 C6 1_555 1_555
C6 C1 1_555 1_555
C7 N1 1_555 1_555
C8 C9 1_555 1_555
C9 C10 1_555 1_555
C10 C7 1_555 1_555
C11 C10 1_555 1_555
C12 N2 1_555 1_555
C13 C3 1_555 1_555
C14 C5 1_555 1_555
H1 N1 1_555 1_555
H2 C2 1_555 1_555
H3 C4 1_555 1_555
H4 C6 1_555 1_555
H5 C8 1_555 1_555
H6 C9 1_555 1_555
H7 C11 1_555 1_555
H8 C12 1_555 1_555
Cu1C O4 1_555 1_555
Cu1C_2 N2 1_555 1_555
O4C Cu1 1_555 1_555
O5C Cu1 1_555 1_555
N2C Cu1 1_555 1_555
O5 Cu1C 1_555 1_555
C11 C12 1_555 1_555

#END
