
#######################################################################
#
#                 Cambridge Crystallographic Data Centre
#                                CCDC 
#
#######################################################################
#
# If this CIF has been generated from an entry in the Cambridge 
# Structural Database, then it will include bibliographic, chemical, 
# crystal, experimental, refinement or atomic coordinate data resulting 
# from the CCDC's data processing and validation procedures.
#
#######################################################################

data_UPOVOL
_symmetry_cell_setting           triclinic
_symmetry_space_group_name_H-M   'P -1'
_symmetry_Int_Tables_number      2
_space_group_name_Hall           '-P 1'
loop_
_symmetry_equiv_pos_site_id
_symmetry_equiv_pos_as_xyz
1 x,y,z
2 -x,-y,-z
_cell_length_a                   7.8529(19)
_cell_length_b                   12.186(3)
_cell_length_c                   13.2217(18)
_cell_angle_alpha                112.156(14)
_cell_angle_beta                 105.457(15)
_cell_angle_gamma                91.541(18)
_cell_volume                     1117.88
loop_
_atom_site_label
_atom_site_type_symbol
_atom_site_fract_x
_atom_site_fract_y
_atom_site_fract_z
Er1 Er 0.25030(3) -0.981447(18) -1.010739(16)
C1 C -0.3396(8) -1.3987(5) -1.5587(5)
C2 C -0.3662(9) -1.2052(5) -1.5725(5)
C3 C -0.5370(8) -1.3871(6) -1.7300(5)
C4 C -0.1461(8) -1.2170(6) -1.4096(5)
H1 H -0.0768 -1.1537 -1.4153
H2 H -0.0680 -1.2750 -1.4000
C5 C -0.2081(8) -1.1648(6) -1.3059(5)
H3 H -0.2619 -1.2287 -1.2925
H4 H -0.2977 -1.1142 -1.3182
C6 C -0.0535(7) -1.0924(5) -1.2031(4)
C7 C -0.5778(8) -1.1909(6) -1.7370(5)
H5 H -0.5939 -1.1155 -1.6819
H6 H -0.6948 -1.2322 -1.7880
C8 C -0.4670(8) -1.1666(6) -1.8049(6)
H7 H -0.4481 -1.2421 -1.8584
H8 H -0.3512 -1.1234 -1.7535
C9 C -0.5540(7) -1.0947(5) -1.8701(4)
C10 C -0.5047(8) -1.5819(5) -1.7202(5)
H9 H -0.6199 -1.6051 -1.7784
H10 H -0.5113 -1.6125 -1.6633
C11 C -0.3629(9) -1.6350(5) -1.7741(6)
H11 H -0.3464 -1.5959 -1.8232
H12 H -0.2509 -1.6185 -1.7141
C12 C -0.4061(7) -1.7684(5) -1.8436(4)
N1 N -0.4631(6) -1.4503(4) -1.6659(4)
N2 N -0.2918(7) -1.2758(4) -1.5168(4)
N4 N -0.4939(7) -1.2641(4) -1.6759(4)
O1 O 0.0763(5) -1.0425(4) -1.2143(3)
O2 O -0.0554(5) -1.0864(3) -1.1040(3)
O3 O -0.5577(5) -1.8190(3) -1.8607(3)
O4 O -0.2824(5) -1.8186(3) -1.8804(3)
O5 O -0.4645(5) -1.0500(3) -1.9148(3)
O6 O -0.7141(5) -1.0809(4) -1.8811(4)
O7 O -0.6375(7) -1.4364(5) -1.8265(4)
O8 O -0.2752(7) -1.4572(4) -1.5057(4)
O9 O -0.3228(8) -1.0978(4) -1.5310(4)
O11 O 0.1507(6) -0.8116(4) -1.0407(4)
H20 H 0.1816 -0.7427 -0.9862
H21 H 0.0839 -0.8194 -1.1060
Er1A Er -0.25030(3) -1.018553(18) -0.989261(16)
Er1_2 Er -0.74970(3) -1.981447(18) -2.010739(16)
Er1A_2 Er -0.25030(3) -2.018553(18) -1.989261(16)
Er1_3 Er -0.74970(3) -0.981447(18) -2.010739(16)
Er1A_3 Er -0.25030(3) -1.018553(18) -1.989261(16)
O2A O 0.0554(5) -0.9136(3) -0.8960(3)
O3_2 O 0.4423(5) -0.8190(3) -0.8607(3)
O4A O 0.2824(5) -1.1814(3) -1.1196(3)
O5_2 O 0.5355(5) -1.0500(3) -0.9148(3)
O5A O 0.4645(5) -0.9500(3) -1.0852(3)
O6_2 O 0.2859(5) -1.0809(4) -0.8811(4)
C13 C 0.2644(13) -1.1817(12) -1.4697(9)
H13 H 0.2805 -1.0980 -1.4545
H14 H 0.3759 -1.2120 -1.4701
H15 H 0.2238 -1.1926 -1.4113
C14 C 0.0829(17) -1.3730(9) -1.6252(11)
H16 H -0.0043 -1.4005 -1.6992
H17 H 0.0336 -1.3923 -1.5738
H18 H 0.1869 -1.4115 -1.6315
C15 C 0.0555(13) -1.1843(10) -1.6427(10)
H19 H 0.0810 -1.1012 -1.6111
N3 N 0.1309(10) -1.2468(7) -1.5822(7)
O10 O -0.0526(12) -1.2395(8) -1.7450(8)
O12 O -0.192(2) -0.4744(11) -0.9247(9)
H22 H -0.1632 -0.4772 -0.8591
H23 H -0.2413 -0.4161 -0.9340
O13 O 0.0034(10) -0.6607(6) -0.8884(7)
H24 H -0.0404 -0.6545 -0.9518
H25 H -0.0113 -0.6098 -0.8275
loop_
_geom_bond_atom_site_label_1
_geom_bond_atom_site_label_2
_geom_bond_site_symmetry_1
_geom_bond_site_symmetry_2
Er1 O1 1_555 1_555
C1 N1 1_555 1_555
C2 N2 1_555 1_555
C3 N1 1_555 1_555
C4 H1 1_555 1_555
H2 C4 1_555 1_555
C5 C4 1_555 1_555
H3 C5 1_555 1_555
H4 C5 1_555 1_555
C6 C5 1_555 1_555
C7 H5 1_555 1_555
H6 C7 1_555 1_555
C8 C7 1_555 1_555
H7 C8 1_555 1_555
H8 C8 1_555 1_555
C9 C8 1_555 1_555
C10 H9 1_555 1_555
H10 C10 1_555 1_555
C11 C10 1_555 1_555
H11 C11 1_555 1_555
H12 C11 1_555 1_555
C12 C11 1_555 1_555
C13 H13 1_555 1_555
H14 C13 1_555 1_555
H15 C13 1_555 1_555
C14 H16 1_555 1_555
H17 C14 1_555 1_555
H18 C14 1_555 1_555
C15 H19 1_555 1_555
N1 C10 1_555 1_555
N2 C1 1_555 1_555
N3 C13 1_555 1_555
N4 C2 1_555 1_555
O1 C6 1_555 1_555
O2 Er1 1_555 1_555
O3 C12 1_555 1_555
O4 C12 1_555 1_555
O5 C9 1_555 1_555
O6 C9 1_555 1_555
O7 C3 1_555 1_555
O8 C1 1_555 1_555
O9 C2 1_555 1_555
O10 C15 1_555 1_555
O11 Er1 1_555 1_555
H20 O11 1_555 1_555
H21 O11 1_555 1_555
O12 H22 1_555 1_555
H23 O12 1_555 1_555
O13 H24 1_555 1_555
H25 O13 1_555 1_555
Er1A O2 1_555 1_555
Er1_2 O3 1_555 1_555
Er1A_2 O4 1_555 1_555
Er1_3 O5 1_555 1_555
Er1A_3 O5 1_555 1_555
O2A Er1 1_555 1_555
O3_2 Er1 1_555 1_555
O4A Er1 1_555 1_555
O5_2 Er1 1_555 1_555
O5A Er1 1_555 1_555
O6_2 Er1 1_555 1_555
C3 N4 1_555 1_555
C4 N2 1_555 1_555
C6 O2 1_555 1_555
C7 N4 1_555 1_555
C14 N3 1_555 1_555
C15 N3 1_555 1_555
O6 Er1_3 1_555 1_555
Er1A O2A 1_555 1_555

#END
