
#######################################################################
#
#                 Cambridge Crystallographic Data Centre
#                                CCDC 
#
#######################################################################
#
# If this CIF has been generated from an entry in the Cambridge 
# Structural Database, then it will include bibliographic, chemical, 
# crystal, experimental, refinement or atomic coordinate data resulting 
# from the CCDC's data processing and validation procedures.
#
#######################################################################

data_UTEWUM
_symmetry_cell_setting           cubic
_symmetry_space_group_name_H-M   'P m -3 m'
_symmetry_Int_Tables_number      221
_space_group_name_Hall           '-P 4 2 3'
loop_
_symmetry_equiv_pos_site_id
_symmetry_equiv_pos_as_xyz
1 x,y,z
2 -y,x,z
3 x,-y,-z
4 z,x,y
5 -x,-y,z
6 y,x,-z
7 -x,z,y
8 y,-x,z
9 -x,y,-z
10 -z,-x,y
11 -y,-x,-z
12 x,-z,y
13 z,-x,-y
14 -x,-z,-y
15 -z,x,-y
16 x,z,-y
17 y,z,x
18 z,-y,x
19 -z,y,x
20 z,y,-x
21 y,-z,-x
22 -z,-y,-x
23 -y,z,-x
24 -y,-z,x
25 -x,-y,-z
26 y,-x,-z
27 -x,y,z
28 -z,-x,-y
29 x,y,-z
30 -y,-x,z
31 x,-z,-y
32 -y,x,-z
33 x,-y,z
34 z,x,-y
35 y,x,z
36 -x,z,-y
37 -z,x,y
38 x,z,y
39 z,-x,y
40 -x,-z,y
41 -y,-z,-x
42 -z,y,-x
43 z,-y,-x
44 -z,-y,x
45 -y,z,x
46 z,y,x
47 y,-z,x
48 y,z,-x
_cell_length_a                   18.80701(76)
_cell_length_b                   18.80701(76)
_cell_length_c                   18.80701(76)
_cell_angle_alpha                90
_cell_angle_beta                 90
_cell_angle_gamma                90
_cell_volume                     6652.11
loop_
_atom_site_label
_atom_site_type_symbol
_atom_site_fract_x
_atom_site_fract_y
_atom_site_fract_z
Cu1 Cu 0.00000 0.38671(25) 0.50000
C1 C 0.223330 0.312540 0.312540
C2 C 0.249460 0.248810 0.339330
H1 H 0.231600 0.230500 0.382890
C3 C 0.168810 0.351090 0.351090
C4 C 0.138760 0.330980 0.413710
H2 H 0.149790 0.289200 0.439880
N1 N 0.090130 0.381170 0.432300
Cu1F Cu 0.00000 0.50000 0.38671(25)
Cu1C Cu 0.50000 0.00000 0.38671(25)
Cu1E Cu 0.38671(25) 0.00000 0.50000
Cu1P Cu 0.38671(25) 0.50000 0.00000
Cu1R Cu 0.50000 0.38671(25) 0.00000
Cu1M Cu 0.00000 0.50000 0.61329(25)
Cu1L Cu -0.50000 0.00000 0.61329(25)
Cu1A Cu -0.38671(25) 0.00000 0.50000
Cu1V Cu -0.38671(25) 0.50000 1.00000
Cu1R_2 Cu -0.50000 0.38671(25) 1.00000
Cu1C_2 Cu -0.50000 0.00000 0.38671(25)
Cu1V_2 Cu -0.38671(25) 0.50000 0.00000
Cu1R_3 Cu -0.50000 0.38671(25) 0.00000
Cu1L_2 Cu 0.50000 0.00000 0.61329(25)
Cu1P_2 Cu 0.38671(25) 0.50000 1.00000
Cu1R_4 Cu 0.50000 0.38671(25) 1.00000
C1C C 0.312540 0.223330 0.312540
C1P C 0.312540 0.312540 0.223330
C1H C -0.223330 0.312540 0.687460
C1N C -0.312540 0.223330 0.687460
C1V C -0.312540 0.312540 0.776670
C1F C -0.223330 0.312540 0.312540
C1A C -0.312540 0.223330 0.312540
C1R C -0.312540 0.312540 0.223330
C1O C 0.223330 0.312540 0.687460
C1E C 0.312540 0.223330 0.687460
C1S C 0.312540 0.312540 0.776670
C2C C 0.339330 0.249460 0.248810
C2P C 0.248810 0.339330 0.249460
C2H C -0.249460 0.248810 0.660670
C2N C -0.339330 0.249460 0.751190
C2V C -0.248810 0.339330 0.750540
C2Z C -0.249460 0.248810 0.339330
C2JA C -0.339330 0.249460 0.248810
C2RA C -0.248810 0.339330 0.249460
C2BA C 0.249460 0.248810 0.660670
C2GA C 0.339330 0.249460 0.751190
C2UA C 0.248810 0.339330 0.750540
H1P H 0.230500 0.382890 0.231600
H1C H 0.382890 0.231600 0.230500
H1H H -0.231600 0.230500 0.617110
H1V H -0.230500 0.382890 0.768400
H1N H -0.382890 0.231600 0.769500
H1Z H -0.231600 0.230500 0.382890
H1RA H -0.230500 0.382890 0.231600
H1JA H -0.382890 0.231600 0.230500
H1BA H 0.231600 0.230500 0.617110
H1UA H 0.230500 0.382890 0.768400
H1GA H 0.382890 0.231600 0.769500
C3C C 0.351090 0.168810 0.351090
C3P C 0.351090 0.351090 0.168810
C3H C -0.168810 0.351090 0.648910
C3N C -0.351090 0.168810 0.648910
C3V C -0.351090 0.351090 0.831190
C3F C -0.168810 0.351090 0.351090
C3A C -0.351090 0.168810 0.351090
C3R C -0.351090 0.351090 0.168810
C3O C 0.168810 0.351090 0.648910
C3E C 0.351090 0.168810 0.648910
C3S C 0.351090 0.351090 0.831190
C4KA C 0.138760 0.413710 0.330980
C4C C 0.413710 0.138760 0.330980
C4HA C 0.330980 0.138760 0.413710
C4P C 0.330980 0.413710 0.138760
C4SA C 0.413710 0.330980 0.138760
C4H C -0.138760 0.330980 0.586290
C4IA C -0.138760 0.413710 0.669020
C4N C -0.413710 0.138760 0.669020
C4EA C -0.330980 0.138760 0.586290
C4V C -0.330980 0.413710 0.861240
C4OA C -0.413710 0.330980 0.861240
C4Z C -0.138760 0.330980 0.413710
C4F C -0.138760 0.413710 0.330980
C4JA C -0.413710 0.138760 0.330980
C4A C -0.330980 0.138760 0.413710
C4RA C -0.330980 0.413710 0.138760
C4R C -0.413710 0.330980 0.138760
C4BA C 0.138760 0.330980 0.586290
C4O C 0.138760 0.413710 0.669020
C4GA C 0.413710 0.138760 0.669020
C4E C 0.330980 0.138760 0.586290
C4UA C 0.330980 0.413710 0.861240
C4S C 0.413710 0.330980 0.861240
H2KA H 0.149790 0.439880 0.289200
H2HA H 0.289200 0.149790 0.439880
H2C H 0.439880 0.149790 0.289200
H2SA H 0.439880 0.289200 0.149790
H2P H 0.289200 0.439880 0.149790
H2H H -0.149790 0.289200 0.560120
H2IA H -0.149790 0.439880 0.710800
H2EA H -0.289200 0.149790 0.560120
H2N H -0.439880 0.149790 0.710800
H2OA H -0.439880 0.289200 0.850210
H2V H -0.289200 0.439880 0.850210
H2Z H -0.149790 0.289200 0.439880
H2F H -0.149790 0.439880 0.289200
H2A H -0.289200 0.149790 0.439880
H2JA H -0.439880 0.149790 0.289200
H2R H -0.439880 0.289200 0.149790
H2RA H -0.289200 0.439880 0.149790
H2BA H 0.149790 0.289200 0.560120
H2O H 0.149790 0.439880 0.710800
H2E H 0.289200 0.149790 0.560120
H2GA H 0.439880 0.149790 0.710800
H2S H 0.439880 0.289200 0.850210
H2UA H 0.289200 0.439880 0.850210
N1KA N 0.090130 0.432300 0.381170
N1C N 0.432300 0.090130 0.381170
N1HA N 0.381170 0.090130 0.432300
N1P N 0.381170 0.432300 0.090130
N1SA N 0.432300 0.381170 0.090130
N1H N -0.090130 0.381170 0.567700
N1IA N -0.090130 0.432300 0.618830
N1N N -0.432300 0.090130 0.618830
N1EA N -0.381170 0.090130 0.567700
N1V N -0.381170 0.432300 0.909870
N1OA N -0.432300 0.381170 0.909870
N1Z N -0.090130 0.381170 0.432300
N1F N -0.090130 0.432300 0.381170
N1JA N -0.432300 0.090130 0.381170
N1A N -0.381170 0.090130 0.432300
N1RA N -0.381170 0.432300 0.090130
N1R N -0.432300 0.381170 0.090130
N1BA N 0.090130 0.381170 0.567700
N1O N 0.090130 0.432300 0.618830
N1GA N 0.432300 0.090130 0.618830
N1E N 0.381170 0.090130 0.567700
N1UA N 0.381170 0.432300 0.909870
N1S N 0.432300 0.381170 0.909870
N1MA N -0.090130 0.567700 0.381170
N1K N 0.090130 0.567700 0.381170
N1I N 0.567700 -0.090130 0.381170
N1LA N 0.432300 -0.090130 0.381170
N1JA_2 N 0.567700 0.090130 0.381170
N1Y N 0.381170 -0.090130 0.567700
N1G N 0.381170 -0.090130 0.432300
N1T N 0.381170 0.567700 -0.090130
N1UA_2 N 0.381170 0.432300 -0.090130
N1TA N 0.381170 0.567700 0.090130
N1OA_2 N 0.567700 0.381170 -0.090130
N1S_2 N 0.432300 0.381170 -0.090130
N1R_2 N 0.567700 0.381170 0.090130
O1 O 0.00000 0.50000 0.74
loop_
_geom_bond_atom_site_label_1
_geom_bond_atom_site_label_2
_geom_bond_site_symmetry_1
_geom_bond_site_symmetry_2
Cu1 N1 1_555 1_555
C1 C2 1_555 1_555
C2 H1 1_555 1_555
C3 C1 1_555 1_555
C4 C3 1_555 1_555
H2 C4 1_555 1_555
N1 C4 1_555 1_555
Cu1F N1KA 1_555 1_555
Cu1C N1C 1_555 1_555
Cu1E N1HA 1_555 1_555
Cu1P N1P 1_555 1_555
Cu1R N1SA 1_555 1_555
Cu1M N1IA 1_555 1_555
Cu1L N1N 1_555 1_555
Cu1A N1EA 1_555 1_555
Cu1V N1V 1_555 1_555
Cu1R_2 N1OA 1_555 1_555
Cu1C_2 N1JA 1_555 1_555
Cu1V_2 N1RA 1_555 1_555
Cu1R_3 N1R 1_555 1_555
Cu1L_2 N1GA 1_555 1_555
Cu1P_2 N1UA 1_555 1_555
Cu1R_4 N1S 1_555 1_555
C1C C2 1_555 1_555
C1P C2C 1_555 1_555
C1H C2H 1_555 1_555
C1N C2H 1_555 1_555
C1V C2N 1_555 1_555
C1F C2Z 1_555 1_555
C1A C2Z 1_555 1_555
C1R C2JA 1_555 1_555
C1O C2BA 1_555 1_555
C1E C2BA 1_555 1_555
C1S C2GA 1_555 1_555
C2C C1C 1_555 1_555
C2P C1 1_555 1_555
C2H H1H 1_555 1_555
C2N C1N 1_555 1_555
C2V C1H 1_555 1_555
C2Z H1Z 1_555 1_555
C2JA C1A 1_555 1_555
C2RA C1F 1_555 1_555
C2BA H1BA 1_555 1_555
C2GA C1E 1_555 1_555
C2UA C1O 1_555 1_555
H1P C2P 1_555 1_555
H1C C2C 1_555 1_555
H1V C2V 1_555 1_555
H1N C2N 1_555 1_555
H1RA C2RA 1_555 1_555
H1JA C2JA 1_555 1_555
H1UA C2UA 1_555 1_555
H1GA C2GA 1_555 1_555
C3C C1C 1_555 1_555
C3P C1P 1_555 1_555
C3H C1H 1_555 1_555
C3N C1N 1_555 1_555
C3V C1V 1_555 1_555
C3F C1F 1_555 1_555
C3A C1A 1_555 1_555
C3R C1R 1_555 1_555
C3O C1O 1_555 1_555
C3E C1E 1_555 1_555
C3S C1S 1_555 1_555
C4KA C3 1_555 1_555
C4C C3C 1_555 1_555
C4HA C3C 1_555 1_555
C4P C3P 1_555 1_555
C4SA C3P 1_555 1_555
C4H C3H 1_555 1_555
C4IA C3H 1_555 1_555
C4N C3N 1_555 1_555
C4EA C3N 1_555 1_555
C4V C3V 1_555 1_555
C4OA C3V 1_555 1_555
C4Z C3F 1_555 1_555
C4F C3F 1_555 1_555
C4JA C3A 1_555 1_555
C4A C3A 1_555 1_555
C4RA C3R 1_555 1_555
C4R C3R 1_555 1_555
C4BA C3O 1_555 1_555
C4O C3O 1_555 1_555
C4GA C3E 1_555 1_555
C4E C3E 1_555 1_555
C4UA C3S 1_555 1_555
C4S C3S 1_555 1_555
H2KA C4KA 1_555 1_555
H2HA C4HA 1_555 1_555
H2C C4C 1_555 1_555
H2SA C4SA 1_555 1_555
H2P C4P 1_555 1_555
H2H C4H 1_555 1_555
H2IA C4IA 1_555 1_555
H2EA C4EA 1_555 1_555
H2N C4N 1_555 1_555
H2OA C4OA 1_555 1_555
H2V C4V 1_555 1_555
H2Z C4Z 1_555 1_555
H2F C4F 1_555 1_555
H2A C4A 1_555 1_555
H2JA C4JA 1_555 1_555
H2R C4R 1_555 1_555
H2RA C4RA 1_555 1_555
H2BA C4BA 1_555 1_555
H2O C4O 1_555 1_555
H2E C4E 1_555 1_555
H2GA C4GA 1_555 1_555
H2S C4S 1_555 1_555
H2UA C4UA 1_555 1_555
N1KA N1 1_555 1_555
N1C C4C 1_555 1_555
N1HA C4HA 1_555 1_555
N1P C4P 1_555 1_555
N1SA C4SA 1_555 1_555
N1H Cu1 1_555 1_555
N1IA C4IA 1_555 1_555
N1N C4N 1_555 1_555
N1EA C4EA 1_555 1_555
N1V C4V 1_555 1_555
N1OA C4OA 1_555 1_555
N1Z Cu1 1_555 1_555
N1F Cu1F 1_555 1_555
N1JA C4JA 1_555 1_555
N1A Cu1A 1_555 1_555
N1RA C4RA 1_555 1_555
N1R C4R 1_555 1_555
N1BA Cu1 1_555 1_555
N1O Cu1M 1_555 1_555
N1GA C4GA 1_555 1_555
N1E Cu1E 1_555 1_555
N1UA C4UA 1_555 1_555
N1S C4S 1_555 1_555
N1MA Cu1F 1_555 1_555
N1K Cu1F 1_555 1_555
N1I Cu1C 1_555 1_555
N1LA Cu1C 1_555 1_555
N1JA_2 Cu1C 1_555 1_555
N1Y Cu1E 1_555 1_555
N1G Cu1E 1_555 1_555
N1T Cu1P 1_555 1_555
N1UA_2 Cu1P 1_555 1_555
N1TA Cu1P 1_555 1_555
N1OA_2 Cu1R 1_555 1_555
N1S_2 Cu1R 1_555 1_555
N1R_2 Cu1R 1_555 1_555
C1P C2P 1_555 1_555
C1V C2V 1_555 1_555
C1R C2RA 1_555 1_555
C1S C2UA 1_555 1_555
C4KA N1KA 1_555 1_555
C4H N1H 1_555 1_555
C4Z N1Z 1_555 1_555
C4F N1F 1_555 1_555
C4A N1A 1_555 1_555
C4BA N1BA 1_555 1_555
C4O N1O 1_555 1_555
C4E N1E 1_555 1_555
N1C N1HA 1_555 1_555
N1P N1SA 1_555 1_555
N1H N1IA 1_555 1_555
N1N N1EA 1_555 1_555
N1V N1OA 1_555 1_555
N1Z N1F 1_555 1_555
N1JA N1A 1_555 1_555
N1RA N1R 1_555 1_555
N1BA N1O 1_555 1_555
N1GA N1E 1_555 1_555
N1UA N1S 1_555 1_555
N1LA N1G 1_555 1_555
N1UA_2 N1S_2 1_555 1_555

#END
