
#######################################################################
#
#                 Cambridge Crystallographic Data Centre
#                                CCDC 
#
#######################################################################
#
# If this CIF has been generated from an entry in the Cambridge 
# Structural Database, then it will include bibliographic, chemical, 
# crystal, experimental, refinement or atomic coordinate data resulting 
# from the CCDC's data processing and validation procedures.
#
#######################################################################

data_UVINAP
_symmetry_cell_setting           tetragonal
_symmetry_space_group_name_H-M   'P 42/n'
_symmetry_Int_Tables_number      86
_space_group_name_Hall           '-P 4bc'
loop_
_symmetry_equiv_pos_site_id
_symmetry_equiv_pos_as_xyz
1 x,y,z
2 -y,1/2+x,1/2+z
3 1/2-x,1/2-y,z
4 1/2+y,-x,1/2+z
5 -x,-y,-z
6 y,1/2-x,1/2-z
7 1/2+x,1/2+y,-z
8 1/2-y,x,1/2-z
_cell_length_a                   14.314(3)
_cell_length_b                   14.314(3)
_cell_length_c                   6.2872(12)
_cell_angle_alpha                90
_cell_angle_beta                 90
_cell_angle_gamma                90
_cell_volume                     1288.19
loop_
_atom_site_label
_atom_site_type_symbol
_atom_site_fract_x
_atom_site_fract_y
_atom_site_fract_z
C1 C 0.0578(2) 0.0290(2) 0.8391(5)
C2 C -0.02839(19) 0.06851(19) 0.8582(5)
H1 H -0.0479 0.1147 0.7643
C3 C 0.0879(2) -0.0374(2) 0.9744(4)
H2 H 0.1473 -0.0628 0.9587
C4 C 0.1282(2) 0.1488(2) 0.5780(5)
H3 H 0.0947 0.2018 0.6171
C5 C 0.2294(2) 0.0582(2) 0.4136(5)
H4 H 0.2753 0.0342 0.3243
C6 C 0.1162(2) 0.0620(2) 0.6628(5)
Co1 Co 0.2500 0.2500 0.2500
N1 N 0.19993(17) 0.14602(16) 0.4200(4)
N2 N 0.18056(17) 0.01029(17) 0.5599(4)
H5 H 0.1896 -0.0480 0.5854
C1D C -0.0578(2) -0.0290(2) 1.1609(5)
C1G C 0.4710(2) 0.0578(2) -0.3391(5)
C1C C 0.5290(2) -0.0578(2) -0.6609(5)
C2D C 0.02839(19) -0.06851(19) 1.1418(5)
C2G C 0.43149(19) -0.02839(19) -0.3582(5)
C2C C 0.56851(19) 0.02839(19) -0.6418(5)
H1D H 0.0479 -0.1147 1.2357
H1G H 0.3853 -0.0479 -0.2643
H1C H 0.6147 0.0479 -0.7357
C3D C -0.0879(2) 0.0374(2) 1.0256(4)
C3G C 0.5374(2) 0.0879(2) -0.4744(4)
C3C C 0.4626(2) -0.0879(2) -0.5256(4)
H2D H -0.1473 0.0628 1.0413
H2G H 0.5628 0.1473 -0.4587
H2C H 0.4372 -0.1473 -0.5413
C4D C -0.1282(2) -0.1488(2) 1.4220(5)
C4G C 0.3512(2) 0.1282(2) -0.0780(5)
C4C C 0.6488(2) -0.1282(2) -0.9220(5)
H3D H -0.0947 -0.2018 1.3829
H3G H 0.2982 0.0947 -0.1171
H3C H 0.7018 -0.0947 -0.8829
C5D C -0.2294(2) -0.0582(2) 1.5864(5)
C5G C 0.4418(2) 0.2294(2) 0.0864(5)
C5C C 0.5582(2) -0.2294(2) -1.0864(5)
H4D H -0.2753 -0.0342 1.6757
H4G H 0.4658 0.2753 0.1757
H4C H 0.5342 -0.2753 -1.1757
C6D C -0.1162(2) -0.0620(2) 1.3372(5)
C6G C 0.4380(2) 0.1162(2) -0.1628(5)
C6C C 0.5620(2) -0.1162(2) -0.8372(5)
Co1A Co -0.2500 -0.2500 1.7500
Co1A_2 Co 0.7500 -0.2500 -1.2500
N1D N -0.19993(17) -0.14602(16) 1.5800(4)
N1G N 0.35398(16) 0.19993(17) 0.0800(4)
N1C N 0.64602(16) -0.19993(17) -1.0800(4)
N1E N 0.14602(16) 0.30007(17) 0.0800(4)
N1B N 0.30007(17) 0.35398(16) 0.4200(4)
N2D N -0.18056(17) -0.01029(17) 1.4401(4)
N2G N 0.48971(17) 0.18056(17) -0.0599(4)
N2C N 0.51029(17) -0.18056(17) -0.9401(4)
H5D H -0.1896 0.0480 1.4146
H5G H 0.5480 0.1896 -0.0854
H5C H 0.4520 -0.1896 -0.9146
O1 O 0.1841(3) -0.1837(3) 0.4098(7)
H6 H 0.2047 -0.2213 0.5033
H7 H 0.2052 -0.1303 0.4447
loop_
_geom_bond_atom_site_label_1
_geom_bond_atom_site_label_2
_geom_bond_site_symmetry_1
_geom_bond_site_symmetry_2
C1 C2 1_555 1_555
C2 H1 1_555 1_555
C3 C1 1_555 1_555
H2 C3 1_555 1_555
C4 H3 1_555 1_555
C5 H4 1_555 1_555
C6 C1 1_555 1_555
Co1 N1 1_555 1_555
N1 C4 1_555 1_555
N2 C5 1_555 1_555
H5 N2 1_555 1_555
O1 H6 1_555 1_555
H7 O1 1_555 1_555
C1D C2D 1_555 1_555
C1G C2G 1_555 1_555
C1C C2C 1_555 1_555
C2D C3 1_555 1_555
C2G H1G 1_555 1_555
C2C H1C 1_555 1_555
H1D C2D 1_555 1_555
C3D C2 1_555 1_555
C3G C1G 1_555 1_555
C3C C1C 1_555 1_555
H2D C3D 1_555 1_555
H2G C3G 1_555 1_555
H2C C3C 1_555 1_555
C4D H3D 1_555 1_555
C4G H3G 1_555 1_555
C4C H3C 1_555 1_555
C5D H4D 1_555 1_555
C5G H4G 1_555 1_555
C5C H4C 1_555 1_555
C6D C1D 1_555 1_555
C6G C1G 1_555 1_555
C6C C1C 1_555 1_555
Co1A N1D 1_555 1_555
Co1A_2 N1C 1_555 1_555
N1D C4D 1_555 1_555
N1G Co1 1_555 1_555
N1C C4C 1_555 1_555
N1E Co1 1_555 1_555
N1B Co1 1_555 1_555
N2D C5D 1_555 1_555
N2G C5G 1_555 1_555
N2C C5C 1_555 1_555
H5D N2D 1_555 1_555
H5G N2G 1_555 1_555
H5C N2C 1_555 1_555
C4 C6 1_555 1_555
C5 N1 1_555 1_555
C6 N2 1_555 1_555
C1D C3D 1_555 1_555
C2G C3C 1_555 1_555
C2C C3G 1_555 1_555
C4D C6D 1_555 1_555
C4G C6G 1_555 1_555
C4G N1G 1_555 1_555
C4C C6C 1_555 1_555
C5D N1D 1_555 1_555
C5G N1G 1_555 1_555
C5C N1C 1_555 1_555
C6D N2D 1_555 1_555
C6G N2G 1_555 1_555
C6C N2C 1_555 1_555

#END
