
#######################################################################
#
#                 Cambridge Crystallographic Data Centre
#                                CCDC 
#
#######################################################################
#
# If this CIF has been generated from an entry in the Cambridge 
# Structural Database, then it will include bibliographic, chemical, 
# crystal, experimental, refinement or atomic coordinate data resulting 
# from the CCDC's data processing and validation procedures.
#
#######################################################################

data_UYOFIY
_symmetry_cell_setting           orthorhombic
_symmetry_space_group_name_H-M   'P b c a'
_symmetry_Int_Tables_number      61
_space_group_name_Hall           '-P 2ac 2ab'
loop_
_symmetry_equiv_pos_site_id
_symmetry_equiv_pos_as_xyz
1 x,y,z
2 1/2-x,-y,1/2+z
3 -x,1/2+y,1/2-z
4 1/2+x,1/2-y,-z
5 -x,-y,-z
6 1/2+x,y,1/2-z
7 x,1/2-y,1/2+z
8 1/2-x,1/2+y,z
_cell_length_a                   13.279(3)
_cell_length_b                   13.141(3)
_cell_length_c                   32.181(7)
_cell_angle_alpha                90
_cell_angle_beta                 90
_cell_angle_gamma                90
_cell_volume                     5615.56
loop_
_atom_site_label
_atom_site_type_symbol
_atom_site_fract_x
_atom_site_fract_y
_atom_site_fract_z
Tb1 Tb 0.80733(4) 1.03333(4) 0.533878(17)
Tb2 Tb 1.03811(4) 0.95151(4) 0.265454(17)
O1 O 1.0294(6) 1.0239(6) 0.4586(3)
O2 O 0.6682(6) 1.0029(7) 0.4898(3)
O3 O 0.8618(6) 1.0258(8) 0.4636(3)
O4 O 0.6985(5) 0.8987(6) 0.2556(3)
O5 O 1.0223(6) 0.7759(6) 0.2742(3)
O6 O 1.1505(6) 0.9360(7) 0.3970(3)
O7 O 1.1281(6) 0.9183(6) 0.3298(2)
O8 O 0.8009(6) 0.8545(7) 0.5308(3)
O9 O 0.7851(6) 0.6878(6) 0.5347(3)
C1 C 0.7484(8) 0.7759(8) 0.5280(3)
O10 O 1.0257(6) 0.6096(6) 0.2613(3)
O11 O 0.8633(6) 0.9256(6) 0.2577(3)
C2 C 0.9823(8) 0.6951(8) 0.2598(3)
O12 O 0.5336(7) 0.9743(8) 0.4519(3)
N1 N 0.9506(8) 1.0072(8) 0.3289(3)
N2 N 0.7257(7) 0.7087(7) 0.2213(3)
H1 H 0.6664 0.7321 0.2163
N3 N 0.5888(7) 0.6910(7) 0.5256(3)
N4 N 0.8514(7) 0.6013(7) 0.2243(3)
N5 N 0.4886(8) 0.8010(8) 0.4959(3)
H2 H 0.4348 0.8273 0.4856
C3 C 0.8028(8) 0.7622(9) 0.2388(4)
N6 N 0.8482(8) 1.0533(10) 0.3787(4)
H3 H 0.7951 1.0759 0.3909
C4 C 0.8803(8) 0.6933(8) 0.2411(4)
C5 C 1.1000(8) 0.9475(8) 0.3650(4)
C6 C 0.7885(8) 0.8686(8) 0.2520(3)
C7 C 0.5951(9) 0.9506(10) 0.4789(4)
C8 C 0.9342(9) 1.0224(9) 0.3976(4)
C9 C 0.5805(9) 0.8469(9) 0.4984(4)
C10 C 0.9424(10) 1.0248(8) 0.4438(4)
C11 C 0.6413(9) 0.7798(9) 0.5170(4)
C12 C 0.4964(10) 0.7087(9) 0.5122(5)
H4 H 0.4436 0.6623 0.5140
C13 C 0.7566(10) 0.6154(9) 0.2130(4)
H5 H 0.7166 0.5657 0.2008
C14 C 0.9974(9) 0.9941(10) 0.3664(4)
C15 C 0.8606(11) 1.0422(12) 0.3374(5)
H6 H 0.8119 1.0573 0.3176
O20 O 1.0191(7) 0.9194(9) 0.1943(3)
H21 H 1.0179 0.9714 0.1786
H22 H 1.0629 0.8776 0.1856
O21 O 0.6623(6) 0.9978(6) 0.5786(3)
H23 H 0.6489 0.9868 0.6041
H24 H 0.6128 0.9763 0.5644
Tb1D Tb 1.19267(4) 0.96667(4) 0.466122(17)
Tb1C Tb 1.30733(4) 1.46667(4) 0.466122(17)
Tb1G Tb 0.69267(4) 0.53333(4) 0.533878(17)
Tb2D Tb 0.96189(4) 1.04849(4) 0.734546(17)
Tb2A Tb 1.46189(4) 1.04849(4) 0.765454(17)
Tb2B Tb 0.96189(4) 0.45151(4) 0.234546(17)
Tb2E Tb 0.53811(4) 0.95151(4) 0.234546(17)
Tb2F Tb 1.03811(4) 1.54849(4) 0.765454(17)
O1D O 0.9706(6) 0.9761(6) 0.5414(3)
O2D O 1.3318(6) 0.9971(7) 0.5102(3)
O3D O 1.1382(6) 0.9742(8) 0.5364(3)
O4D O 1.3015(5) 1.1013(6) 0.7444(3)
O4A O 0.8015(5) 1.1013(6) 0.7556(3)
O4E O 1.1985(5) 0.8987(6) 0.2444(3)
O5D O 0.9777(6) 1.2241(6) 0.7258(3)
O6D O 0.8495(6) 1.0640(7) 0.6030(3)
O7D O 0.8719(6) 1.0817(6) 0.6702(2)
O8D O 1.1991(6) 1.1455(7) 0.4692(3)
O9D O 1.2149(6) 1.3122(6) 0.4653(3)
O9C O 1.2851(6) 0.8122(6) 0.4653(3)
O9G O 0.7149(6) 1.1878(6) 0.5347(3)
C1D C 1.2516(8) 1.2241(8) 0.4720(3)
O10D O 0.9743(6) 1.3904(6) 0.7387(3)
O10B O 0.9743(6) 1.1096(6) 0.2387(3)
O10F O 1.0257(6) 0.8904(6) 0.7613(3)
O11D O 1.1367(6) 1.0744(6) 0.7423(3)
C2D C 1.0177(8) 1.3049(8) 0.7402(3)
O12D O 1.4664(7) 1.0257(8) 0.5481(3)
N1D N 1.0494(8) 0.9928(8) 0.6711(3)
N2D N 1.2743(7) 1.2913(7) 0.7787(3)
H1D H 1.3336 1.2679 0.7837
N3D N 1.4112(7) 1.3090(7) 0.4744(3)
N3C N 1.0888(7) 0.8090(7) 0.4744(3)
N3G N 0.9112(7) 1.1910(7) 0.5256(3)
N4D N 1.1486(7) 1.3987(7) 0.7757(3)
N4B N 1.1486(7) 1.1013(7) 0.2757(3)
N4F N 0.8514(7) 0.8987(7) 0.7243(3)
N5D N 1.5114(8) 1.1990(8) 0.5041(3)
H2D H 1.5652 1.1727 0.5144
C3D C 1.1972(8) 1.2378(9) 0.7612(4)
N6D N 1.1518(8) 0.9467(10) 0.6213(4)
H3D H 1.2049 0.9241 0.6091
C4D C 1.1197(8) 1.3067(8) 0.7589(4)
C5D C 0.9000(8) 1.0525(8) 0.6350(4)
C6D C 1.2115(8) 1.1314(8) 0.7480(3)
C7D C 1.4049(9) 1.0494(10) 0.5211(4)
C8D C 1.0658(9) 0.9776(9) 0.6024(4)
C9D C 1.4195(9) 1.1531(9) 0.5016(4)
C10D C 1.0576(10) 0.9752(8) 0.5562(4)
C11D C 1.3587(9) 1.2202(9) 0.4830(4)
C12D C 1.5036(10) 1.2913(9) 0.4878(5)
H4D H 1.5564 1.3377 0.4860
C13D C 1.2434(10) 1.3846(9) 0.7870(4)
H5D H 1.2834 1.4343 0.7992
C14D C 1.0026(9) 1.0059(10) 0.6336(4)
C15D C 1.1394(11) 0.9578(12) 0.6626(5)
H6D H 1.1881 0.9427 0.6824
O20D O 0.9809(7) 1.0806(9) 0.8057(3)
H21D H 0.9821 1.0286 0.8214
H22D H 0.9371 1.1224 0.8144
O21D O 1.3377(6) 1.0022(6) 0.4214(3)
H23D H 1.3511 1.0132 0.3959
H24D H 1.3872 1.0237 0.4356
O13 O 0.6628(8) 0.1116(9) 0.6519(3)
H7 H 0.7246 0.1087 0.6587
H8 H 0.6281 0.0982 0.6735
O14 O 0.6770(10) 0.1371(10) 0.4170(4)
H9 H 0.6651 0.1038 0.4391
H10 H 0.6300 0.1805 0.4140
O15 O 0.7639(15) 0.8341(15) 0.4202(6)
H11 H 0.7420 0.8630 0.4420
H12 H 0.8031 0.8756 0.4079
O16 O 0.9102(17) 0.7804(15) 0.6146(6)
H13 H 0.8963 0.8307 0.5991
H14 H 0.8848 0.7275 0.6036
O17 O 0.101(2) 0.833(2) 0.1269(9)
H15 H 0.1609 0.8314 0.1168
H16 H 0.0843 0.8958 0.1308
O18 O 0.648(4) 0.8135(18) 0.6229(9)
H17 H 0.6413 0.7604 0.6081
H18 H 0.6854 0.7980 0.6435
O19 O 0.535(3) 0.144(4) 0.3581(10)
H19 H 0.4752 0.1238 0.3626
H20 H 0.5764 0.0989 0.3665
loop_
_geom_bond_atom_site_label_1
_geom_bond_atom_site_label_2
_geom_bond_site_symmetry_1
_geom_bond_site_symmetry_2
Tb1 O2 1_555 1_555
Tb2 O5 1_555 1_555
O1 C10 1_555 1_555
O2 C7 1_555 1_555
O3 Tb1 1_555 1_555
O4 C6 1_555 1_555
O5 C2 1_555 1_555
O6 C5 1_555 1_555
O7 Tb2 1_555 1_555
O8 Tb1 1_555 1_555
O9 C1 1_555 1_555
C1 O8 1_555 1_555
O10 C2 1_555 1_555
O11 Tb2 1_555 1_555
C2 C4 1_555 1_555
O12 C7 1_555 1_555
N1 Tb2 1_555 1_555
N2 H1 1_555 1_555
N3 C11 1_555 1_555
N4 C4 1_555 1_555
N5 H2 1_555 1_555
C3 N2 1_555 1_555
N6 H3 1_555 1_555
C4 C3 1_555 1_555
C5 O7 1_555 1_555
C6 O11 1_555 1_555
C7 C9 1_555 1_555
C8 N6 1_555 1_555
C9 N5 1_555 1_555
C10 O3 1_555 1_555
C11 C1 1_555 1_555
C12 N3 1_555 1_555
H4 C12 1_555 1_555
C13 N2 1_555 1_555
H5 C13 1_555 1_555
C14 N1 1_555 1_555
C15 N1 1_555 1_555
H6 C15 1_555 1_555
O13 H7 1_555 1_555
H8 O13 1_555 1_555
O14 H9 1_555 1_555
H10 O14 1_555 1_555
O15 H11 1_555 1_555
H12 O15 1_555 1_555
O16 H13 1_555 1_555
H14 O16 1_555 1_555
O17 H15 1_555 1_555
H16 O17 1_555 1_555
O18 H17 1_555 1_555
H18 O18 1_555 1_555
O19 H19 1_555 1_555
H20 O19 1_555 1_555
O20 Tb2 1_555 1_555
H21 O20 1_555 1_555
H22 O20 1_555 1_555
O21 Tb1 1_555 1_555
H23 O21 1_555 1_555
H24 O21 1_555 1_555
Tb1D O1 1_555 1_555
Tb1C O9D 1_555 1_555
Tb1G O9 1_555 1_555
Tb2D O4A 1_555 1_555
Tb2A O4D 1_555 1_555
Tb2B O10 1_555 1_555
Tb2E O4 1_555 1_555
Tb2F O10D 1_555 1_555
O1D Tb1 1_555 1_555
O2D Tb1D 1_555 1_555
O3D Tb1D 1_555 1_555
O4D C6D 1_555 1_555
O4E Tb2 1_555 1_555
O5D Tb2D 1_555 1_555
O6D Tb1 1_555 1_555
O7D Tb2D 1_555 1_555
O8D Tb1D 1_555 1_555
O9D C1D 1_555 1_555
O9C Tb1D 1_555 1_555
O9G Tb1 1_555 1_555
C1D O8D 1_555 1_555
O10D C2D 1_555 1_555
O10B Tb2 1_555 1_555
O10F Tb2D 1_555 1_555
O11D Tb2D 1_555 1_555
C2D O5D 1_555 1_555
O12D C7D 1_555 1_555
N1D Tb2D 1_555 1_555
N2D H1D 1_555 1_555
N3D Tb1C 1_555 1_555
N3C Tb1D 1_555 1_555
N3G Tb1 1_555 1_555
N4D Tb2F 1_555 1_555
N4B Tb2 1_555 1_555
N4F Tb2D 1_555 1_555
N5D H2D 1_555 1_555
C3D N2D 1_555 1_555
N6D H3D 1_555 1_555
C4D C2D 1_555 1_555
C5D O6D 1_555 1_555
C6D O11D 1_555 1_555
C7D O2D 1_555 1_555
C8D N6D 1_555 1_555
C9D N5D 1_555 1_555
C10D O1D 1_555 1_555
C11D C1D 1_555 1_555
C12D N3D 1_555 1_555
H4D C12D 1_555 1_555
C13D N2D 1_555 1_555
H5D C13D 1_555 1_555
C14D N1D 1_555 1_555
C15D N1D 1_555 1_555
H6D C15D 1_555 1_555
O20D Tb2D 1_555 1_555
H21D O20D 1_555 1_555
H22D O20D 1_555 1_555
O21D Tb1D 1_555 1_555
H23D O21D 1_555 1_555
H24D O21D 1_555 1_555
O6 Tb1D 1_555 1_555
N3 Tb1G 1_555 1_555
N4 C13 1_555 1_555
N4 Tb2B 1_555 1_555
N5 C12 1_555 1_555
C3 C6 1_555 1_555
N6 C15 1_555 1_555
C5 C14 1_555 1_555
C8 C10 1_555 1_555
C8 C14 1_555 1_555
C9 C11 1_555 1_555
O3D C10D 1_555 1_555
O7D C5D 1_555 1_555
N3D C11D 1_555 1_555
N4D C4D 1_555 1_555
N4D C13D 1_555 1_555
N5D C12D 1_555 1_555
C3D C4D 1_555 1_555
C3D C6D 1_555 1_555
N6D C15D 1_555 1_555
C5D C14D 1_555 1_555
C7D C9D 1_555 1_555
C8D C10D 1_555 1_555
C8D C14D 1_555 1_555
C9D C11D 1_555 1_555

#END
