
#######################################################################
#
#                 Cambridge Crystallographic Data Centre
#                                CCDC 
#
#######################################################################
#
# If this CIF has been generated from an entry in the Cambridge 
# Structural Database, then it will include bibliographic, chemical, 
# crystal, experimental, refinement or atomic coordinate data resulting 
# from the CCDC's data processing and validation procedures.
#
#######################################################################

data_UZIJUJ
_symmetry_cell_setting           monoclinic
_symmetry_space_group_name_H-M   'P 21/c'
_symmetry_Int_Tables_number      14
_space_group_name_Hall           '-P 2ybc'
loop_
_symmetry_equiv_pos_site_id
_symmetry_equiv_pos_as_xyz
1 x,y,z
2 -x,1/2+y,1/2-z
3 -x,-y,-z
4 x,1/2-y,1/2+z
_cell_length_a                   12.288(3)
_cell_length_b                   36.854(7)
_cell_length_c                   11.440(2)
_cell_angle_alpha                90
_cell_angle_beta                 117.642(2)
_cell_angle_gamma                90
_cell_volume                     4589.43
loop_
_atom_site_label
_atom_site_type_symbol
_atom_site_fract_x
_atom_site_fract_y
_atom_site_fract_z
O1 O 1.2738(3) 0.50633(11) -0.0387(4)
Ce1 Ce 1.37001(2) 0.463510(7) -0.13023(3)
O2 O 0.6683(3) 0.57333(10) 0.3417(4)
O3 O 0.5673(4) 0.89757(10) 0.5644(5)
O4 O 0.7446(3) 0.91424(10) 0.5752(4)
C1 C 0.6611(5) 0.89033(15) 0.5528(6)
C2 C 0.6818(6) 0.85283(15) 0.5177(6)
C3 C 0.6107(7) 0.82401(17) 0.5240(9)
H1 H 0.5494 0.8283 0.5483
C4 C 0.7705(7) 0.84568(16) 0.4793(7)
H2 H 0.8174 0.8647 0.4732
C5 C 0.7913(7) 0.81064(17) 0.4497(8)
H3 H 0.8522 0.8063 0.4247
C6 C 0.6311(8) 0.78917(18) 0.4941(10)
H4 H 0.5836 0.7701 0.4988
C7 C 0.7215(7) 0.78238(16) 0.4574(8)
N1 N 0.7400(7) 0.74543(14) 0.4315(8)
H5 H 0.7075 0.7290 0.4588
O5 O 1.4259(3) 0.54129(10) 0.1054(4)
N2 N 1.0028(4) 0.60491(13) 0.2125(5)
H6 H 0.9323 0.5950 0.1888
C8 C 0.6980(5) 0.60195(14) 0.4044(6)
N3 N 0.6784(7) 0.60869(16) 0.5090(7)
H7 H 0.7026 0.6296 0.5453
C9 C 0.6231(8) 0.5861(2) 0.5680(8)
O6 O 0.4921(4) 0.53163(11) 0.8889(4)
O7 O 0.8379(10) 0.75460(15) 0.3133(11)
C10 C 0.6635(14) 0.5913(4) 0.6991(11)
H8 H 0.7266 0.6076 0.7460
C11 C 0.9266(5) 0.64612(15) 0.3195(6)
C12 C 0.9069(6) 0.68253(16) 0.3298(7)
H9 H 0.9541 0.6997 0.3140
C13 C 0.5150(6) 0.54799(17) 0.6982(6)
C14 C 0.4536(5) 0.52783(14) 0.7659(5)
O8 O 0.3675(4) 0.50678(11) 0.6995(4)
O9 O 1.1412(3) 0.46956(11) -0.2937(4)
C15 C 1.2314(4) 0.54976(15) 0.0898(5)
C16 C 1.3166(5) 0.53060(14) 0.0483(6)
C17 C 0.7668(5) 0.63099(14) 0.3775(6)
C18 C 0.8646(6) 0.61940(16) 0.3523(7)
H10 H 0.8863 0.5951 0.3574
C19 C 1.1089(5) 0.54081(15) 0.0408(6)
H11 H 1.0762 0.5221 -0.0203
C20 C 0.7477(6) 0.66791(15) 0.3875(7)
H12 H 0.6877 0.6752 0.4105
C21 C 1.0813(5) 0.58726(16) 0.1717(6)
C22 C 1.0339(5) 0.55929(15) 0.0815(6)
H13 H 0.9517 0.5528 0.0480
C23 C 0.8167(7) 0.69387(16) 0.3637(8)
C24 C 1.2770(5) 0.5777(2) 0.1781(8)
H14 H 1.3592 0.5842 0.2112
C25 C 1.2031(6) 0.5967(2) 0.2197(8)
H15 H 1.2358 0.6156 0.2797
N4 N 0.9438(5) 0.48847(17) -0.3774(6)
O10 O 1.1182(5) 0.65390(16) 0.3216(8)
C26 C 0.4839(6) 0.5420(2) 0.5686(6)
H16 H 0.4227 0.5252 0.5217
C27 C 1.0644(6) 0.4909(2) -0.2976(7)
H17 H 1.0918 0.5106 -0.2402
C28 C 1.0261(6) 0.63575(18) 0.2851(8)
C29 C 0.5397(6) 0.5600(2) 0.5036(6)
H18 H 0.5197 0.5541 0.4170
C30 C 0.8014(10) 0.73395(18) 0.3704(11)
C31 C 0.8937(7) 0.4577(2) -0.4700(9)
H19 H 0.9600 0.4429 -0.4649
H20 H 0.8410 0.4435 -0.4471
H21 H 0.8475 0.4668 -0.5583
C32 C 0.8559(9) 0.5137(3) -0.3727(11)
H22 H 0.8986 0.5324 -0.3096
H23 H 0.8088 0.5244 -0.4582
H24 H 0.8019 0.5011 -0.3471
C33 C 0.6082(13) 0.5714(3) 0.7630(10)
H25 H 0.6371 0.5746 0.8532
Ce1B Ce 0.62999(2) 0.536490(7) 0.13023(3)
Ce1A Ce 0.62999(2) 0.963510(7) 0.63023(3)
Ce1B_2 Ce 1.62999(2) 0.536490(7) 0.13023(3)
Ce1B_3 Ce 0.62999(2) 0.536490(7) 1.13023(3)
Ce1_2 Ce 0.37001(2) 0.463510(7) 0.86977(3)
O2B O 1.3317(3) 0.42667(10) -0.3417(4)
O3A O 1.4327(4) 0.39757(10) -0.0644(5)
O4A O 1.2554(3) 0.41424(10) -0.0752(4)
O5B O 1.5741(3) 0.45871(10) -0.1054(4)
O6B O 1.5079(4) 0.46837(11) 0.1111(4)
O6_2 O 1.4921(4) 0.53163(11) -0.1111(4)
O8_2 O 1.3675(4) 0.50678(11) -0.3005(4)
loop_
_geom_bond_atom_site_label_1
_geom_bond_atom_site_label_2
_geom_bond_site_symmetry_1
_geom_bond_site_symmetry_2
O1 Ce1 1_555 1_555
Ce1 O9 1_555 1_555
O2 C8 1_555 1_555
O3 C1 1_555 1_555
O4 C1 1_555 1_555
C1 C2 1_555 1_555
C2 C3 1_555 1_555
C3 H1 1_555 1_555
C4 C2 1_555 1_555
H2 C4 1_555 1_555
C5 C4 1_555 1_555
H3 C5 1_555 1_555
C6 C3 1_555 1_555
H4 C6 1_555 1_555
C7 C5 1_555 1_555
N1 C7 1_555 1_555
H5 N1 1_555 1_555
O5 C16 1_555 1_555
N2 H6 1_555 1_555
C8 N3 1_555 1_555
N3 H7 1_555 1_555
C9 N3 1_555 1_555
O6 C14 1_555 1_555
O7 C30 1_555 1_555
C10 C9 1_555 1_555
H8 C10 1_555 1_555
C11 C12 1_555 1_555
C12 H9 1_555 1_555
C13 C14 1_555 1_555
C14 O8 1_555 1_555
O8 Ce1_2 1_555 1_555
O9 C27 1_555 1_555
C15 C16 1_555 1_555
C16 O1 1_555 1_555
C17 C8 1_555 1_555
C18 C11 1_555 1_555
H10 C18 1_555 1_555
C19 C15 1_555 1_555
H11 C19 1_555 1_555
C20 C17 1_555 1_555
H12 C20 1_555 1_555
C21 N2 1_555 1_555
C22 C19 1_555 1_555
H13 C22 1_555 1_555
C23 C12 1_555 1_555
C24 C15 1_555 1_555
H14 C24 1_555 1_555
C25 C21 1_555 1_555
H15 C25 1_555 1_555
N4 C27 1_555 1_555
O10 C28 1_555 1_555
C26 C13 1_555 1_555
H16 C26 1_555 1_555
C27 H17 1_555 1_555
C28 N2 1_555 1_555
C29 C9 1_555 1_555
H18 C29 1_555 1_555
C30 N1 1_555 1_555
C31 N4 1_555 1_555
H19 C31 1_555 1_555
H20 C31 1_555 1_555
H21 C31 1_555 1_555
C32 N4 1_555 1_555
H22 C32 1_555 1_555
H23 C32 1_555 1_555
H24 C32 1_555 1_555
C33 C10 1_555 1_555
H25 C33 1_555 1_555
Ce1B O2 1_555 1_555
Ce1A O3 1_555 1_555
Ce1B_2 O5 1_555 1_555
Ce1B_3 O6 1_555 1_555
Ce1_2 O6 1_555 1_555
O2B Ce1 1_555 1_555
O3A Ce1 1_555 1_555
O4A Ce1 1_555 1_555
O5B Ce1 1_555 1_555
O6B Ce1 1_555 1_555
O6_2 Ce1 1_555 1_555
O8_2 Ce1 1_555 1_555
O4 Ce1A 1_555 1_555
C6 C7 1_555 1_555
C11 C28 1_555 1_555
C13 C33 1_555 1_555
C17 C18 1_555 1_555
C20 C23 1_555 1_555
C21 C22 1_555 1_555
C23 C30 1_555 1_555
C24 C25 1_555 1_555
C26 C29 1_555 1_555
Ce1B_2 O6B 1_555 1_555
Ce1B_2 O6_2 1_555 1_555

#END
