
#######################################################################
#
#                 Cambridge Crystallographic Data Centre
#                                CCDC 
#
#######################################################################
#
# If this CIF has been generated from an entry in the Cambridge 
# Structural Database, then it will include bibliographic, chemical, 
# crystal, experimental, refinement or atomic coordinate data resulting 
# from the CCDC's data processing and validation procedures.
#
#######################################################################

data_VAGTUU
_symmetry_cell_setting           monoclinic
_symmetry_space_group_name_H-M   'P 21'
_symmetry_Int_Tables_number      4
_space_group_name_Hall           'P 2yb'
loop_
_symmetry_equiv_pos_site_id
_symmetry_equiv_pos_as_xyz
1 x,y,z
2 -x,1/2+y,-z
_cell_length_a                   17.2344(6)
_cell_length_b                   17.2237(6)
_cell_length_c                   17.2923(7)
_cell_angle_alpha                90
_cell_angle_beta                 90.548(4)
_cell_angle_gamma                90
_cell_volume                     5132.81
loop_
_atom_site_label
_atom_site_type_symbol
_atom_site_fract_x
_atom_site_fract_y
_atom_site_fract_z
C1 C 0.9944(5) 0.4505(4) 0.9628(5)
C2 C 1.0565(4) 0.3956(4) 0.9486(5)
C3 C 1.0619(5) 0.3246(4) 0.9866(5)
H1 H 1.0271 0.3066 1.0233
C4 C 1.1284(5) 0.2839(4) 0.9613(5)
C5 C 1.1646(5) 0.3295(4) 0.9044(6)
C6 C 1.1194(5) 0.4018(5) 0.8957(5)
C7 C 1.2297(6) 0.3055(5) 0.8613(6)
H2 H 1.2494 0.2566 0.8734
C8 C 1.2690(6) 0.3461(7) 0.8020(8)
H3 H 1.3106 0.3207 0.7793
C9 C 1.2513(6) 0.4220(6) 0.7734(7)
H4 H 1.2852 0.4409 0.7363
C10 C 1.1927(6) 0.4703(6) 0.7923(6)
H5 H 1.1923 0.5171 0.7654
C11 C 1.1328(5) 0.4622(5) 0.8451(6)
H6 H 1.0972 0.5028 0.8464
C12 C 1.1514(5) 0.2067(5) 0.9916(5)
C13 C 0.7700(5) 0.5061(5) 1.1611(5)
C14 C 0.7532(4) 0.4812(5) 1.2416(4)
C15 C 0.7677(4) 0.4057(5) 1.2660(5)
H7 H 0.7926 0.3681 1.2368
C16 C 0.7395(4) 0.3939(4) 1.3408(5)
C17 C 0.7045(5) 0.4646(4) 1.3661(5)
C18 C 0.7150(5) 0.5200(5) 1.3002(5)
C19 C 0.6715(5) 0.4795(5) 1.4368(5)
H8 H 0.6717 0.4382 1.4715
C20 C 0.6380(5) 0.5479(5) 1.4633(5)
H9 H 0.6186 0.5459 1.5132
C21 C 0.6293(7) 0.6181(5) 1.4262(6)
H10 H 0.6021 0.6553 1.4539
C22 C 0.6538(6) 0.6418(6) 1.3561(6)
H11 H 0.6441 0.6935 1.3440
C23 C 0.6916(6) 0.5991(5) 1.2998(6)
H12 H 0.7034 0.6264 1.2551
C24 C 0.7409(5) 0.3188(5) 1.3793(5)
C25 C 0.7921(5) 0.3296(5) 0.8652(5)
C26 C 0.8071(5) 0.2615(4) 0.8142(5)
C27 C 0.7704(4) 0.2539(4) 0.7419(4)
H13 H 0.7334 0.2880 0.7219
C28 C 0.7972(5) 0.1879(4) 0.7044(5)
C29 C 0.8527(5) 0.1521(5) 0.7529(5)
C30 C 0.8587(5) 0.1996(5) 0.8234(5)
C31 C 0.8960(6) 0.0863(6) 0.7347(6)
H14 H 0.8859 0.0642 0.6865
C32 C 0.9525(7) 0.0495(7) 0.7794(7)
H15 H 0.9756 0.0066 0.7564
C33 C 0.9792(7) 0.0669(6) 0.8524(7)
H16 H 1.0176 0.0339 0.8714
C34 C 0.9585(7) 0.1241(6) 0.9005(6)
H17 H 0.9821 0.1234 0.9490
C35 C 0.9050(5) 0.1859(5) 0.8868(5)
H18 H 0.9009 0.2220 0.9266
C36 C 0.7699(5) 0.1676(4) 0.6263(5)
C37 C 0.8579(5) 0.5431(4) 0.7645(4)
C38 C 0.9128(5) 0.5280(4) 0.6999(5)
C39 C 0.9842(4) 0.5625(5) 0.6954(4)
H19 H 1.0017 0.6007 0.7294
C40 C 1.0270(5) 0.5342(5) 0.6351(5)
C41 C 0.9818(5) 0.4790(5) 0.5961(5)
C42 C 0.9084(5) 0.4723(5) 0.6403(5)
C43 C 1.0012(6) 0.4336(6) 0.5335(5)
H20 H 1.0495 0.4454 0.5130
C44 C 0.9630(6) 0.3736(6) 0.4946(6)
H21 H 0.9896 0.3505 0.4541
C45 C 0.8886(6) 0.3441(6) 0.5101(6)
H22 H 0.8708 0.3049 0.4776
C46 C 0.8381(6) 0.3671(6) 0.5691(6)
H23 H 0.7918 0.3396 0.5712
C47 C 0.8467(5) 0.4236(5) 0.6237(5)
H24 H 0.8037 0.4306 0.6552
C48 C 1.1047(4) 0.5609(5) 0.6156(5)
C49 C 0.6769(5) 0.3596(5) 1.0839(6)
H25 H 0.7091 0.3331 1.1184
N1 N 0.6130(15) 0.3609(18) 1.1199(17)
C50 C 0.5647(13) 0.4295(11) 1.1090(17)
H26 H 0.5963 0.4720 1.0920
H27 H 0.5406 0.4429 1.1570
H28 H 0.5254 0.4189 1.0708
C51 C 0.5954(13) 0.3111(14) 1.1860(16)
H29 H 0.6371 0.2748 1.1939
H30 H 0.5481 0.2832 1.1759
H31 H 0.5895 0.3424 1.2314
C52 C 0.9022(5) 0.3185(5) 1.1339(5)
H32 H 0.9204 0.3673 1.1483
C53 C 0.9077(5) 0.1796(5) 1.1480(5)
H33 H 0.8799 0.1573 1.1904
H34 H 0.9524 0.1484 1.1371
H35 H 0.8745 0.1815 1.1031
C54 C 0.9876(7) 0.2669(6) 1.2332(6)
H36 H 0.9993 0.3209 1.2407
H37 H 1.0344 0.2391 1.2219
H38 H 0.9650 0.2462 1.2794
C55 C 0.6010(4) 0.5640(5) 0.9161(5)
C56 C 0.5187(4) 0.5823(4) 0.8989(4)
C57 C 0.4839(4) 0.5693(5) 0.8266(4)
H39 H 0.5088 0.5465 0.7849
C58 C 0.4077(4) 0.5946(4) 0.8255(5)
C59 C 0.3580(5) 0.5941(4) 0.7565(5)
C60 C 0.4628(5) 0.6139(5) 0.9486(5)
C61 C 0.4730(6) 0.6329(6) 1.0258(6)
H40 H 0.5226 0.6241 1.0454
C62 C 0.4199(6) 0.6635(8) 1.0795(6)
H41 H 0.4380 0.6677 1.1302
C63 C 0.3427(6) 0.6888(9) 1.0663(6)
H42 H 0.3181 0.7130 1.1074
C64 C 0.3011(6) 0.6814(6) 1.0001(6)
H43 H 0.2497 0.6972 1.0045
C65 C 0.3195(5) 0.6553(6) 0.9273(5)
H44 H 0.2805 0.6589 0.8899
C66 C 0.3906(5) 0.6237(5) 0.9030(5)
C67 C 1.3176(5) 0.4226(5) 0.4999(6)
C68 C 1.3543(5) 0.3505(5) 0.4636(5)
C69 C 1.4242(5) 0.3222(5) 0.4842(5)
H45 H 1.4544 0.3413 0.5248
C70 C 1.4458(5) 0.2600(5) 0.4366(5)
C71 C 1.3876(5) 0.2497(5) 0.3820(6)
C72 C 1.3264(6) 0.3078(5) 0.3994(6)
C73 C 1.3841(6) 0.1934(6) 0.3245(7)
H46 H 1.4272 0.1612 0.3219
C74 C 1.3256(6) 0.1777(6) 0.2696(7)
H47 H 1.3361 0.1376 0.2352
C75 C 1.2536(6) 0.2143(7) 0.2598(7)
H48 H 1.2225 0.1946 0.2201
C76 C 1.2221(7) 0.2758(6) 0.3009(7)
H49 H 1.1729 0.2917 0.2853
C77 C 1.2545(6) 0.3160(6) 0.3616(7)
H50 H 1.2234 0.3555 0.3810
C78 C 1.5190(5) 0.2181(5) 0.4434(5)
C79 C 0.4531(5) 0.5207(6) 0.4259(6)
H51 H 0.4770 0.4796 0.4514
C80 C 0.4927(7) 0.4573(7) 0.3091(7)
H52 H 0.5101 0.4181 0.3447
H53 H 0.5362 0.4768 0.2808
H54 H 0.4555 0.4354 0.2737
C81 C 0.4307(8) 0.5904(8) 0.3091(7)
H55 H 0.3839 0.5786 0.2808
H56 H 0.4703 0.6061 0.2736
H57 H 0.4209 0.6318 0.3449
C82 C 0.4974(5) 0.4420(5) 0.6502(5)
H58 H 0.4487 0.4253 0.6655
C83 C 0.6336(6) 0.4270(7) 0.6588(6)
H59 H 0.6535 0.3965 0.6170
H60 H 0.6661 0.4203 0.7037
H61 H 0.6330 0.4808 0.6442
C84 C 0.5511(7) 0.3309(7) 0.7192(8)
H62 H 0.5791 0.3358 0.7672
H63 H 0.5725 0.2890 0.6897
H64 H 0.4975 0.3206 0.7295
N2 N 0.9325(4) 0.2583(4) 1.1684(4)
N3 N 0.4568(5) 0.5208(5) 0.3519(5)
N4 N 0.5576(4) 0.4027(4) 0.6757(5)
O1 O 0.8002(3) 0.5114(3) 0.9550(3)
O2 O 0.9874(3) 0.5108(3) 0.9192(3)
O3 O 0.9469(3) 0.4347(3) 1.0157(3)
O4 O 1.0988(3) 0.1704(3) 1.0277(3)
O5 O 1.2186(3) 0.1818(3) 0.9807(4)
O6 O 0.8235(3) 0.4754(3) 1.1255(3)
O7 O 0.7234(3) 0.5586(3) 1.1317(3)
O8 O 0.7754(3) 0.2636(3) 1.3413(3)
O9 O 0.7072(3) 0.3088(3) 1.4418(3)
O10 O 0.8370(3) 0.3426(3) 0.9207(3)
O11 O 0.7326(3) 0.3707(3) 0.8460(3)
O12 O 0.7992(3) 0.1089(3) 0.5936(3)
O13 O 0.7177(3) 0.2107(3) 0.5968(3)
O14 O 0.7955(3) 0.5046(3) 0.7693(3)
O15 O 0.8791(3) 0.5928(3) 0.8131(3)
O16 O 1.1347(3) 0.5359(3) 0.5532(4)
O17 O 1.1378(3) 0.6082(3) 0.6617(3)
O18 O 0.7055(3) 0.3969(3) 1.0304(4)
O19 O 0.8513(3) 0.3156(3) 1.0836(4)
O20 O 0.6360(3) 0.5269(3) 0.8637(3)
O21 O 0.6308(3) 0.5861(3) 0.9792(3)
O22 O 0.3772(3) 0.5498(3) 0.7037(3)
O23 O 0.2976(3) 0.6380(3) 0.7558(3)
O24 O 1.2984(3) 0.6203(3) 0.5650(3)
O25 O 1.2629(3) 0.4560(3) 0.4616(4)
O26 O 1.3480(3) 0.4478(3) 0.5615(3)
O27 O 1.5368(3) 0.1655(3) 0.3959(3)
O28 O 1.5630(3) 0.2410(3) 0.4983(3)
O29 O 0.4204(3) 0.5704(4) 0.4672(3)
O30 O 0.5002(3) 0.4999(3) 0.6070(3)
Zn1 Zn 0.88990(5) 0.56809(5) 0.92450(5)
Zn2 Zn 0.82705(6) 0.41445(5) 1.01620(5)
Zn3 Zn 0.73754(5) 0.57579(5) 1.02102(5)
Zn4 Zn 0.73953(5) 0.48201(5) 0.86597(5)
Zn5 Zn 0.39887(5) 0.56340(6) 0.58680(5)
Zn6 Zn 1.24293(5) 0.65183(5) 0.65566(5)
Zn7 Zn 0.67155(5) 0.21087(5) 1.49342(6)
Zn8 Zn 1.23301(5) 0.55540(5) 0.50194(5)
O4A O 0.9012(3) 0.6704(3) 0.9723(3)
O5A O 0.7814(3) 0.6818(3) 1.0193(4)
O8A O 1.2246(3) 0.7636(3) 0.6587(3)
O12A O 1.2008(3) 0.6089(3) 0.4064(3)
O13_2 O 0.7177(3) 0.2107(3) 1.5968(3)
O23_2 O 1.2976(3) 0.6380(3) 0.7558(3)
O24_2 O 0.2984(3) 0.6203(3) 0.5650(3)
O24A O 0.7016(3) 0.1203(3) 1.4350(3)
O26_2 O 0.3480(3) 0.4478(3) 0.5615(3)
O27A O 0.4632(3) 0.6655(3) 0.6041(3)
O28_2 O 0.5630(3) 0.2410(3) 1.4983(3)
Zn1A Zn 1.11010(5) 0.06809(5) 1.07550(5)
Zn3A Zn 1.26246(5) 0.07579(5) 0.97898(5)
Zn5_2 Zn 1.39887(5) 0.56340(6) 0.58680(5)
Zn5A Zn 1.60113(5) 0.06340(6) 0.41320(5)
Zn6A Zn 0.75707(5) 0.15183(5) 1.34434(5)
Zn6_2 Zn 0.24293(5) 0.65183(5) 0.65566(5)
Zn7_2 Zn 0.67155(5) 0.21087(5) 0.49342(6)
Zn7A Zn 1.32845(5) 0.71087(5) 0.50658(6)
Zn7_3 Zn 1.67155(5) 0.21087(5) 0.49342(6)
Zn8A Zn 0.76699(5) 0.05540(5) 0.49806(5)
C85 C 0.9018(11) 0.6824(10) 0.5549(13)
H65 H 0.8524 0.6750 0.5748
C86 C 0.9932(8) 0.6491(9) 0.4478(10)
H66 H 0.9868 0.6860 0.4067
H67 H 1.0076 0.5997 0.4266
H68 H 1.0332 0.6667 0.4827
C87 C 0.8611(12) 0.5966(10) 0.4552(11)
H69 H 0.8381 0.6253 0.4133
H70 H 0.8221 0.5846 0.4927
H71 H 0.8831 0.5493 0.4359
N5 N 0.9194(9) 0.6412(8) 0.4901(8)
O31 O 0.9457(7) 0.7302(7) 0.5915(7)
C88 C 1.0907(9) 0.2138(9) 0.7521(10)
H72 H 1.0588 0.1995 0.7927
C89 C 1.1348(10) 0.2937(9) 0.6539(11)
H73 H 1.1861 0.2855 0.6743
H74 H 1.1297 0.3466 0.6369
H75 H 1.1260 0.2595 0.6109
C90 C 1.0109(8) 0.3228(7) 0.7332(9)
H76 H 0.9738 0.3199 0.6914
H77 H 1.0261 0.3759 0.7410
H78 H 0.9879 0.3031 0.7796
N6 N 1.0770(7) 0.2778(7) 0.7148(8)
O32 O 1.1442(7) 0.1727(6) 0.7349(7)
N7 N 0.5751(10) 0.7953(9) 1.0728(9)
C91 C 0.6183(13) 0.7985(12) 1.0028(10)
H79 H 0.6002 0.8412 0.9719
H80 H 0.6114 0.7510 0.9747
H81 H 0.6723 0.8056 1.0149
C92 C 0.5222(12) 0.8564(11) 1.0916(12)
H82 H 0.4971 0.8446 1.1395
H83 H 0.4839 0.8612 1.0513
H84 H 0.5501 0.9044 1.0967
C93 C 0.5905(10) 0.7367(8) 1.1295(9)
H85 H 0.6218 0.6966 1.1118
O33 O 0.5712(10) 0.7293(9) 1.1946(9)
O34 O 0.5600(12) 0.5725(14) 1.1797(12)
O35 O 0.2788(16) 0.4638(16) 1.1041(16)
O36 O 0.3978(14) 0.4653(13) 1.1372(14)
O37 O 1.3514(15) 0.3250(14) 0.6598(15)
C94? C 0.5509(14) 0.3840(15) 1.0292(17)
C95? C 0.5615(17) 0.3230(17) 1.1600(19)
H86? H 0.4973 0.3784 1.0426
H87? H 0.5614 0.3539 0.9838
H88? H 0.5619 0.4377 1.0191
H89? H 0.5065 0.3310 1.1559
H90? H 0.5809 0.3474 1.2062
H91? H 0.5722 0.2684 1.1620
N8? N 0.5994(16) 0.357(2) 1.0928(19)
loop_
_geom_bond_atom_site_label_1
_geom_bond_atom_site_label_2
_geom_bond_site_symmetry_1
_geom_bond_site_symmetry_2
C1 C2 1_555 1_555
C2 C3 1_555 1_555
C3 H1 1_555 1_555
C4 C3 1_555 1_555
C5 C4 1_555 1_555
C6 C2 1_555 1_555
C7 C5 1_555 1_555
H2 C7 1_555 1_555
C8 C7 1_555 1_555
H3 C8 1_555 1_555
C9 C8 1_555 1_555
H4 C9 1_555 1_555
C10 C9 1_555 1_555
H5 C10 1_555 1_555
C11 C6 1_555 1_555
H6 C11 1_555 1_555
C12 C4 1_555 1_555
C13 C14 1_555 1_555
C14 C15 1_555 1_555
C15 H7 1_555 1_555
C16 C15 1_555 1_555
C17 C16 1_555 1_555
C18 C14 1_555 1_555
C19 C17 1_555 1_555
H8 C19 1_555 1_555
C20 C19 1_555 1_555
H9 C20 1_555 1_555
C21 C20 1_555 1_555
H10 C21 1_555 1_555
C22 C21 1_555 1_555
H11 C22 1_555 1_555
C23 C18 1_555 1_555
H12 C23 1_555 1_555
C24 C16 1_555 1_555
C25 C26 1_555 1_555
C26 C27 1_555 1_555
C27 H13 1_555 1_555
C28 C27 1_555 1_555
C29 C28 1_555 1_555
C30 C26 1_555 1_555
C31 C29 1_555 1_555
H14 C31 1_555 1_555
C32 C31 1_555 1_555
H15 C32 1_555 1_555
C33 C32 1_555 1_555
H16 C33 1_555 1_555
C34 C33 1_555 1_555
H17 C34 1_555 1_555
C35 C30 1_555 1_555
H18 C35 1_555 1_555
C36 C28 1_555 1_555
C37 C38 1_555 1_555
C38 C39 1_555 1_555
C39 H19 1_555 1_555
C40 C39 1_555 1_555
C41 C40 1_555 1_555
C42 C38 1_555 1_555
C43 C41 1_555 1_555
H20 C43 1_555 1_555
C44 C43 1_555 1_555
H21 C44 1_555 1_555
C45 C44 1_555 1_555
H22 C45 1_555 1_555
C46 C45 1_555 1_555
H23 C46 1_555 1_555
C47 C42 1_555 1_555
H24 C47 1_555 1_555
C48 C40 1_555 1_555
C49 H25 1_555 1_555
N1 C49 1_555 1_555
C50 N1 1_555 1_555
H26 C50 1_555 1_555
H27 C50 1_555 1_555
H28 C50 1_555 1_555
C51 N1 1_555 1_555
H29 C51 1_555 1_555
H30 C51 1_555 1_555
H31 C51 1_555 1_555
C52 H32 1_555 1_555
C53 H33 1_555 1_555
H34 C53 1_555 1_555
H35 C53 1_555 1_555
C54 H36 1_555 1_555
H37 C54 1_555 1_555
H38 C54 1_555 1_555
C55 C56 1_555 1_555
C56 C57 1_555 1_555
C57 H39 1_555 1_555
C58 C57 1_555 1_555
C59 C58 1_555 1_555
C60 C56 1_555 1_555
C61 C60 1_555 1_555
H40 C61 1_555 1_555
C62 C61 1_555 1_555
H41 C62 1_555 1_555
C63 C62 1_555 1_555
H42 C63 1_555 1_555
C64 C63 1_555 1_555
H43 C64 1_555 1_555
C65 C64 1_555 1_555
H44 C65 1_555 1_555
C66 C58 1_555 1_555
C67 C68 1_555 1_555
C68 C69 1_555 1_555
C69 H45 1_555 1_555
C70 C69 1_555 1_555
C71 C70 1_555 1_555
C72 C68 1_555 1_555
C73 C71 1_555 1_555
H46 C73 1_555 1_555
C74 C73 1_555 1_555
H47 C74 1_555 1_555
C75 C74 1_555 1_555
H48 C75 1_555 1_555
C76 C75 1_555 1_555
H49 C76 1_555 1_555
C77 C72 1_555 1_555
H50 C77 1_555 1_555
C78 C70 1_555 1_555
C79 H51 1_555 1_555
C80 H52 1_555 1_555
H53 C80 1_555 1_555
H54 C80 1_555 1_555
C81 H55 1_555 1_555
H56 C81 1_555 1_555
H57 C81 1_555 1_555
C82 H58 1_555 1_555
C83 H59 1_555 1_555
H60 C83 1_555 1_555
H61 C83 1_555 1_555
C84 H62 1_555 1_555
H63 C84 1_555 1_555
H64 C84 1_555 1_555
N2 C52 1_555 1_555
N3 C79 1_555 1_555
N4 C82 1_555 1_555
O1 Zn1 1_555 1_555
O2 C1 1_555 1_555
O3 C1 1_555 1_555
O4 C12 1_555 1_555
O5 C12 1_555 1_555
O6 C13 1_555 1_555
O7 C13 1_555 1_555
O8 C24 1_555 1_555
O9 C24 1_555 1_555
O10 C25 1_555 1_555
O11 C25 1_555 1_555
O12 C36 1_555 1_555
O13 C36 1_555 1_555
O14 C37 1_555 1_555
O15 C37 1_555 1_555
O16 C48 1_555 1_555
O17 C48 1_555 1_555
O18 C49 1_555 1_555
O19 C52 1_555 1_555
O20 C55 1_555 1_555
O21 C55 1_555 1_555
O22 C59 1_555 1_555
O23 C59 1_555 1_555
O24 Zn6 1_555 1_555
O25 C67 1_555 1_555
O26 C67 1_555 1_555
O27 C78 1_555 1_555
O28 C78 1_555 1_555
O29 C79 1_555 1_555
O30 C82 1_555 1_555
Zn1 O2 1_555 1_555
Zn2 O1 1_555 1_555
Zn3 O1 1_555 1_555
Zn4 O1 1_555 1_555
Zn5 O22 1_555 1_555
Zn6 O17 1_555 1_555
Zn7 O9 1_555 1_555
Zn8 O16 1_555 1_555
C85 H65 1_555 1_555
C86 H66 1_555 1_555
H67 C86 1_555 1_555
H68 C86 1_555 1_555
C87 H69 1_555 1_555
H70 C87 1_555 1_555
H71 C87 1_555 1_555
N5 C85 1_555 1_555
O31 C85 1_555 1_555
C88 H72 1_555 1_555
C89 H73 1_555 1_555
H74 C89 1_555 1_555
H75 C89 1_555 1_555
C90 H76 1_555 1_555
H77 C90 1_555 1_555
H78 C90 1_555 1_555
N6 C88 1_555 1_555
O32 C88 1_555 1_555
N7 C91 1_555 1_555
C91 H79 1_555 1_555
H80 C91 1_555 1_555
H81 C91 1_555 1_555
C92 N7 1_555 1_555
H82 C92 1_555 1_555
H83 C92 1_555 1_555
H84 C92 1_555 1_555
C93 N7 1_555 1_555
H85 C93 1_555 1_555
O33 C93 1_555 1_555
O4A Zn1 1_555 1_555
O5A Zn3 1_555 1_555
O8A Zn6 1_555 1_555
O12A Zn8 1_555 1_555
O13_2 Zn7 1_555 1_555
O23_2 Zn6 1_555 1_555
O24_2 Zn5 1_555 1_555
O24A Zn7 1_555 1_555
O26_2 Zn5 1_555 1_555
O27A Zn5 1_555 1_555
O28_2 Zn7 1_555 1_555
Zn1A O4 1_555 1_555
Zn3A O5 1_555 1_555
Zn5_2 O24 1_555 1_555
Zn5A O27 1_555 1_555
Zn6A O8 1_555 1_555
Zn6_2 O23 1_555 1_555
Zn7_2 O13 1_555 1_555
Zn7A O24 1_555 1_555
Zn7_3 O28 1_555 1_555
Zn8A O12 1_555 1_555
C5 C6 1_555 1_555
C10 C11 1_555 1_555
C17 C18 1_555 1_555
C22 C23 1_555 1_555
C29 C30 1_555 1_555
C34 C35 1_555 1_555
C41 C42 1_555 1_555
C46 C47 1_555 1_555
C53 N2 1_555 1_555
C54 N2 1_555 1_555
C60 C66 1_555 1_555
C65 C66 1_555 1_555
C71 C72 1_555 1_555
C76 C77 1_555 1_555
C80 N3 1_555 1_555
C81 N3 1_555 1_555
C83 N4 1_555 1_555
C84 N4 1_555 1_555
O3 Zn2 1_555 1_555
O6 Zn2 1_555 1_555
O7 Zn3 1_555 1_555
O10 Zn2 1_555 1_555
O11 Zn4 1_555 1_555
O14 Zn4 1_555 1_555
O15 Zn1 1_555 1_555
O18 Zn2 1_555 1_555
O19 Zn2 1_555 1_555
O20 Zn4 1_555 1_555
O21 Zn3 1_555 1_555
O24 Zn8 1_555 1_555
O25 Zn8 1_555 1_555
O26 Zn5_2 1_555 1_555
O29 Zn5 1_555 1_555
O30 Zn5 1_555 1_555
C86 N5 1_555 1_555
C87 N5 1_555 1_555
C89 N6 1_555 1_555
C90 N6 1_555 1_555
O24_2 Zn6_2 1_555 1_555
O24A Zn6A 1_555 1_555

#END
