
#######################################################################
#
#                 Cambridge Crystallographic Data Centre
#                                CCDC 
#
#######################################################################
#
# If this CIF has been generated from an entry in the Cambridge 
# Structural Database, then it will include bibliographic, chemical, 
# crystal, experimental, refinement or atomic coordinate data resulting 
# from the CCDC's data processing and validation procedures.
#
#######################################################################

data_VEGBUG
_symmetry_cell_setting           cubic
_symmetry_space_group_name_H-M   'F m -3 m'
_symmetry_Int_Tables_number      225
_space_group_name_Hall           '-F 4 2 3'
loop_
_symmetry_equiv_pos_site_id
_symmetry_equiv_pos_as_xyz
1 x,y,z
2 -x,-y,z
3 -x,y,-z
4 x,-y,-z
5 z,x,y
6 z,-x,-y
7 -z,-x,y
8 -z,x,-y
9 y,z,x
10 -y,z,-x
11 y,-z,-x
12 -y,-z,x
13 y,x,-z
14 -y,-x,-z
15 y,-x,z
16 -y,x,z
17 x,z,-y
18 -x,z,y
19 -x,-z,-y
20 x,-z,y
21 z,y,-x
22 z,-y,x
23 -z,y,x
24 -z,-y,-x
25 x,1/2+y,1/2+z
26 -x,1/2-y,1/2+z
27 -x,1/2+y,1/2-z
28 x,1/2-y,1/2-z
29 z,1/2+x,1/2+y
30 z,1/2-x,1/2-y
31 -z,1/2-x,1/2+y
32 -z,1/2+x,1/2-y
33 y,1/2+z,1/2+x
34 -y,1/2+z,1/2-x
35 y,1/2-z,1/2-x
36 -y,1/2-z,1/2+x
37 y,1/2+x,1/2-z
38 -y,1/2-x,1/2-z
39 y,1/2-x,1/2+z
40 -y,1/2+x,1/2+z
41 x,1/2+z,1/2-y
42 -x,1/2+z,1/2+y
43 -x,1/2-z,1/2-y
44 x,1/2-z,1/2+y
45 z,1/2+y,1/2-x
46 z,1/2-y,1/2+x
47 -z,1/2+y,1/2+x
48 -z,1/2-y,1/2-x
49 1/2+x,y,1/2+z
50 1/2-x,-y,1/2+z
51 1/2-x,y,1/2-z
52 1/2+x,-y,1/2-z
53 1/2+z,x,1/2+y
54 1/2+z,-x,1/2-y
55 1/2-z,-x,1/2+y
56 1/2-z,x,1/2-y
57 1/2+y,z,1/2+x
58 1/2-y,z,1/2-x
59 1/2+y,-z,1/2-x
60 1/2-y,-z,1/2+x
61 1/2+y,x,1/2-z
62 1/2-y,-x,1/2-z
63 1/2+y,-x,1/2+z
64 1/2-y,x,1/2+z
65 1/2+x,z,1/2-y
66 1/2-x,z,1/2+y
67 1/2-x,-z,1/2-y
68 1/2+x,-z,1/2+y
69 1/2+z,y,1/2-x
70 1/2+z,-y,1/2+x
71 1/2-z,y,1/2+x
72 1/2-z,-y,1/2-x
73 1/2+x,1/2+y,z
74 1/2-x,1/2-y,z
75 1/2-x,1/2+y,-z
76 1/2+x,1/2-y,-z
77 1/2+z,1/2+x,y
78 1/2+z,1/2-x,-y
79 1/2-z,1/2-x,y
80 1/2-z,1/2+x,-y
81 1/2+y,1/2+z,x
82 1/2-y,1/2+z,-x
83 1/2+y,1/2-z,-x
84 1/2-y,1/2-z,x
85 1/2+y,1/2+x,-z
86 1/2-y,1/2-x,-z
87 1/2+y,1/2-x,z
88 1/2-y,1/2+x,z
89 1/2+x,1/2+z,-y
90 1/2-x,1/2+z,y
91 1/2-x,1/2-z,-y
92 1/2+x,1/2-z,y
93 1/2+z,1/2+y,-x
94 1/2+z,1/2-y,x
95 1/2-z,1/2+y,x
96 1/2-z,1/2-y,-x
97 -x,-y,-z
98 x,y,-z
99 x,-y,z
100 -x,y,z
101 -z,-x,-y
102 -z,x,y
103 z,x,-y
104 z,-x,y
105 -y,-z,-x
106 y,-z,x
107 -y,z,x
108 y,z,-x
109 -y,-x,z
110 y,x,z
111 -y,x,-z
112 y,-x,-z
113 -x,-z,y
114 x,-z,-y
115 x,z,y
116 -x,z,-y
117 -z,-y,x
118 -z,y,-x
119 z,-y,-x
120 z,y,x
121 -x,1/2-y,1/2-z
122 x,1/2+y,1/2-z
123 x,1/2-y,1/2+z
124 -x,1/2+y,1/2+z
125 -z,1/2-x,1/2-y
126 -z,1/2+x,1/2+y
127 z,1/2+x,1/2-y
128 z,1/2-x,1/2+y
129 -y,1/2-z,1/2-x
130 y,1/2-z,1/2+x
131 -y,1/2+z,1/2+x
132 y,1/2+z,1/2-x
133 -y,1/2-x,1/2+z
134 y,1/2+x,1/2+z
135 -y,1/2+x,1/2-z
136 y,1/2-x,1/2-z
137 -x,1/2-z,1/2+y
138 x,1/2-z,1/2-y
139 x,1/2+z,1/2+y
140 -x,1/2+z,1/2-y
141 -z,1/2-y,1/2+x
142 -z,1/2+y,1/2-x
143 z,1/2-y,1/2-x
144 z,1/2+y,1/2+x
145 1/2-x,-y,1/2-z
146 1/2+x,y,1/2-z
147 1/2+x,-y,1/2+z
148 1/2-x,y,1/2+z
149 1/2-z,-x,1/2-y
150 1/2-z,x,1/2+y
151 1/2+z,x,1/2-y
152 1/2+z,-x,1/2+y
153 1/2-y,-z,1/2-x
154 1/2+y,-z,1/2+x
155 1/2-y,z,1/2+x
156 1/2+y,z,1/2-x
157 1/2-y,-x,1/2+z
158 1/2+y,x,1/2+z
159 1/2-y,x,1/2-z
160 1/2+y,-x,1/2-z
161 1/2-x,-z,1/2+y
162 1/2+x,-z,1/2-y
163 1/2+x,z,1/2+y
164 1/2-x,z,1/2-y
165 1/2-z,-y,1/2+x
166 1/2-z,y,1/2-x
167 1/2+z,-y,1/2-x
168 1/2+z,y,1/2+x
169 1/2-x,1/2-y,-z
170 1/2+x,1/2+y,-z
171 1/2+x,1/2-y,z
172 1/2-x,1/2+y,z
173 1/2-z,1/2-x,-y
174 1/2-z,1/2+x,y
175 1/2+z,1/2+x,-y
176 1/2+z,1/2-x,y
177 1/2-y,1/2-z,-x
178 1/2+y,1/2-z,x
179 1/2-y,1/2+z,x
180 1/2+y,1/2+z,-x
181 1/2-y,1/2-x,z
182 1/2+y,1/2+x,z
183 1/2-y,1/2+x,-z
184 1/2+y,1/2-x,-z
185 1/2-x,1/2-z,y
186 1/2+x,1/2-z,-y
187 1/2+x,1/2+z,y
188 1/2-x,1/2+z,-y
189 1/2-z,1/2-y,x
190 1/2-z,1/2+y,-x
191 1/2+z,1/2-y,-x
192 1/2+z,1/2+y,x
_cell_length_a                   49.964(6)
_cell_length_b                   49.964(6)
_cell_length_c                   49.964(6)
_cell_angle_alpha                90
_cell_angle_beta                 90
_cell_angle_gamma                90
_cell_volume                     124730
loop_
_atom_site_label
_atom_site_type_symbol
_atom_site_fract_x
_atom_site_fract_y
_atom_site_fract_z
Zr1 Zr 0.215130(5) 0.5000 0.215130(5)
Zr2 Zr 0.225027(4) 0.464601(6) 0.274973(4)
S1 S 0.08942(5) 0.41058(5) 0.18539(5)
S2 S 0.14130(2) 0.41380(2) 0.25053(2)
O1 O 0.23314(5) 0.46509(9) 0.23314(5)
O2 O 0.18004(3) 0.47321(3) 0.21779(4)
O3 O 0.22713(7) 0.42122(6) 0.27287(7)
O4 O 0.18625(5) 0.45032(5) 0.25609(5)
O5 O 0.25789(6) 0.5000 0.20794(9)
O6 O 0.19427(5) 0.46647(11) 0.30573(5)
C1 C 0.15054(7) 0.43881(7) 0.22825(8)
C2 C 0.13521(9) 0.43954(9) 0.20610(9)
H1 H 0.1377 0.4514 0.1920
C3 C 0.11485(10) 0.41999(10) 0.20716(10)
C4 C 0.17418(6) 0.45547(6) 0.23456(6)
C5 C 0.11563(8) 0.40450(8) 0.22992(9)
Zr1EC Zr 0.0000 0.284870(5) 0.215130(5)
Zr1BA Zr 0.215130(5) 0.715130(5) 0.0000
Zr2U Zr 0.274973(4) 0.535399(6) 0.225027(4)
Zr2XA Zr 0.274973(4) 0.464601(6) 0.225027(4)
Zr2EB Zr 0.035399(6) 0.274973(4) 0.274973(4)
Zr2SB Zr 0.225027(4) 0.535399(6) 0.274973(4)
Zr2NB Zr 0.274973(4) 0.725027(4) 0.035399(6)
S1U S 0.18539(5) 0.58942(5) 0.08942(5)
S2XF S 0.08620(2) 0.35870(2) 0.25053(2)
S2U S 0.25053(2) 0.58620(2) 0.14130(2)
S2VD S 0.25053(2) 0.64130(2) 0.08620(2)
O1U O 0.23314(5) 0.53491(9) 0.23314(5)
O1XA O 0.26686(5) 0.46509(9) 0.26686(5)
O1SB O 0.26686(5) 0.53491(9) 0.26686(5)
O2XF O 0.02679(3) 0.31996(3) 0.21779(4)
O2U O 0.21779(4) 0.52679(3) 0.18004(3)
O2VD O 0.21779(4) 0.68004(3) 0.02679(3)
O2TC O 0.18004(3) 0.52679(3) 0.21779(4)
O2OD O 0.21779(4) 0.47321(3) 0.18004(3)
O3U O 0.27287(7) 0.57878(6) 0.22713(7)
O4XF O 0.04968(5) 0.31375(5) 0.25609(5)
O4U O 0.25609(5) 0.54968(5) 0.18625(5)
O4VD O 0.25609(5) 0.68625(5) 0.04968(5)
O4IF O 0.24391(5) 0.45032(5) 0.31375(5)
O4NE O 0.31375(5) 0.54968(5) 0.24391(5)
O5U O 0.20794(9) 0.5000 0.25789(6)
O5XA O 0.24211(6) 0.5000 0.29206(9)
O5SB O 0.29206(9) 0.5000 0.24211(6)
O6U O 0.30573(5) 0.53353(11) 0.19427(5)
C1XF C 0.06119(7) 0.34946(7) 0.22825(8)
C1U C 0.22825(8) 0.56119(7) 0.15054(7)
C1VD C 0.22825(8) 0.65054(7) 0.06119(7)
C2XF C 0.06046(9) 0.36479(9) 0.20610(9)
C2U C 0.20610(9) 0.56046(9) 0.13521(9)
C2VD C 0.20610(9) 0.63521(9) 0.06046(9)
H1XF H 0.0486 0.3623 0.1920
H1U H 0.1920 0.5486 0.1377
H1VD H 0.1920 0.6377 0.0486
C3XF C 0.08001(10) 0.38515(10) 0.20716(10)
C3U C 0.20716(10) 0.58001(10) 0.11485(10)
C3VD C 0.20716(10) 0.61485(10) 0.08001(10)
C4XF C 0.04453(6) 0.32582(6) 0.23456(6)
C4U C 0.23456(6) 0.54453(6) 0.17418(6)
C4VD C 0.23456(6) 0.67418(6) 0.04453(6)
C5XF C 0.09550(8) 0.38437(8) 0.22992(9)
C5U C 0.22992(9) 0.59550(8) 0.11563(8)
C5VD C 0.22992(9) 0.61563(8) 0.09550(8)
loop_
_geom_bond_atom_site_label_1
_geom_bond_atom_site_label_2
_geom_bond_site_symmetry_1
_geom_bond_site_symmetry_2
Zr1 O1 1_555 1_555
Zr2 O1 1_555 1_555
S1 C3 1_555 1_555
S2 C1 1_555 1_555
O1 Zr2XA 1_555 1_555
O2 Zr1 1_555 1_555
O3 Zr2 1_555 1_555
O4 Zr2 1_555 1_555
O5 Zr1 1_555 1_555
O6 Zr2 1_555 1_555
C1 C2 1_555 1_555
C2 H1 1_555 1_555
C3 C2 1_555 1_555
C4 O2 1_555 1_555
C5 S2 1_555 1_555
Zr1EC O2XF 1_555 1_555
Zr1BA O2VD 1_555 1_555
Zr2U O5 1_555 1_555
Zr2XA O5 1_555 1_555
Zr2EB O4XF 1_555 1_555
Zr2SB O1U 1_555 1_555
Zr2NB O4VD 1_555 1_555
S1U C3U 1_555 1_555
S2XF C1XF 1_555 1_555
S2U C1U 1_555 1_555
S2VD C1VD 1_555 1_555
O1U Zr1 1_555 1_555
O1XA Zr2 1_555 1_555
O1SB Zr2U 1_555 1_555
O2XF C4XF 1_555 1_555
O2U Zr1 1_555 1_555
O2VD C4VD 1_555 1_555
O2TC Zr1 1_555 1_555
O2OD Zr1 1_555 1_555
O3U Zr2U 1_555 1_555
O4XF C4XF 1_555 1_555
O4U Zr2U 1_555 1_555
O4VD C4VD 1_555 1_555
O4IF Zr2 1_555 1_555
O4NE Zr2U 1_555 1_555
O5U Zr1 1_555 1_555
O5XA Zr2 1_555 1_555
O5SB Zr2U 1_555 1_555
O6U Zr2U 1_555 1_555
C1XF C2XF 1_555 1_555
C1U C2U 1_555 1_555
C1VD C2VD 1_555 1_555
C2XF H1XF 1_555 1_555
C2U H1U 1_555 1_555
C2VD H1VD 1_555 1_555
C3XF S1 1_555 1_555
C3U C2U 1_555 1_555
C3VD S1U 1_555 1_555
C4XF C1XF 1_555 1_555
C4U O2U 1_555 1_555
C4VD C1VD 1_555 1_555
C5XF C5 1_555 1_555
C5U S2U 1_555 1_555
C5VD S2VD 1_555 1_555
Zr2 O5U 1_555 1_555
O4 C4 1_555 1_555
C1 C4 1_555 1_555
C3 C5 1_555 1_555
Zr2U O1U 1_555 1_555
Zr2XA O1XA 1_555 1_555
Zr2XA O5SB 1_555 1_555
Zr2SB O1SB 1_555 1_555
Zr2SB O5U 1_555 1_555
Zr2SB O5XA 1_555 1_555
S2XF C5XF 1_555 1_555
O4U C4U 1_555 1_555
C1U C4U 1_555 1_555
C2XF C3XF 1_555 1_555
C2VD C3VD 1_555 1_555
C3XF C5XF 1_555 1_555
C3U C5U 1_555 1_555
C3VD C5VD 1_555 1_555
C5U C5VD 1_555 1_555

#END
