
#######################################################################
#
#                 Cambridge Crystallographic Data Centre
#                                CCDC 
#
#######################################################################
#
# If this CIF has been generated from an entry in the Cambridge 
# Structural Database, then it will include bibliographic, chemical, 
# crystal, experimental, refinement or atomic coordinate data resulting 
# from the CCDC's data processing and validation procedures.
#
#######################################################################

data_VEJHEZ
_symmetry_cell_setting           cubic
_symmetry_space_group_name_H-M   'I a -3'
_symmetry_Int_Tables_number      206
_space_group_name_Hall           '-I 2b 2c 3'
loop_
_symmetry_equiv_pos_site_id
_symmetry_equiv_pos_as_xyz
1 x,y,z
2 1/2-x,-y,1/2+z
3 -x,1/2+y,1/2-z
4 1/2+x,1/2-y,-z
5 z,x,y
6 1/2+z,1/2-x,-y
7 1/2-z,-x,1/2+y
8 -z,1/2+x,1/2-y
9 y,z,x
10 -y,1/2+z,1/2-x
11 1/2+y,1/2-z,-x
12 1/2-y,-z,1/2+x
13 1/2+x,1/2+y,1/2+z
14 -x,1/2-y,z
15 1/2-x,y,-z
16 x,-y,1/2-z
17 1/2+z,1/2+x,1/2+y
18 z,-x,1/2-y
19 -z,1/2-x,y
20 1/2-z,x,-y
21 1/2+y,1/2+z,1/2+x
22 1/2-y,z,-x
23 y,-z,1/2-x
24 -y,1/2-z,x
25 -x,-y,-z
26 1/2+x,y,1/2-z
27 x,1/2-y,1/2+z
28 1/2-x,1/2+y,z
29 -z,-x,-y
30 1/2-z,1/2+x,y
31 1/2+z,x,1/2-y
32 z,1/2-x,1/2+y
33 -y,-z,-x
34 y,1/2-z,1/2+x
35 1/2-y,1/2+z,x
36 1/2+y,z,1/2-x
37 1/2-x,1/2-y,1/2-z
38 x,1/2+y,-z
39 1/2+x,-y,z
40 -x,y,1/2+z
41 1/2-z,1/2-x,1/2-y
42 -z,x,1/2+y
43 z,1/2+x,-y
44 1/2+z,-x,y
45 1/2-y,1/2-z,1/2-x
46 1/2+y,-z,x
47 -y,z,1/2+x
48 y,1/2+z,-x
_cell_length_a                   43.030(2)
_cell_length_b                   43.030(2)
_cell_length_c                   43.030(2)
_cell_angle_alpha                90
_cell_angle_beta                 90
_cell_angle_gamma                90
_cell_volume                     79673.5
loop_
_atom_site_label
_atom_site_type_symbol
_atom_site_fract_x
_atom_site_fract_y
_atom_site_fract_z
Zn1 Zn 0.5000 0.2500 0.00881(5)
Zn2 Zn 0.32969(4) 0.32743(4) 0.18250(4)
Zn3 Zn 0.36705(7) 0.12169(7) 0.12703(7)
Zn4 Zn 0.33307(5) 0.16693(5) -0.16693(5)
Zn5 Zn 0.38101(9) 0.11899(9) -0.11899(9)
C1 C 0.3827(3) 0.2204(3) 0.1193(3)
C2 C 0.3734(3) 0.2487(3) 0.1312(3)
H1 H 0.3570 0.2487 0.1460
C3 C 0.4086(3) 0.2763(3) 0.1004(3)
H2 H 0.4170 0.2953 0.0928
C4 C 0.4181(3) 0.2492(4) 0.0899(3)
C5 C 0.4070(3) 0.2203(3) 0.0983(3)
H3 H 0.4154 0.2016 0.0901
C6 C 0.4437(3) 0.2490(4) 0.0659(3)
C7 C 0.4747(3) 0.2459(4) 0.0749(3)
C8 C 0.3655(3) 0.1911(3) 0.1274(4)
C9 C 0.4340(3) 0.2461(3) 0.0349(3)
C10 C 0.4018(3) 0.2474(4) -0.0082(3)
H4 H 0.3844 0.2484 -0.0218
C11 C 0.4347(3) 0.2471(3) -0.0170(3)
C12 C 0.4444(4) 0.2470(3) -0.0474(3)
C13 C 0.4745(3) 0.2476(4) -0.0565(3)
C14 C 0.4112(3) 0.2180(3) -0.0829(3)
H5 H 0.4203 0.1998 -0.0744
C15 C 0.4841(2) 0.2469(3) 0.1078(3)
H6 H 0.4712 0.2440 0.1254
C16 C 0.4010(3) 0.2459(3) 0.0249(3)
H7 H 0.3832 0.2449 0.0378
C17 C 0.4193(2) 0.2468(4) -0.0713(3)
C18 C 0.4844(2) 0.2486(4) -0.0922(4)
H8 H 0.4711 0.2475 -0.1098
C19 C 0.4070(3) 0.2735(3) -0.0838(3)
H9 H 0.4132 0.2933 -0.0764
C20 C 0.3902(4) 0.2157(3) -0.1065(4)
C21 C 0.3761(3) 0.2420(3) -0.1188(3)
H10 H 0.3605 0.2403 -0.1343
C22 C 0.3854(4) 0.2709(3) -0.1076(3)
C23 C 0.3855(3) 0.2760(3) 0.1234(3)
C24 C 0.3755(3) 0.3061(4) 0.1376(3)
C25 C 0.3730(4) 0.3000(4) -0.1226(4)
C26 C 0.3820(4) 0.1848(4) -0.1210(4)
N1 N 0.5000 0.2500 0.0561(3)
N2 N 0.4533(2) 0.2469(2) 0.0096(2)
N3 N 0.5000 0.2500 -0.0379(3)
O1 O 0.3534(3) 0.3047(3) 0.1574(3)
O2 O 0.3529(4) 0.2964(4) -0.1425(4)
O3 O 0.3771(3) 0.1662(3) 0.1182(3)
O4 O 0.3829(4) 0.3251(3) -0.1138(4)
O5 O 0.3889(3) 0.3297(3) 0.1285(3)
O6 O 0.3904(5) 0.1606(3) -0.1078(4)
O7 O 0.3418(3) 0.1932(3) 0.1444(3)
O8 O 0.3676(5) 0.1875(5) -0.1465(4)
O9 O 0.4133(5) 0.0867(5) -0.0867(5)
Zn1E Zn 0.50881(5) 0.0000 -0.2500
Zn1K Zn 0.2500 -0.00881(5) 0.0000
Zn2M Zn 0.67031(4) 0.17257(4) 0.18250(4)
Zn2E Zn 0.68250(4) 0.17031(4) -0.32743(4)
Zn2P Zn 0.68250(4) -0.17031(4) -0.17257(4)
Zn2K Zn 0.17257(4) -0.18250(4) -0.17031(4)
Zn2V Zn 0.32743(4) -0.18250(4) 0.17031(4)
Zn2GA Zn 0.32743(4) 0.31750(4) -0.17031(4)
Zn2NA Zn 0.31750(4) 0.17031(4) 0.17257(4)
Zn2DA Zn 0.68250(4) 0.32969(4) 0.17257(4)
Zn2TA Zn 0.67257(4) 0.18250(4) -0.17031(4)
Zn2Z Zn 0.32969(4) 0.17257(4) -0.31750(4)
Zn2FA Zn 0.67257(4) -0.18250(4) -0.32969(4)
Zn2KA Zn 0.32969(4) -0.17257(4) -0.18250(4)
Zn2EA Zn 0.18250(4) 0.17031(4) -0.17257(4)
Zn2AA Zn 0.17031(4) -0.17257(4) 0.18250(4)
Zn3M Zn 0.63295(7) 0.37831(7) 0.12703(7)
Zn3E Zn 0.62703(7) 0.13295(7) -0.12169(7)
Zn3P Zn 0.62703(7) -0.13295(7) -0.37831(7)
Zn3K Zn 0.37831(7) -0.12703(7) -0.13295(7)
Zn3V Zn 0.12169(7) -0.12703(7) 0.13295(7)
Zn3S Zn 0.37297(7) 0.36705(7) -0.12169(7)
Zn3RA Zn 0.37831(7) 0.37297(7) 0.13295(7)
Zn3IA Zn 0.62169(7) 0.12703(7) 0.13295(7)
Zn3U Zn 0.37831(7) 0.12703(7) -0.36705(7)
Zn3MA Zn 0.63295(7) 0.12169(7) -0.37297(7)
Zn3X Zn 0.63295(7) -0.12169(7) -0.12703(7)
Zn3N Zn 0.13295(7) 0.12169(7) -0.12703(7)
Zn3PA Zn 0.12703(7) -0.13295(7) -0.12169(7)
Zn3CA Zn 0.37297(7) -0.13295(7) 0.12169(7)
Zn4M Zn 0.66693(5) 0.33307(5) -0.16693(5)
Zn4O Zn 0.33307(5) -0.16693(5) -0.33307(5)
Zn4N Zn 0.16693(5) 0.16693(5) 0.16693(5)
Zn5M Zn 0.61899(9) 0.38101(9) -0.11899(9)
Zn5O Zn 0.38101(9) -0.11899(9) -0.38101(9)
Zn5N Zn 0.11899(9) 0.11899(9) 0.11899(9)
C1M C 0.6173(3) 0.2796(3) 0.1193(3)
C1E C 0.6193(3) 0.1173(3) -0.2204(3)
C1P C 0.6193(3) -0.1173(3) -0.2796(3)
C1K C 0.2796(3) -0.1193(3) -0.1173(3)
C1V C 0.2204(3) -0.1193(3) 0.1173(3)
C2M C 0.6266(3) 0.2513(3) 0.1312(3)
C2E C 0.6312(3) 0.1266(3) -0.2487(3)
C2P C 0.6312(3) -0.1266(3) -0.2513(3)
C2K C 0.2513(3) -0.1312(3) -0.1266(3)
C2V C 0.2487(3) -0.1312(3) 0.1266(3)
H1M H 0.6430 0.2513 0.1460
H1E H 0.6460 0.1430 -0.2487
H1P H 0.6460 -0.1430 -0.2513
H1K H 0.2513 -0.1460 -0.1430
H1V H 0.2487 -0.1460 0.1430
C3M C 0.5914(3) 0.2237(3) 0.1004(3)
C3E C 0.6004(3) 0.0914(3) -0.2763(3)
C3P C 0.6004(3) -0.0914(3) -0.2237(3)
C3K C 0.2237(3) -0.1004(3) -0.0914(3)
C3V C 0.2763(3) -0.1004(3) 0.0914(3)
H2M H 0.5830 0.2047 0.0928
H2E H 0.5928 0.0830 -0.2953
H2P H 0.5928 -0.0830 -0.2047
H2K H 0.2047 -0.0928 -0.0830
H2V H 0.2953 -0.0928 0.0830
C4M C 0.5819(3) 0.2508(4) 0.0899(3)
C4E C 0.5899(3) 0.0819(3) -0.2492(4)
C4P C 0.5899(3) -0.0819(3) -0.2508(4)
C4K C 0.2508(4) -0.0899(3) -0.0819(3)
C4V C 0.2492(4) -0.0899(3) 0.0819(3)
C5M C 0.5930(3) 0.2797(3) 0.0983(3)
C5E C 0.5983(3) 0.0930(3) -0.2203(3)
C5P C 0.5983(3) -0.0930(3) -0.2797(3)
C5K C 0.2797(3) -0.0983(3) -0.0930(3)
C5V C 0.2203(3) -0.0983(3) 0.0930(3)
H3M H 0.5846 0.2984 0.0901
H3E H 0.5901 0.0846 -0.2016
H3P H 0.5901 -0.0846 -0.2984
H3K H 0.2984 -0.0901 -0.0846
H3V H 0.2016 -0.0901 0.0846
C6M C 0.5563(3) 0.2510(4) 0.0659(3)
C6E C 0.5659(3) 0.0563(3) -0.2490(4)
C6P C 0.5659(3) -0.0563(3) -0.2510(4)
C6K C 0.2510(4) -0.0659(3) -0.0563(3)
C6V C 0.2490(4) -0.0659(3) 0.0563(3)
C7M C 0.5253(3) 0.2541(4) 0.0749(3)
C7E C 0.5749(3) 0.0253(3) -0.2459(4)
C7P C 0.5749(3) -0.0253(3) -0.2541(4)
C7K C 0.2541(4) -0.0749(3) -0.0253(3)
C7V C 0.2459(4) -0.0749(3) 0.0253(3)
C8M C 0.6345(3) 0.3089(3) 0.1274(4)
C8E C 0.6274(4) 0.1345(3) -0.1911(3)
C8P C 0.6274(4) -0.1345(3) -0.3089(3)
C8K C 0.3089(3) -0.1274(4) -0.1345(3)
C8V C 0.1911(3) -0.1274(4) 0.1345(3)
C9M C 0.5660(3) 0.2539(3) 0.0349(3)
C9E C 0.5349(3) 0.0660(3) -0.2461(3)
C9P C 0.5349(3) -0.0660(3) -0.2539(3)
C9K C 0.2539(3) -0.0349(3) -0.0660(3)
C9V C 0.2461(3) -0.0349(3) 0.0660(3)
C10M C 0.5982(3) 0.2526(4) -0.0082(3)
C10E C 0.4918(3) 0.0982(3) -0.2474(4)
C10P C 0.4918(3) -0.0982(3) -0.2526(4)
C10K C 0.2526(4) 0.0082(3) -0.0982(3)
C10V C 0.2474(4) 0.0082(3) 0.0982(3)
H4M H 0.6156 0.2516 -0.0218
H4E H 0.4782 0.1156 -0.2484
H4P H 0.4782 -0.1156 -0.2516
H4K H 0.2516 0.0218 -0.1156
H4V H 0.2484 0.0218 0.1156
C11M C 0.5653(3) 0.2529(3) -0.0170(3)
C11E C 0.4830(3) 0.0653(3) -0.2471(3)
C11P C 0.4830(3) -0.0653(3) -0.2529(3)
C11K C 0.2529(3) 0.0170(3) -0.0653(3)
C11V C 0.2471(3) 0.0170(3) 0.0653(3)
C12M C 0.5556(4) 0.2530(3) -0.0474(3)
C12E C 0.4526(3) 0.0556(4) -0.2470(3)
C12P C 0.4526(3) -0.0556(4) -0.2530(3)
C12K C 0.2530(3) 0.0474(3) -0.0556(4)
C12V C 0.2470(3) 0.0474(3) 0.0556(4)
C13M C 0.5255(3) 0.2524(4) -0.0565(3)
C13E C 0.4435(3) 0.0255(3) -0.2476(4)
C13P C 0.4435(3) -0.0255(3) -0.2524(4)
C13K C 0.2524(4) 0.0565(3) -0.0255(3)
C13V C 0.2476(4) 0.0565(3) 0.0255(3)
C14M C 0.5888(3) 0.2820(3) -0.0829(3)
C14E C 0.4171(3) 0.0888(3) -0.2180(3)
C14P C 0.4171(3) -0.0888(3) -0.2820(3)
C14K C 0.2820(3) 0.0829(3) -0.0888(3)
C14V C 0.2180(3) 0.0829(3) 0.0888(3)
H5M H 0.5797 0.3002 -0.0744
H5E H 0.4256 0.0797 -0.1998
H5P H 0.4256 -0.0797 -0.3002
H5K H 0.3002 0.0744 -0.0797
H5V H 0.1998 0.0744 0.0797
C15M C 0.5159(2) 0.2531(3) 0.1078(3)
C15E C 0.6078(3) 0.0159(2) -0.2469(3)
C15P C 0.6078(3) -0.0159(2) -0.2531(3)
C15K C 0.2531(3) -0.1078(3) -0.0159(2)
C15V C 0.2469(3) -0.1078(3) 0.0159(2)
H6M H 0.5288 0.2560 0.1254
H6E H 0.6254 0.0288 -0.2440
H6P H 0.6254 -0.0288 -0.2560
H6K H 0.2560 -0.1254 -0.0288
H6V H 0.2440 -0.1254 0.0288
C16M C 0.5990(3) 0.2541(3) 0.0249(3)
C16E C 0.5249(3) 0.0990(3) -0.2459(3)
C16P C 0.5249(3) -0.0990(3) -0.2541(3)
C16K C 0.2541(3) -0.0249(3) -0.0990(3)
C16V C 0.2459(3) -0.0249(3) 0.0990(3)
H7M H 0.6168 0.2551 0.0378
H7E H 0.5378 0.1168 -0.2449
H7P H 0.5378 -0.1168 -0.2551
H7K H 0.2551 -0.0378 -0.1168
H7V H 0.2449 -0.0378 0.1168
C17M C 0.5807(2) 0.2532(4) -0.0713(3)
C17E C 0.4287(3) 0.0807(2) -0.2468(4)
C17P C 0.4287(3) -0.0807(2) -0.2532(4)
C17K C 0.2532(4) 0.0713(3) -0.0807(2)
C17V C 0.2468(4) 0.0713(3) 0.0807(2)
C18M C 0.5156(2) 0.2514(4) -0.0922(4)
C18E C 0.4078(4) 0.0156(2) -0.2486(4)
C18P C 0.4078(4) -0.0156(2) -0.2514(4)
C18K C 0.2514(4) 0.0922(4) -0.0156(2)
C18V C 0.2486(4) 0.0922(4) 0.0156(2)
H8M H 0.5289 0.2525 -0.1098
H8E H 0.3902 0.0289 -0.2475
H8P H 0.3902 -0.0289 -0.2525
H8K H 0.2525 0.1098 -0.0289
H8V H 0.2475 0.1098 0.0289
C19M C 0.5930(3) 0.2265(3) -0.0838(3)
C19E C 0.4162(3) 0.0930(3) -0.2735(3)
C19P C 0.4162(3) -0.0930(3) -0.2265(3)
C19K C 0.2265(3) 0.0838(3) -0.0930(3)
C19V C 0.2735(3) 0.0838(3) 0.0930(3)
H9M H 0.5868 0.2067 -0.0764
H9E H 0.4236 0.0868 -0.2933
H9P H 0.4236 -0.0868 -0.2067
H9K H 0.2067 0.0764 -0.0868
H9V H 0.2933 0.0764 0.0868
C20M C 0.6098(4) 0.2843(3) -0.1065(4)
C20E C 0.3935(4) 0.1098(4) -0.2157(3)
C20P C 0.3935(4) -0.1098(4) -0.2843(3)
C20K C 0.2843(3) 0.1065(4) -0.1098(4)
C20V C 0.2157(3) 0.1065(4) 0.1098(4)
C21M C 0.6239(3) 0.2580(3) -0.1188(3)
C21E C 0.3812(3) 0.1239(3) -0.2420(3)
C21P C 0.3812(3) -0.1239(3) -0.2580(3)
C21K C 0.2580(3) 0.1188(3) -0.1239(3)
C21V C 0.2420(3) 0.1188(3) 0.1239(3)
H10M H 0.6395 0.2597 -0.1343
H10E H 0.3657 0.1395 -0.2403
H10P H 0.3657 -0.1395 -0.2597
H10K H 0.2597 0.1343 -0.1395
H10V H 0.2403 0.1343 0.1395
C22M C 0.6146(4) 0.2291(3) -0.1076(3)
C22E C 0.3924(3) 0.1146(4) -0.2709(3)
C22P C 0.3924(3) -0.1146(4) -0.2291(3)
C22K C 0.2291(3) 0.1076(3) -0.1146(4)
C22V C 0.2709(3) 0.1076(3) 0.1146(4)
C23M C 0.6145(3) 0.2240(3) 0.1234(3)
C23E C 0.6234(3) 0.1145(3) -0.2760(3)
C23P C 0.6234(3) -0.1145(3) -0.2240(3)
C23K C 0.2240(3) -0.1234(3) -0.1145(3)
C23V C 0.2760(3) -0.1234(3) 0.1145(3)
C24M C 0.6245(3) 0.1939(4) 0.1376(3)
C24E C 0.6376(3) 0.1245(3) -0.3061(4)
C24P C 0.6376(3) -0.1245(3) -0.1939(4)
C24K C 0.1939(4) -0.1376(3) -0.1245(3)
C24V C 0.3061(4) -0.1376(3) 0.1245(3)
C25M C 0.6270(4) 0.2000(4) -0.1226(4)
C25E C 0.3774(4) 0.1270(4) -0.3000(4)
C25P C 0.3774(4) -0.1270(4) -0.2000(4)
C25K C 0.2000(4) 0.1226(4) -0.1270(4)
C25V C 0.3000(4) 0.1226(4) 0.1270(4)
C26M C 0.6180(4) 0.3152(4) -0.1210(4)
C26E C 0.3790(4) 0.1180(4) -0.1848(4)
C26P C 0.3790(4) -0.1180(4) -0.3152(4)
C26K C 0.3152(4) 0.1210(4) -0.1180(4)
C26V C 0.1848(4) 0.1210(4) 0.1180(4)
N1E N 0.5561(3) 0.0000 -0.2500
N1K N 0.2500 -0.0561(3) 0.0000
N2M N 0.5467(2) 0.2531(2) 0.0096(2)
N2E N 0.5096(2) 0.0467(2) -0.2469(2)
N2P N 0.5096(2) -0.0467(2) -0.2531(2)
N2K N 0.2531(2) -0.0096(2) -0.0467(2)
N2V N 0.2469(2) -0.0096(2) 0.0467(2)
N3E N 0.4621(3) 0.0000 -0.2500
N3K N 0.2500 0.0379(3) 0.0000
O1M O 0.6466(3) 0.1953(3) 0.1574(3)
O1E O 0.6574(3) 0.1466(3) -0.3047(3)
O1P O 0.6574(3) -0.1466(3) -0.1953(3)
O1K O 0.1953(3) -0.1574(3) -0.1466(3)
O1V O 0.3047(3) -0.1574(3) 0.1466(3)
O2M O 0.6471(4) 0.2036(4) -0.1425(4)
O2E O 0.3575(4) 0.1471(4) -0.2964(4)
O2P O 0.3575(4) -0.1471(4) -0.2036(4)
O2K O 0.2036(4) 0.1425(4) -0.1471(4)
O2V O 0.2964(4) 0.1425(4) 0.1471(4)
O2DA O 0.3575(4) 0.3529(4) 0.2036(4)
O2NA O 0.6425(4) 0.1471(4) 0.2036(4)
O2FA O 0.7036(4) 0.1425(4) -0.3529(4)
O2TA O 0.7036(4) -0.1425(4) -0.1471(4)
O2AA O 0.1471(4) -0.2036(4) -0.1425(4)
O2KA O 0.3529(4) -0.2036(4) 0.1425(4)
O3M O 0.6229(3) 0.3338(3) 0.1182(3)
O3E O 0.6182(3) 0.1229(3) -0.1662(3)
O3P O 0.6182(3) -0.1229(3) -0.3338(3)
O3K O 0.3338(3) -0.1182(3) -0.1229(3)
O3V O 0.1662(3) -0.1182(3) 0.1229(3)
O4M O 0.6171(4) 0.1749(3) -0.1138(4)
O4E O 0.3862(4) 0.1171(4) -0.3251(3)
O4P O 0.3862(4) -0.1171(4) -0.1749(3)
O4K O 0.1749(3) 0.1138(4) -0.1171(4)
O4V O 0.3251(3) 0.1138(4) 0.1171(4)
O4I O 0.6749(3) 0.3862(4) 0.1171(4)
O4B O 0.6171(4) -0.1749(3) -0.3862(4)
O4G O 0.1138(4) -0.1171(4) 0.1749(3)
O5M O 0.6111(3) 0.1703(3) 0.1285(3)
O5E O 0.6285(3) 0.1111(3) -0.3297(3)
O5P O 0.6285(3) -0.1111(3) -0.1703(3)
O5K O 0.1703(3) -0.1285(3) -0.1111(3)
O5V O 0.3297(3) -0.1285(3) 0.1111(3)
O5NA O 0.3715(3) 0.1111(3) 0.1703(3)
O5DA O 0.6285(3) 0.3889(3) 0.1703(3)
O5TA O 0.6703(3) 0.1285(3) -0.1111(3)
O5FA O 0.6703(3) -0.1285(3) -0.3889(3)
O5KA O 0.3889(3) -0.1703(3) -0.1285(3)
O5AA O 0.1111(3) -0.1703(3) 0.1285(3)
O6M O 0.6096(5) 0.3394(3) -0.1078(4)
O6E O 0.3922(4) 0.1096(5) -0.1606(3)
O6P O 0.3922(4) -0.1096(5) -0.3394(3)
O6K O 0.3394(3) 0.1078(4) -0.1096(5)
O6V O 0.1606(3) 0.1078(4) 0.1096(5)
O6S O 0.6078(4) 0.3904(5) -0.1606(3)
O6T O 0.6606(3) 0.3922(4) -0.1096(5)
O7M O 0.6582(3) 0.3068(3) 0.1444(3)
O7E O 0.6444(3) 0.1582(3) -0.1932(3)
O7P O 0.6444(3) -0.1582(3) -0.3068(3)
O7K O 0.3068(3) -0.1444(3) -0.1582(3)
O7V O 0.1932(3) -0.1444(3) 0.1582(3)
O7RA O 0.3068(3) 0.3556(3) 0.1582(3)
O7IA O 0.6932(3) 0.1444(3) 0.1582(3)
O7MA O 0.6582(3) 0.1932(3) -0.3556(3)
O7X O 0.6582(3) -0.1932(3) -0.1444(3)
O7PA O 0.1444(3) -0.1582(3) -0.1932(3)
O7CA O 0.3556(3) -0.1582(3) 0.1932(3)
O8M O 0.6324(5) 0.3125(5) -0.1465(4)
O8E O 0.3535(4) 0.1324(5) -0.1875(5)
O8P O 0.3535(4) -0.1324(5) -0.3125(5)
O8K O 0.3125(5) 0.1465(4) -0.1324(5)
O8V O 0.1875(5) 0.1465(4) 0.1324(5)
O8S O 0.6465(4) 0.3676(5) -0.1875(5)
O8T O 0.6875(5) 0.3535(4) -0.1324(5)
O9M O 0.5867(5) 0.4133(5) -0.0867(5)
loop_
_geom_bond_atom_site_label_1
_geom_bond_atom_site_label_2
_geom_bond_site_symmetry_1
_geom_bond_site_symmetry_2
Zn1 N1 1_555 1_555
Zn2 O1 1_555 1_555
Zn3 O3 1_555 1_555
Zn4 O8 1_555 1_555
Zn5 O6 1_555 1_555
C1 C2 1_555 1_555
C2 H1 1_555 1_555
C3 H2 1_555 1_555
C4 C3 1_555 1_555
C5 C1 1_555 1_555
H3 C5 1_555 1_555
C6 C4 1_555 1_555
C7 C6 1_555 1_555
C8 C1 1_555 1_555
C9 C6 1_555 1_555
C10 H4 1_555 1_555
C11 C10 1_555 1_555
C12 C11 1_555 1_555
C13 C12 1_555 1_555
C14 H5 1_555 1_555
C15 C7 1_555 1_555
H6 C15 1_555 1_555
C16 C9 1_555 1_555
H7 C16 1_555 1_555
C17 C12 1_555 1_555
C18 C13 1_555 1_555
H8 C18 1_555 1_555
C19 C17 1_555 1_555
H9 C19 1_555 1_555
C20 C14 1_555 1_555
C21 C20 1_555 1_555
H10 C21 1_555 1_555
C22 C19 1_555 1_555
C23 C2 1_555 1_555
C24 C23 1_555 1_555
C25 C22 1_555 1_555
C26 C20 1_555 1_555
N1 C7 1_555 1_555
N2 Zn1 1_555 1_555
N3 Zn1 1_555 1_555
O1 C24 1_555 1_555
O2 C25 1_555 1_555
O3 C8 1_555 1_555
O4 C25 1_555 1_555
O5 C24 1_555 1_555
O6 C26 1_555 1_555
O7 C8 1_555 1_555
O8 C26 1_555 1_555
O9 Zn5 1_555 1_555
Zn1E N1E 1_555 1_555
Zn1K N1K 1_555 1_555
Zn2M O1M 1_555 1_555
Zn2E O1E 1_555 1_555
Zn2P O1P 1_555 1_555
Zn2K O1K 1_555 1_555
Zn2V O1V 1_555 1_555
Zn2GA O2 1_555 1_555
Zn2NA O7 1_555 1_555
Zn2DA O7M 1_555 1_555
Zn2TA O2M 1_555 1_555
Zn2Z O2E 1_555 1_555
Zn2FA O7P 1_555 1_555
Zn2KA O2P 1_555 1_555
Zn2EA O2K 1_555 1_555
Zn2AA O7V 1_555 1_555
Zn3M O3M 1_555 1_555
Zn3E O3E 1_555 1_555
Zn3P O3P 1_555 1_555
Zn3K O3K 1_555 1_555
Zn3V O3V 1_555 1_555
Zn3S O4 1_555 1_555
Zn3RA O5 1_555 1_555
Zn3IA O5M 1_555 1_555
Zn3U O4E 1_555 1_555
Zn3MA O5E 1_555 1_555
Zn3X O5P 1_555 1_555
Zn3N O4K 1_555 1_555
Zn3PA O5K 1_555 1_555
Zn3CA O5V 1_555 1_555
Zn4M O8M 1_555 1_555
Zn4O O8P 1_555 1_555
Zn4N O8V 1_555 1_555
Zn5M O6M 1_555 1_555
Zn5O O6P 1_555 1_555
Zn5N O6V 1_555 1_555
C1M C2M 1_555 1_555
C1E C2E 1_555 1_555
C1P C2P 1_555 1_555
C1K C2K 1_555 1_555
C1V C2V 1_555 1_555
C2M H1M 1_555 1_555
C2E H1E 1_555 1_555
C2P H1P 1_555 1_555
C2K H1K 1_555 1_555
C2V H1V 1_555 1_555
C3M H2M 1_555 1_555
C3E H2E 1_555 1_555
C3P H2P 1_555 1_555
C3K H2K 1_555 1_555
C3V H2V 1_555 1_555
C4M C3M 1_555 1_555
C4E C3E 1_555 1_555
C4P C3P 1_555 1_555
C4K C3K 1_555 1_555
C4V C3V 1_555 1_555
C5M C1M 1_555 1_555
C5E C1E 1_555 1_555
C5P C1P 1_555 1_555
C5K C1K 1_555 1_555
C5V C1V 1_555 1_555
H3M C5M 1_555 1_555
H3E C5E 1_555 1_555
H3P C5P 1_555 1_555
H3K C5K 1_555 1_555
H3V C5V 1_555 1_555
C6M C4M 1_555 1_555
C6E C4E 1_555 1_555
C6P C4P 1_555 1_555
C6K C4K 1_555 1_555
C6V C4V 1_555 1_555
C7M N1 1_555 1_555
C7E C6E 1_555 1_555
C7P C6P 1_555 1_555
C7K C6K 1_555 1_555
C7V C6V 1_555 1_555
C8M C1M 1_555 1_555
C8E C1E 1_555 1_555
C8P C1P 1_555 1_555
C8K C1K 1_555 1_555
C8V C1V 1_555 1_555
C9M C6M 1_555 1_555
C9E C6E 1_555 1_555
C9P C6P 1_555 1_555
C9K C6K 1_555 1_555
C9V C6V 1_555 1_555
C10M H4M 1_555 1_555
C10E H4E 1_555 1_555
C10P H4P 1_555 1_555
C10K H4K 1_555 1_555
C10V H4V 1_555 1_555
C11M C10M 1_555 1_555
C11E C10E 1_555 1_555
C11P C10P 1_555 1_555
C11K C10K 1_555 1_555
C11V C10V 1_555 1_555
C12M C11M 1_555 1_555
C12E C11E 1_555 1_555
C12P C11P 1_555 1_555
C12K C11K 1_555 1_555
C12V C11V 1_555 1_555
C13M N3 1_555 1_555
C13E C12E 1_555 1_555
C13P C12P 1_555 1_555
C13K C12K 1_555 1_555
C13V C12V 1_555 1_555
C14M H5M 1_555 1_555
C14E H5E 1_555 1_555
C14P H5P 1_555 1_555
C14K H5K 1_555 1_555
C14V H5V 1_555 1_555
C15M C15 1_555 1_555
C15E C7E 1_555 1_555
C15P C7P 1_555 1_555
C15K C7K 1_555 1_555
C15V C7V 1_555 1_555
H6M C15M 1_555 1_555
H6E C15E 1_555 1_555
H6P C15P 1_555 1_555
H6K C15K 1_555 1_555
H6V C15V 1_555 1_555
C16M C9M 1_555 1_555
C16E C9E 1_555 1_555
C16P C9P 1_555 1_555
C16K C9K 1_555 1_555
C16V C9V 1_555 1_555
H7M C16M 1_555 1_555
H7E C16E 1_555 1_555
H7P C16P 1_555 1_555
H7K C16K 1_555 1_555
H7V C16V 1_555 1_555
C17M C12M 1_555 1_555
C17E C12E 1_555 1_555
C17P C12P 1_555 1_555
C17K C12K 1_555 1_555
C17V C12V 1_555 1_555
C18M C18 1_555 1_555
C18E C13E 1_555 1_555
C18P C13P 1_555 1_555
C18K C13K 1_555 1_555
C18V C13V 1_555 1_555
H8M C18M 1_555 1_555
H8E C18E 1_555 1_555
H8P C18P 1_555 1_555
H8K C18K 1_555 1_555
H8V C18V 1_555 1_555
C19M C17M 1_555 1_555
C19E C17E 1_555 1_555
C19P C17P 1_555 1_555
C19K C17K 1_555 1_555
C19V C17V 1_555 1_555
H9M C19M 1_555 1_555
H9E C19E 1_555 1_555
H9P C19P 1_555 1_555
H9K C19K 1_555 1_555
H9V C19V 1_555 1_555
C20M C14M 1_555 1_555
C20E C14E 1_555 1_555
C20P C14P 1_555 1_555
C20K C14K 1_555 1_555
C20V C14V 1_555 1_555
C21M C20M 1_555 1_555
C21E C20E 1_555 1_555
C21P C20P 1_555 1_555
C21K C20K 1_555 1_555
C21V C20V 1_555 1_555
H10M C21M 1_555 1_555
H10E C21E 1_555 1_555
H10P C21P 1_555 1_555
H10K C21K 1_555 1_555
H10V C21V 1_555 1_555
C22M C19M 1_555 1_555
C22E C19E 1_555 1_555
C22P C19P 1_555 1_555
C22K C19K 1_555 1_555
C22V C19V 1_555 1_555
C23M C2M 1_555 1_555
C23E C2E 1_555 1_555
C23P C2P 1_555 1_555
C23K C2K 1_555 1_555
C23V C2V 1_555 1_555
C24M C23M 1_555 1_555
C24E C23E 1_555 1_555
C24P C23P 1_555 1_555
C24K C23K 1_555 1_555
C24V C23V 1_555 1_555
C25M C22M 1_555 1_555
C25E C22E 1_555 1_555
C25P C22P 1_555 1_555
C25K C22K 1_555 1_555
C25V C22V 1_555 1_555
C26M C20M 1_555 1_555
C26E C20E 1_555 1_555
C26P C20P 1_555 1_555
C26K C20K 1_555 1_555
C26V C20V 1_555 1_555
N1E C7E 1_555 1_555
N1K C7K 1_555 1_555
N2M Zn1 1_555 1_555
N2E Zn1E 1_555 1_555
N2P Zn1E 1_555 1_555
N2K Zn1K 1_555 1_555
N2V Zn1K 1_555 1_555
N3E Zn1E 1_555 1_555
N3K Zn1K 1_555 1_555
O1M C24M 1_555 1_555
O1E C24E 1_555 1_555
O1P C24P 1_555 1_555
O1K C24K 1_555 1_555
O1V C24V 1_555 1_555
O2M C25M 1_555 1_555
O2E C25E 1_555 1_555
O2P C25P 1_555 1_555
O2K C25K 1_555 1_555
O2V Zn2NA 1_555 1_555
O2DA Zn2 1_555 1_555
O2NA Zn2M 1_555 1_555
O2FA Zn2E 1_555 1_555
O2TA Zn2P 1_555 1_555
O2AA Zn2K 1_555 1_555
O2KA Zn2V 1_555 1_555
O3M C8M 1_555 1_555
O3E C8E 1_555 1_555
O3P C8P 1_555 1_555
O3K C8K 1_555 1_555
O3V C8V 1_555 1_555
O4M Zn3E 1_555 1_555
O4E C25E 1_555 1_555
O4P Zn3K 1_555 1_555
O4K C25K 1_555 1_555
O4V Zn3 1_555 1_555
O4I Zn3M 1_555 1_555
O4B Zn3P 1_555 1_555
O4G Zn3V 1_555 1_555
O5M C24M 1_555 1_555
O5E C24E 1_555 1_555
O5P C24P 1_555 1_555
O5K C24K 1_555 1_555
O5V C24V 1_555 1_555
O5NA Zn3 1_555 1_555
O5DA Zn3M 1_555 1_555
O5TA Zn3E 1_555 1_555
O5FA Zn3P 1_555 1_555
O5KA Zn3K 1_555 1_555
O5AA Zn3V 1_555 1_555
O6M C26M 1_555 1_555
O6E Zn5 1_555 1_555
O6P C26P 1_555 1_555
O6K Zn5 1_555 1_555
O6V C26V 1_555 1_555
O6S Zn5M 1_555 1_555
O6T Zn5M 1_555 1_555
O7M C8M 1_555 1_555
O7E Zn2TA 1_555 1_555
O7P C8P 1_555 1_555
O7K Zn2KA 1_555 1_555
O7V C8V 1_555 1_555
O7RA Zn2 1_555 1_555
O7IA Zn2M 1_555 1_555
O7MA Zn2E 1_555 1_555
O7X Zn2P 1_555 1_555
O7PA Zn2K 1_555 1_555
O7CA Zn2V 1_555 1_555
O8M C26M 1_555 1_555
O8E Zn4 1_555 1_555
O8P C26P 1_555 1_555
O8K Zn4 1_555 1_555
O8V C26V 1_555 1_555
O8S Zn4M 1_555 1_555
O8T Zn4M 1_555 1_555
O9M Zn5M 1_555 1_555
C3 C23 1_555 1_555
C4 C5 1_555 1_555
C9 N2 1_555 1_555
C10 C16 1_555 1_555
C11 N2 1_555 1_555
C13 N3 1_555 1_555
C14 C17 1_555 1_555
C21 C22 1_555 1_555
C3M C23M 1_555 1_555
C3E C23E 1_555 1_555
C3P C23P 1_555 1_555
C3K C23K 1_555 1_555
C3V C23V 1_555 1_555
C4M C5M 1_555 1_555
C4E C5E 1_555 1_555
C4P C5P 1_555 1_555
C4K C5K 1_555 1_555
C4V C5V 1_555 1_555
C6M C7M 1_555 1_555
C7M C15M 1_555 1_555
C7P N1E 1_555 1_555
C7V N1K 1_555 1_555
C8E O7E 1_555 1_555
C8K O7K 1_555 1_555
C9M N2M 1_555 1_555
C9E N2E 1_555 1_555
C9P N2P 1_555 1_555
C9K N2K 1_555 1_555
C9V N2V 1_555 1_555
C10M C16M 1_555 1_555
C10E C16E 1_555 1_555
C10P C16P 1_555 1_555
C10K C16K 1_555 1_555
C10V C16V 1_555 1_555
C11M N2M 1_555 1_555
C11E N2E 1_555 1_555
C11P N2P 1_555 1_555
C11K N2K 1_555 1_555
C11V N2V 1_555 1_555
C12M C13M 1_555 1_555
C13M C18M 1_555 1_555
C13E N3E 1_555 1_555
C13P N3E 1_555 1_555
C13K N3K 1_555 1_555
C13V N3K 1_555 1_555
C14M C17M 1_555 1_555
C14E C17E 1_555 1_555
C14P C17P 1_555 1_555
C14K C17K 1_555 1_555
C14V C17V 1_555 1_555
C15E C15P 1_555 1_555
C15K C15V 1_555 1_555
C18E C18P 1_555 1_555
C18K C18V 1_555 1_555
C21M C22M 1_555 1_555
C21E C22E 1_555 1_555
C21P C22P 1_555 1_555
C21K C22K 1_555 1_555
C21V C22V 1_555 1_555
C25M O4M 1_555 1_555
C25P O4P 1_555 1_555
C25V O2V 1_555 1_555
C25V O4V 1_555 1_555
C26E O6E 1_555 1_555
C26E O8E 1_555 1_555
C26K O6K 1_555 1_555
C26K O8K 1_555 1_555

#END
