
#######################################################################
#
#                 Cambridge Crystallographic Data Centre
#                                CCDC 
#
#######################################################################
#
# If this CIF has been generated from an entry in the Cambridge 
# Structural Database, then it will include bibliographic, chemical, 
# crystal, experimental, refinement or atomic coordinate data resulting 
# from the CCDC's data processing and validation procedures.
#
#######################################################################

data_VEMHOL
_symmetry_cell_setting           hexagonal
_symmetry_space_group_name_H-M   'P -6 2 c'
_symmetry_Int_Tables_number      190
_space_group_name_Hall           "P -6c -2'c"
loop_
_symmetry_equiv_pos_site_id
_symmetry_equiv_pos_as_xyz
1 x,y,z
2 -y,x-y,z
3 -x+y,-x,z
4 x,y,1/2-z
5 -y,x-y,1/2-z
6 -x+y,-x,1/2-z
7 y,x,-z
8 x-y,-y,-z
9 -x,-x+y,-z
10 y,x,1/2+z
11 x-y,-y,1/2+z
12 -x,-x+y,1/2+z
_cell_length_a                   13.1198(4)
_cell_length_b                   13.1198(4)
_cell_length_c                   13.6007(7)
_cell_angle_alpha                90
_cell_angle_beta                 90
_cell_angle_gamma                120
_cell_volume                     2027.43
loop_
_atom_site_label
_atom_site_type_symbol
_atom_site_fract_x
_atom_site_fract_y
_atom_site_fract_z
Cd1 Cd 0.6667 0.3333 0.60206(3)
Cd2 Cd 0.48725(3) 0.48725(3) 0.5000
C1 C 0.4830(6) 0.4964(5) 0.7500
C2 C 0.8612(4) 0.6523(5) 0.4184(4)
N1 N 0.4248(8) 0.5595(9) 0.7500
H1 H 0.4136 0.5703 0.6980
N2 N 0.5150(3) 0.4620(4) 0.6693(2)
N3 N 0.5716(4) 0.4071(4) 0.7020(2)
N4 N 0.9549(5) 0.7364(5) 0.3701(5)
H2 H 1.0203 0.7362 0.3705
H3 H 0.9495 0.7905 0.3389
N5 N 0.8567(4) 0.5642(3) 0.4692(3)
N6 N 0.7444(3) 0.4988(4) 0.4991(2)
N7 N 0.6842(4) 0.5458(3) 0.4665(3)
N8 N 0.7535(4) 0.6411(4) 0.4123(4)
Cd1C Cd 0.6667 0.3333 0.89794(3)
Cd1F Cd 0.3333 0.6667 0.39794(3)
Cd2C Cd 0.48725(3) 0.48725(3) 1.0000
Cd2A Cd 0.51275(3) 0.00000(4) 0.5000
Cd2B Cd 1.00000(4) 0.51275(3) 0.5000
Cd2D Cd 0.51275(3) 0.00000(4) 1.0000
Cd2E Cd 1.00000(4) 0.51275(3) 1.0000
Cd2B_2 Cd 0.00000(4) 0.51275(3) 0.5000
Cd2A_2 Cd 0.51275(3) 1.00000(4) 0.5000
C1A C 0.5036(5) -0.0134(8) 0.7500
C1B C 1.0134(8) 0.5170(6) 0.7500
C2B C 0.7911(6) 0.1388(4) 0.4184(4)
C2A C 0.3477(5) 0.2089(6) 0.4184(4)
C2G C 0.2089(6) 0.3477(5) 0.5816(4)
C2F C 0.6523(5) 0.8612(4) 0.5816(4)
C2C C 0.8612(4) 0.6523(5) 1.0816(4)
N1A N 0.4405(9) -0.1347(12) 0.7500
N1B N 1.1347(12) 0.5752(8) 0.7500
H1C H 0.4136 0.5703 0.8020
H1A H 0.4297 -0.1567 0.6980
H1D H 0.4297 -0.1567 0.8020
H1B H 1.1567 0.5864 0.6980
H1E H 1.1567 0.5864 0.8020
N2C N 0.5150(3) 0.4620(4) 0.8307(2)
N2A N 0.5380(4) 0.0530(5) 0.6693(2)
N2D N 0.5380(4) 0.0530(5) 0.8307(2)
N2B N 0.9470(5) 0.4850(3) 0.6693(2)
N2E N 0.9470(5) 0.4850(3) 0.8307(2)
N2F N 0.4620(4) 0.5150(3) 0.3307(2)
N2I N 0.4620(4) 0.5150(3) 1.1693(2)
N2H N 0.4850(3) -0.0530(5) 0.3307(2)
N3C N 0.5716(4) 0.4071(4) 0.7980(2)
N3A N 0.5929(4) 0.1645(6) 0.7020(2)
N3D N 0.5929(4) 0.1645(6) 0.7980(2)
N3B N 0.8355(6) 0.4284(4) 0.7020(2)
N3E N 0.8355(6) 0.4284(4) 0.7980(2)
N4B N 0.7815(7) 0.0451(5) 0.3701(5)
N4A N 0.2636(5) 0.2185(7) 0.3701(5)
N4G N 0.2185(7) 0.2636(5) 0.6299(5)
N4F N 0.7364(5) 0.9549(5) 0.6299(5)
N4C N 0.9549(5) 0.7364(5) 1.1299(5)
H2B H 0.7159 -0.0203 0.3705
H2A H 0.2638 0.2841 0.3705
H2G H 0.2841 0.2638 0.6295
H2F H 0.7362 1.0203 0.6295
H2C H 1.0203 0.7362 1.1295
H3B H 0.8410 0.0505 0.3389
H3A H 0.2095 0.1590 0.3389
H3G H 0.1590 0.2095 0.6611
H3F H 0.7905 0.9495 0.6611
H3C H 0.9495 0.7905 1.1611
N5B N 0.7075(5) 0.1433(4) 0.4692(3)
N5A N 0.4358(3) 0.2925(5) 0.4692(3)
N5G N 0.2925(5) 0.4358(3) 0.5308(3)
N5F N 0.5642(3) 0.8567(4) 0.5308(3)
N5C N 0.8567(4) 0.5642(3) 1.0308(3)
N5D N 0.4358(3) 0.2925(5) 1.0308(3)
N5J N 0.2925(5) 0.4358(3) 0.9692(3)
N5F_2 N 0.5642(3) -0.1433(4) 0.5308(3)
N6B N 0.7544(5) 0.2556(3) 0.4991(2)
N6A N 0.5012(4) 0.2456(5) 0.4991(2)
N6G N 0.2456(5) 0.5012(4) 0.5009(2)
N6F N 0.4988(4) 0.7444(3) 0.5009(2)
N6C N 0.7444(3) 0.4988(4) 1.0009(2)
N6D N 0.5012(4) 0.2456(5) 1.0009(2)
N6E N 0.7544(5) 0.2556(3) 1.0009(2)
N7B N 0.8616(5) 0.3158(4) 0.4665(3)
N7A N 0.4542(3) 0.1384(5) 0.4665(3)
N7G N 0.1384(5) 0.4542(3) 0.5335(3)
N7F N 0.5458(3) 0.6842(4) 0.5335(3)
N7C N 0.6842(4) 0.5458(3) 1.0335(3)
N7I N 0.5458(3) 0.6842(4) 0.9665(3)
N7H N 0.3158(4) -0.1384(5) 0.5335(3)
N8B N 0.8876(6) 0.2465(4) 0.4123(4)
N8A N 0.3589(4) 0.1124(6) 0.4123(4)
N8G N 0.1124(6) 0.3589(4) 0.5877(4)
N8F N 0.6411(4) 0.7535(4) 0.5877(4)
N8C N 0.7535(4) 0.6411(4) 1.0877(4)
N9 N 1.0000 1.0000 0.7500
O1 O 0.9094(8) 0.9044(8) 0.7500
O1A O 1.0956(8) 1.0050(11) 0.7500
O1B O 0.9950(11) 1.0906(8) 0.7500
O2 O 0.8680(9) 1.2052(9) 0.6808(11)
loop_
_geom_bond_atom_site_label_1
_geom_bond_atom_site_label_2
_geom_bond_site_symmetry_1
_geom_bond_site_symmetry_2
Cd1 N3 1_555 1_555
Cd2 N2 1_555 1_555
C1 N1 1_555 1_555
C2 N4 1_555 1_555
N1 H1 1_555 1_555
N2 C1 1_555 1_555
N3 N2 1_555 1_555
N4 H2 1_555 1_555
H3 N4 1_555 1_555
N5 C2 1_555 1_555
N6 Cd1 1_555 1_555
N7 Cd2 1_555 1_555
N8 C2 1_555 1_555
N9 O1 1_555 1_555
Cd1C N3C 1_555 1_555
Cd1F N6G 1_555 1_555
Cd2C N2C 1_555 1_555
Cd2A N2A 1_555 1_555
Cd2B N5 1_555 1_555
Cd2D N2D 1_555 1_555
Cd2E N2E 1_555 1_555
Cd2B_2 N7G 1_555 1_555
Cd2A_2 N5F 1_555 1_555
C1A N1A 1_555 1_555
C1B N1B 1_555 1_555
C2B N4B 1_555 1_555
C2A N4A 1_555 1_555
C2G N4G 1_555 1_555
C2F N4F 1_555 1_555
C2C N4C 1_555 1_555
N1A H1A 1_555 1_555
N1B H1B 1_555 1_555
H1C N1 1_555 1_555
H1D N1A 1_555 1_555
H1E N1B 1_555 1_555
N2C C1 1_555 1_555
N2A C1A 1_555 1_555
N2D C1A 1_555 1_555
N2B Cd2B 1_555 1_555
N2E C1B 1_555 1_555
N2F Cd2 1_555 1_555
N2I Cd2C 1_555 1_555
N2H Cd2A 1_555 1_555
N3C N3 1_555 1_555
N3A Cd1 1_555 1_555
N3D Cd1C 1_555 1_555
N3B Cd1 1_555 1_555
N3E Cd1C 1_555 1_555
N4B H2B 1_555 1_555
N4A H2A 1_555 1_555
N4G H2G 1_555 1_555
N4F H2F 1_555 1_555
N4C H2C 1_555 1_555
H3B N4B 1_555 1_555
H3A N4A 1_555 1_555
H3G N4G 1_555 1_555
H3F N4F 1_555 1_555
H3C N4C 1_555 1_555
N5B Cd2A 1_555 1_555
N5A Cd2 1_555 1_555
N5G Cd2 1_555 1_555
N5F C2F 1_555 1_555
N5C Cd2E 1_555 1_555
N5D Cd2C 1_555 1_555
N5J Cd2C 1_555 1_555
N5F_2 Cd2A 1_555 1_555
N6B Cd1 1_555 1_555
N6A Cd1 1_555 1_555
N6G N5G 1_555 1_555
N6F Cd1F 1_555 1_555
N6C Cd1C 1_555 1_555
N6D Cd1C 1_555 1_555
N6E Cd1C 1_555 1_555
N7B Cd2B 1_555 1_555
N7A Cd2A 1_555 1_555
N7G N6G 1_555 1_555
N7F Cd2 1_555 1_555
N7C Cd2C 1_555 1_555
N7I Cd2C 1_555 1_555
N7H Cd2A 1_555 1_555
N8B C2B 1_555 1_555
N8A C2A 1_555 1_555
N8G C2G 1_555 1_555
N8F C2F 1_555 1_555
N8C C2C 1_555 1_555
O1A N9 1_555 1_555
O1B N9 1_555 1_555
N5 N6 1_555 1_555
N6 N7 1_555 1_555
N7 N8 1_555 1_555
C1B N2B 1_555 1_555
C2B N5B 1_555 1_555
C2A N5A 1_555 1_555
C2G N5G 1_555 1_555
C2C N5C 1_555 1_555
N2C N3C 1_555 1_555
N2A N3A 1_555 1_555
N2D N3D 1_555 1_555
N2B N3B 1_555 1_555
N2E N3E 1_555 1_555
N3A N3D 1_555 1_555
N3B N3E 1_555 1_555
N5B N6B 1_555 1_555
N5A N6A 1_555 1_555
N5F N6F 1_555 1_555
N5C N6C 1_555 1_555
N5D N6D 1_555 1_555
N6B N7B 1_555 1_555
N6A N7A 1_555 1_555
N6F N7F 1_555 1_555
N6C N7C 1_555 1_555
N7B N8B 1_555 1_555
N7A N8A 1_555 1_555
N7G N8G 1_555 1_555
N7F N8F 1_555 1_555
N7C N8C 1_555 1_555

#END
