
#######################################################################
#
#                 Cambridge Crystallographic Data Centre
#                                CCDC 
#
#######################################################################
#
# If this CIF has been generated from an entry in the Cambridge 
# Structural Database, then it will include bibliographic, chemical, 
# crystal, experimental, refinement or atomic coordinate data resulting 
# from the CCDC's data processing and validation procedures.
#
#######################################################################

data_VETTOE
_symmetry_cell_setting           triclinic
_symmetry_space_group_name_H-M   'P -1'
_symmetry_Int_Tables_number      2
_space_group_name_Hall           '-P 1'
loop_
_symmetry_equiv_pos_site_id
_symmetry_equiv_pos_as_xyz
1 x,y,z
2 -x,-y,-z
_cell_length_a                   9.4902(7)
_cell_length_b                   13.9123(13)
_cell_length_c                   16.7437(14)
_cell_angle_alpha                83.044(3)
_cell_angle_beta                 75.802(5)
_cell_angle_gamma                88.309(5)
_cell_volume                     2127.38
loop_
_atom_site_label
_atom_site_type_symbol
_atom_site_fract_x
_atom_site_fract_y
_atom_site_fract_z
Pr1 Pr 0.29460(3) -0.06130(2) 0.553269(16)
C1 C 0.1830(6) 0.3269(4) 0.0502(3)
C2 C 0.2688(7) 0.2481(5) 0.0162(4)
H1 H 0.3151 0.1994 0.0456
C3 C 0.2715(7) 0.2560(5) -0.0647(4)
H2 H 0.3205 0.2140 -0.1032
C4 C 0.1867(6) 0.3397(4) -0.0829(3)
C5 C 0.1610(6) 0.3697(4) -0.1611(3)
C6 C 0.0735(6) 0.4490(4) -0.1791(3)
C7 C 0.0500(7) 0.4825(5) -0.2594(4)
H3 H 0.0888 0.4544 -0.3092
C8 C -0.0362(8) 0.5604(5) -0.2516(4)
H4 H -0.0710 0.5967 -0.2946
C9 C -0.0669(6) 0.5796(4) -0.1663(3)
C10 C 0.1529(6) 0.3444(4) 0.1328(3)
N1 N 0.1337(5) 0.3818(3) -0.0119(3)
N2 N 0.0029(5) 0.5106(3) -0.1248(3)
H5 H 0.0024 0.5066 -0.0719
C11 C 0.2165(6) 0.2772(4) 0.1910(3)
C12 C 0.1294(6) 0.2135(5) 0.2514(4)
H6 H 0.0282 0.2107 0.2549
C13 C 0.1890(7) 0.1532(5) 0.3075(4)
H7 H 0.1276 0.1095 0.3484
C14 C 0.3335(5) 0.1556(4) 0.3047(3)
C15 C 0.4221(6) 0.2187(5) 0.2438(4)
H8 H 0.5228 0.2225 0.2416
C16 C 0.3638(6) 0.2763(5) 0.1859(4)
H9 H 0.4266 0.3157 0.1421
C17 C 0.3956(6) 0.0944(4) 0.3692(3)
O1 O 0.3145(4) 0.0307(3) 0.4161(2)
O2 O 0.5247(4) 0.1139(3) 0.3707(2)
C18 C 0.2368(6) 0.3171(4) -0.2312(3)
C19 C 0.3847(8) 0.3339(6) -0.2658(5)
H10 H 0.4340 0.3815 -0.2467
C20 C 0.4599(7) 0.2813(6) -0.3283(5)
H11 H 0.5611 0.2923 -0.3503
C21 C 0.3911(6) 0.2133(4) -0.3590(3)
C22 C 0.2445(6) 0.1979(5) -0.3261(4)
H12 H 0.1946 0.1521 -0.3468
C23 C 0.1696(7) 0.2496(5) -0.2626(4)
H13 H 0.0687 0.2378 -0.2403
C24 C 0.4794(6) 0.1572(4) -0.4240(3)
O3 O 0.4224(4) 0.0855(3) -0.4450(2)
O4 O 0.6059(4) 0.1835(3) -0.4568(2)
O5 O 0.0879(4) -0.1114(3) 0.4973(2)
C25 C 0.0005(5) -0.0471(4) 0.4800(3)
O6 O -0.0853(4) -0.0536(3) 0.4352(2)
O7 O 0.1794(5) -0.0476(3) 0.7043(3)
H14 H 0.1273 0.0124 0.7093
H15 H 0.2537 -0.0495 0.7344
O8 O 0.2117(5) -0.2265(3) 0.6253(3)
H16 H 0.1581 -0.2568 0.5935
H17 H 0.2951 -0.2652 0.6304
Pr1A Pr -0.29460(3) 1.06130(2) -0.553269(16)
Pr1A_2 Pr 0.70540(3) 0.06130(2) 0.446731(16)
Pr1_2 Pr 0.29460(3) -0.06130(2) -0.446731(16)
Pr1A_3 Pr 0.70540(3) 0.06130(2) -0.553269(16)
Pr1A_4 Pr -0.29460(3) 0.06130(2) 0.446731(16)
Pr1_3 Pr -0.70540(3) 0.93870(2) 0.553269(16)
Pr1A_5 Pr -0.29460(3) 1.06130(2) 0.446731(16)
Pr1_4 Pr -0.70540(3) 0.93870(2) -0.446731(16)
C1A C -0.1830(6) 0.6731(4) -0.0502(3)
C2A C -0.2688(7) 0.7519(5) -0.0162(4)
H1A H -0.3151 0.8006 -0.0456
C3A C -0.2715(7) 0.7440(5) 0.0647(4)
H2A H -0.3205 0.7860 0.1032
C4A C -0.1867(6) 0.6603(4) 0.0829(3)
C5A C -0.1610(6) 0.6303(4) 0.1611(3)
C6A C -0.0735(6) 0.5510(4) 0.1791(3)
C7A C -0.0500(7) 0.5175(5) 0.2594(4)
H3A H -0.0888 0.5456 0.3092
C8A C 0.0362(8) 0.4396(5) 0.2516(4)
H4A H 0.0710 0.4033 0.2946
C9A C 0.0669(6) 0.4204(4) 0.1663(3)
C10A C -0.1529(6) 0.6556(4) -0.1328(3)
N1A N -0.1337(5) 0.6182(3) 0.0119(3)
N2A N -0.0029(5) 0.4894(3) 0.1248(3)
H5A H -0.0024 0.4934 0.0719
C11A C -0.2165(6) 0.7228(4) -0.1910(3)
C12A C -0.1294(6) 0.7865(5) -0.2514(4)
H6A H -0.0282 0.7893 -0.2549
C13A C -0.1890(7) 0.8468(5) -0.3075(4)
H7A H -0.1276 0.8905 -0.3484
C14A C -0.3335(5) 0.8444(4) -0.3047(3)
C15A C -0.4221(6) 0.7813(5) -0.2438(4)
H8A H -0.5228 0.7775 -0.2416
C16A C -0.3638(6) 0.7237(5) -0.1859(4)
H9A H -0.4266 0.6843 -0.1421
C17A C -0.3956(6) 0.9056(4) -0.3692(3)
O1A O -0.3145(4) 0.9693(3) -0.4161(2)
O2A O -0.5247(4) 0.8861(3) -0.3707(2)
O2A_2 O 0.4753(4) -0.1139(3) 0.6293(2)
O2_2 O -0.4753(4) 1.1139(3) -0.6293(2)
C18A C -0.2368(6) 0.6829(4) 0.2312(3)
C19A C -0.3847(8) 0.6661(6) 0.2658(5)
H10A H -0.4340 0.6185 0.2467
C20A C -0.4599(7) 0.7187(6) 0.3283(5)
H11A H -0.5611 0.7077 0.3503
C21A C -0.3911(6) 0.7867(4) 0.3590(3)
C22A C -0.2445(6) 0.8021(5) 0.3261(4)
H12A H -0.1946 0.8479 0.3468
C23A C -0.1696(7) 0.7504(5) 0.2626(4)
H13A H -0.0687 0.7622 0.2403
C24A C -0.4794(6) 0.8428(4) 0.4240(3)
O3A O -0.4224(4) 0.9145(3) 0.4450(2)
O3_2 O 0.4224(4) 0.0855(3) 0.5550(2)
O3A_2 O 0.5776(4) -0.0855(3) 0.4450(2)
O3_3 O -0.5776(4) 1.0855(3) -0.4450(2)
O3A_3 O -0.4224(4) 0.9145(3) -0.5550(2)
O4A O -0.6059(4) 0.8165(3) 0.4568(2)
O4A_2 O 0.3941(4) -0.1835(3) 0.4568(2)
O4_2 O -0.3941(4) 1.1835(3) -0.4568(2)
O5A O -0.0879(4) 0.1114(3) 0.5027(2)
O5A_2 O -0.0879(4) 1.1114(3) -0.4973(2)
C25A C -0.0005(5) 0.0471(4) 0.5200(3)
O6A O 0.0853(4) 0.0536(3) 0.5648(2)
O6_2 O -0.0853(4) 0.9464(3) -0.5648(2)
O7A O -0.1794(5) 1.0476(3) -0.7043(3)
H14A H -0.1273 0.9876 -0.7093
H15A H -0.2537 1.0495 -0.7344
O8A O -0.2117(5) 1.2265(3) -0.6253(3)
H16A H -0.1581 1.2568 -0.5935
H17A H -0.2951 1.2652 -0.6304
loop_
_geom_bond_atom_site_label_1
_geom_bond_atom_site_label_2
_geom_bond_site_symmetry_1
_geom_bond_site_symmetry_2
Pr1 O1 1_555 1_555
C1 C2 1_555 1_555
C2 H1 1_555 1_555
C3 C2 1_555 1_555
H2 C3 1_555 1_555
C4 C3 1_555 1_555
C5 C4 1_555 1_555
C6 C5 1_555 1_555
C7 C6 1_555 1_555
H3 C7 1_555 1_555
C8 C7 1_555 1_555
H4 C8 1_555 1_555
C9 C8 1_555 1_555
C10 C1 1_555 1_555
N1 C1 1_555 1_555
N2 C6 1_555 1_555
H5 N2 1_555 1_555
C11 C10 1_555 1_555
C12 C11 1_555 1_555
H6 C12 1_555 1_555
C13 C12 1_555 1_555
H7 C13 1_555 1_555
C14 C13 1_555 1_555
C15 C14 1_555 1_555
H8 C15 1_555 1_555
C16 C11 1_555 1_555
H9 C16 1_555 1_555
C17 C14 1_555 1_555
O1 C17 1_555 1_555
O2 C17 1_555 1_555
C18 C5 1_555 1_555
C19 C18 1_555 1_555
H10 C19 1_555 1_555
C20 C19 1_555 1_555
H11 C20 1_555 1_555
C21 C20 1_555 1_555
C22 C21 1_555 1_555
H12 C22 1_555 1_555
C23 C18 1_555 1_555
H13 C23 1_555 1_555
C24 C21 1_555 1_555
O3 C24 1_555 1_555
O4 C24 1_555 1_555
O5 Pr1 1_555 1_555
C25 O5 1_555 1_555
O6 C25 1_555 1_555
O7 Pr1 1_555 1_555
H14 O7 1_555 1_555
H15 O7 1_555 1_555
O8 Pr1 1_555 1_555
H16 O8 1_555 1_555
H17 O8 1_555 1_555
Pr1A O1A 1_555 1_555
Pr1A_2 O2 1_555 1_555
Pr1_2 O3 1_555 1_555
Pr1A_3 O3 1_555 1_555
Pr1A_4 O6 1_555 1_555
Pr1_3 O3A 1_555 1_555
Pr1A_5 O3A 1_555 1_555
Pr1_4 O2A 1_555 1_555
C1A C2A 1_555 1_555
C2A H1A 1_555 1_555
C3A C2A 1_555 1_555
H2A C3A 1_555 1_555
C4A C3A 1_555 1_555
C5A C4A 1_555 1_555
C6A C5A 1_555 1_555
C7A C6A 1_555 1_555
H3A C7A 1_555 1_555
C8A C7A 1_555 1_555
H4A C8A 1_555 1_555
C9A C10 1_555 1_555
C10A C9 1_555 1_555
N1A C1A 1_555 1_555
N2A C6A 1_555 1_555
H5A N2A 1_555 1_555
C11A C10A 1_555 1_555
C12A C11A 1_555 1_555
H6A C12A 1_555 1_555
C13A C12A 1_555 1_555
H7A C13A 1_555 1_555
C14A C13A 1_555 1_555
C15A C14A 1_555 1_555
H8A C15A 1_555 1_555
C16A C11A 1_555 1_555
H9A C16A 1_555 1_555
C17A C14A 1_555 1_555
O1A C17A 1_555 1_555
O2A C17A 1_555 1_555
O2A_2 Pr1 1_555 1_555
O2_2 Pr1A 1_555 1_555
C18A C5A 1_555 1_555
C19A C18A 1_555 1_555
H10A C19A 1_555 1_555
C20A C19A 1_555 1_555
H11A C20A 1_555 1_555
C21A C20A 1_555 1_555
C22A C21A 1_555 1_555
H12A C22A 1_555 1_555
C23A C18A 1_555 1_555
H13A C23A 1_555 1_555
C24A C21A 1_555 1_555
O3A C24A 1_555 1_555
O3_2 Pr1 1_555 1_555
O3A_2 Pr1 1_555 1_555
O3_3 Pr1A 1_555 1_555
O3A_3 Pr1A 1_555 1_555
O4A Pr1_3 1_555 1_555
O4A_2 Pr1 1_555 1_555
O4_2 Pr1A 1_555 1_555
O5A Pr1A_4 1_555 1_555
O5A_2 Pr1A 1_555 1_555
C25A C25 1_555 1_555
O6A Pr1 1_555 1_555
O6_2 Pr1A 1_555 1_555
O7A Pr1A 1_555 1_555
H14A O7A 1_555 1_555
H15A O7A 1_555 1_555
O8A Pr1A 1_555 1_555
H16A O8A 1_555 1_555
H17A O8A 1_555 1_555
C4 N1 1_555 1_555
C9 N2 1_555 1_555
C15 C16 1_555 1_555
C22 C23 1_555 1_555
O4 Pr1A_3 1_555 1_555
Pr1A_2 O3_2 1_555 1_555
Pr1A_2 O3A_2 1_555 1_555
Pr1_4 O3_3 1_555 1_555
Pr1_4 O3A_3 1_555 1_555
C1A C10A 1_555 1_555
C4A N1A 1_555 1_555
C8A C9A 1_555 1_555
C9A N2A 1_555 1_555
C15A C16A 1_555 1_555
C22A C23A 1_555 1_555
C24A O4A 1_555 1_555
O5A C25A 1_555 1_555
C25A O6A 1_555 1_555

#END
