
#######################################################################
#
#                 Cambridge Crystallographic Data Centre
#                                CCDC 
#
#######################################################################
#
# If this CIF has been generated from an entry in the Cambridge 
# Structural Database, then it will include bibliographic, chemical, 
# crystal, experimental, refinement or atomic coordinate data resulting 
# from the CCDC's data processing and validation procedures.
#
#######################################################################

data_VICLAW
_symmetry_cell_setting           monoclinic
_symmetry_space_group_name_H-M   'P 21'
_symmetry_Int_Tables_number      4
_space_group_name_Hall           'P 2yb'
loop_
_symmetry_equiv_pos_site_id
_symmetry_equiv_pos_as_xyz
1 x,y,z
2 -x,1/2+y,-z
_cell_length_a                   23.235(5)
_cell_length_b                   11.855(2)
_cell_length_c                   36.749(7)
_cell_angle_alpha                90
_cell_angle_beta                 95.26(3)
_cell_angle_gamma                90
_cell_volume                     10079.9
loop_
_atom_site_label
_atom_site_type_symbol
_atom_site_fract_x
_atom_site_fract_y
_atom_site_fract_z
Cd1 Cd 0.24157(4) 0.66130(6) 0.746812(19)
Cd2 Cd 0.13483(3) 0.98379(6) 0.716646(18)
Cd3 Cd 0.40416(4) 0.63183(7) 0.77452(2)
Cd4 Cd 0.05657(4) 1.21838(7) 0.77023(2)
Ni1 Ni 0.41590(5) 0.49780(11) 0.51367(3)
Ni2 Ni 0.08605(6) 0.04119(11) 0.51801(3)
Ni3 Ni 0.42185(5) 0.70828(12) 0.97554(3)
Ni4 Ni 0.08003(6) 0.18655(12) 0.97485(4)
O1 O 0.3646(3) 0.8154(6) 0.96882(18)
O2 O 0.4171(3) 0.7259(6) 1.02547(17)
C1 C 0.3384(4) 0.8529(10) 0.9383(3)
N1 N 0.4210(3) 0.6753(7) 0.9262(2)
C2 C 0.2710(5) 0.9192(9) 0.8719(3)
N2 N 0.4841(3) 0.6096(8) 0.9819(2)
C3 C 0.3869(4) 0.7172(9) 0.9004(2)
H1 H 0.3888 0.6867 0.8772
C4 C 0.5107(5) 0.5892(10) 0.9472(3)
H2 H 0.5309 0.5165 0.9485
C5 C 0.3133(5) 0.8359(9) 0.8714(3)
H3 H 0.3193 0.8008 0.8495
C6 C 0.2954(5) 0.9412(9) 0.9395(3)
C7 C 0.4845(4) 0.5796(9) 1.0457(3)
C8 C 0.4395(4) 0.6603(9) 1.0512(2)
C9 C 0.5085(5) 0.5136(10) 1.0754(3)
H4 H 0.5385 0.4646 1.0714
C10 C 0.2852(5) 1.0015(9) 0.9745(3)
C11 C 0.4455(5) 0.6003(10) 1.1144(3)
H5 H 0.4334 0.6084 1.1377
C12 C 0.4198(5) 0.6669(10) 1.0879(3)
C13 C 0.4591(4) 0.5835(8) 0.9172(3)
H6 H 0.4736 0.6001 0.8936
C14 C 0.3476(5) 0.8033(10) 0.9037(3)
O3 O 0.1464(3) 0.1460(6) 0.51964(16)
O4 O 0.1993(3) 0.8014(7) 0.7124(2)
O5 O 0.5382(4) 0.1993(7) 0.2679(2)
O6 O 0.2835(3) 0.5364(6) 0.78666(19)
O7 O 0.5466(4) 0.2708(8) 1.1891(2)
O8 O 0.2112(4) 1.1230(8) 0.7333(3)
O9 O 0.3764(3) 0.4993(6) 0.73201(19)
H7 H 0.3478 0.5119 0.7164
H8 H 0.3945 0.4371 0.7317
N3 N 0.0233(3) -0.0510(6) 0.51673(19)
O10 O 0.0823(3) 0.0552(6) 0.46846(18)
O11 O 0.3613(4) 0.5803(7) 0.8227(2)
O12 O 0.1857(4) 0.9339(8) 0.6714(2)
O13 O 0.1746(4) 0.7262(8) 0.7838(2)
H9 H 0.1415 0.6955 0.7832
H10 H 0.1829 0.7814 0.7981
O14 O 0.2649(3) 0.5404(7) 0.70071(18)
N4 N 0.0947(3) 0.0109(7) 0.5671(2)
O15 O 0.3708(3) 0.6246(5) 0.51358(16)
O16 O 0.4017(3) 0.5001(6) 0.46288(17)
N5 N 0.4283(3) 0.4971(7) 0.5631(2)
C15 C 0.1647(4) 0.1577(8) 0.5842(2)
N6 N 0.4620(3) 0.3727(7) 0.5147(2)
C16 C 0.1709(4) 0.1967(8) 0.5486(2)
C17 C 0.2062(4) 0.2929(8) 0.5436(2)
C18 C 0.1885(4) 0.2187(9) 0.6158(3)
H11 H 0.1848 0.1916 0.6392
C19 C 0.2174(4) 0.3194(8) 0.6104(3)
O17 O 0.1830(3) 0.5070(7) 0.7226(2)
C20 C 0.4796(4) 0.3242(8) 0.5513(2)
H12 H 0.5189 0.2937 0.5520
O18 O 0.1510(3) 0.9554(6) 0.77627(18)
C21 C 0.4814(4) 0.3242(9) 0.4862(2)
H13 H 0.5070 0.2644 0.4906
C22 C 0.2071(5) 0.8386(9) 0.6806(3)
O19 O 0.0157(5) -0.1357(9) 1.2290(2)
O20 O 0.1223(4) 1.1153(8) 0.8011(2)
C23 C 0.4094(5) 0.4574(9) 0.4012(3)
C24 C 0.4253(4) 0.4377(10) 0.4384(3)
O21 O 0.0630(4) 0.8286(15) 0.7133(2)
H14 H 0.0745 0.7608 0.7117
H15 H 0.0272 0.8427 0.7137
O22 O 0.1331(5) 1.3113(8) 0.7473(3)
H16 H 0.1374 1.3819 0.7506
H17 H 0.1569 1.2748 0.7356
C25 C 0.4667(5) 0.3547(9) 0.4493(3)
N7 N 0.0570(3) 0.1839(8) 0.9258(2)
O23 O 0.1262(3) 0.3080(6) 0.97121(19)
O24 O 0.1053(3) 0.1875(8) 1.02379(19)
C26 C 0.0858(5) 0.1308(10) 1.0496(3)
C27 C 0.0853(5) 0.2291(10) 0.9014(3)
H18 H 0.0733 0.2113 0.8773
C28 C 0.0051(4) 0.1162(10) 0.9148(3)
H19 H 0.0079 0.0856 0.8902
C29 C 0.0583(5) -0.0773(8) 0.5802(2)
H20 H 0.0491 -0.0581 0.6050
C30 C 0.0551(4) -0.0110(9) 0.4435(2)
C31 C 0.0017(4) -0.0709(8) 0.5538(2)
H21 H -0.0176 -0.1444 0.5536
C32 C -0.0042(4) -0.0987(9) 0.4892(3)
H22 H -0.0347 -0.1462 0.4934
C33 C 0.1488(4) 0.3473(9) 0.9422(3)
C34 C 0.0106(6) 0.0165(14) 0.9438(5)
H23 H -0.0283 -0.0124 0.9466
C35 C 0.0089(5) -0.0840(9) 0.4526(3)
N8 N 0.0329(4) 0.0639(8) 0.9781(3)
C36 C 0.3555(4) 0.6306(9) 0.5767(2)
C37 C 0.4375(4) 0.2315(8) 0.5591(2)
C38 C 0.4782(4) 0.4252(9) 0.5779(3)
H24 H 0.4704 0.3968 0.6021
C39 C 0.2780(5) 0.8006(9) 0.5609(3)
H25 H 0.2512 0.8582 0.5560
C40 C 0.1899(4) 0.4351(9) 0.9454(3)
C41 C 0.2267(4) 0.3506(8) 0.5749(3)
H26 H 0.2484 0.4153 0.5719
C42 C 0.2854(5) 0.7598(9) 0.5970(3)
C43 C 0.2174(5) 0.4668(9) 0.9147(3)
H27 H 0.2459 0.5221 0.9172
C44 C 0.3457(4) 0.6672(9) 0.5404(3)
C45 C 0.3244(4) 0.6758(9) 0.6041(3)
H28 H 0.3306 0.6475 0.6278
O25 O -0.0493(4) -0.3748(7) 0.27979(19)
C46 C 0.2503(5) 0.8119(9) 0.6230(3)
H29 H 0.2288 0.8745 0.6148
C47 C 0.2338(5) 0.9416(9) 0.8395(3)
H30 H 0.2421 0.9019 0.8188
C48 C 0.5050(4) 0.5644(9) 1.0120(3)
H31 H 0.5368 0.5173 1.0109
C49 C 0.4940(4) 0.2947(9) 0.4225(3)
H32 H 0.5220 0.2412 0.4299
C50 C 0.5540(4) 0.6847(9) 0.9394(2)
C51 C 0.2320(5) 0.3967(11) 0.6406(3)
H33 H 0.2623 0.4469 0.6385
C52 C 0.0174(5) 0.0232(10) 1.0081(3)
H34 H -0.0115 -0.0312 1.0057
C53 C 0.2065(5) 0.4945(10) 0.9822(3)
C54 C 0.5105(5) 0.4409(10) 1.1379(3)
H35 H 0.5371 0.3869 1.1319
C55 C 0.1647(6) 0.2179(12) 1.0957(3)
C56 C 0.2839(4) 0.5084(9) 0.8501(3)
H36 H 0.3025 0.5276 0.8727
C57 C -0.0065(5) -0.1538(9) 0.3905(3)
C58 C 0.3628(5) 0.5397(12) 0.3888(3)
C59 C 0.5354(4) 0.4882(10) 0.5815(3)
C60 C 0.1100(5) 0.1447(11) 1.0870(3)
C61 C 0.2422(5) 1.1006(10) 0.9682(3)
H37 H 0.2575 1.1551 0.9524
H38 H 0.2366 1.1354 0.9912
H39 H 0.2059 1.0728 0.9572
C62 C 0.2046(5) 0.4004(11) 0.6714(3)
H40 H 0.1755 0.3483 0.6743
C63 C 0.3821(7) 0.8664(11) 1.0854(4)
H41 H 0.4153 0.8920 1.1006
H42 H 0.3496 0.9136 1.0891
H43 H 0.3900 0.8701 1.0602
C64 C 0.1894(5) 1.0109(10) 0.8351(3)
H44 H 0.1820 1.0542 0.8552
C65 C 0.2347(5) 0.4522(10) 0.8493(3)
H45 H 0.2180 0.4321 0.8262
C66 C 0.0451(6) -0.0750(14) 0.9330(5)
C67 C 0.1168(6) 0.0685(11) 0.3944(3)
C68 C 0.0681(5) -0.0101(9) 0.4060(3)
C69 C 0.1607(4) 0.3400(9) 0.8755(3)
H46 H 0.1497 0.3109 0.8524
C70 C 0.3386(5) 1.0476(10) 0.9944(3)
H47 H 0.3562 1.1006 0.9791
H48 H 0.3651 0.9870 1.0007
H49 H 0.3291 1.0847 1.0163
C71 C 0.3688(5) 0.7472(10) 1.0951(3)
C72 C 0.5117(5) 0.2482(10) 0.3600(3)
H50 H 0.5379 0.1952 0.3702
C73 C 0.3099(5) 0.5413(9) 0.8178(3)
C74 C 0.3157(6) 0.7062(14) 1.0720(4)
H51 H 0.2835 0.7541 1.0759
H52 H 0.3071 0.6303 1.0789
H53 H 0.3227 0.7080 1.0467
C75 C 0.4572(7) 0.1229(9) 0.5631(6)
H54 H 0.4963 0.1084 0.5617
C76 C 0.0851(5) 0.0894(11) 1.1146(3)
H55 H 0.1001 0.1026 1.1386
C77 C 0.2035(4) 0.4176(11) 0.8801(3)
C78 C 0.0387(5) -0.0810(10) 0.3820(3)
H56 H 0.0489 -0.0817 0.3581
C79 C 0.2454(5) 0.7791(9) 0.6583(3)
H57 H 0.2668 0.7181 0.6680
C80 C 0.2188(5) 0.4832(9) 0.7005(3)
C81 C 0.2133(5) 0.1725(13) 1.0741(4)
H58 H 0.2211 0.0953 1.0806
H59 H 0.2476 0.2167 1.0797
H60 H 0.2016 0.1772 1.0484
C82 C 0.2654(5) 0.9700(10) 0.9064(3)
H61 H 0.2389 1.0287 0.9068
O26 O 0.5671(4) 0.0999(8) 0.3174(2)
O27 O 0.4996(5) 0.3640(9) 1.2313(2)
H62 H 0.5112 0.3113 1.2444
O28 O -0.0949(4) -0.3982(9) 0.3256(2)
O29 O -0.0448(5) -0.1806(9) 1.1833(2)
C83 C -0.0581(5) -0.3433(11) 0.3106(3)
C84 C 0.5073(5) 0.2556(9) 0.3247(3)
H63 H 0.4838 0.3112 0.3133
C85 C -0.0345(5) -0.2291(10) 0.3643(3)
H64 H -0.0646 -0.2682 0.3736
C86 C 0.0008(7) -0.1258(12) 1.1972(4)
C87 C -0.0182(5) -0.1541(10) 0.4258(3)
H65 H -0.0461 -0.2041 0.4327
C88 C 0.5380(5) 0.1790(10) 0.3023(3)
C89 C 0.5680(5) 0.7696(9) 0.9646(3)
H66 H 0.5514 0.7732 0.9867
C90 C 0.5163(7) 0.3475(14) 1.1960(3)
C91 C 0.0289(5) -0.0450(10) 1.1734(3)
H67 H 0.0575 0.0043 1.1831
C92 C 0.2674(5) 0.7325(10) 0.4681(3)
H68 H 0.2312 0.7096 0.4763
H69 H 0.2913 0.6674 0.4656
H70 H 0.2607 0.7696 0.4449
C93 C 0.5797(5) 0.6800(11) 0.9066(3)
H71 H 0.5702 0.6218 0.8901
C94 C 0.1863(7) 0.2170(15) 1.1353(3)
H72 H 0.1949 0.1409 1.1429
H73 H 0.1572 0.2474 1.1494
H74 H 0.2207 0.2620 1.1390
C95 C 0.3554(6) 0.8498(10) 0.4809(4)
H75 H 0.3756 0.9020 0.4976
H76 H 0.3472 0.8852 0.4575
H77 H 0.3790 0.7843 0.4784
C96 C 0.2481(5) 0.2435(9) 0.4861(3)
H78 H 0.2839 0.2246 0.4999
H79 H 0.2557 0.2699 0.4623
H80 H 0.2238 0.1779 0.4837
C97 C -0.0487(6) 0.1859(11) 0.9149(4)
C98 C 0.3798(6) 0.6597(11) 0.4007(4)
H81 H 0.4146 0.6809 0.3902
H82 H 0.3862 0.6627 0.4269
H83 H 0.3493 0.7108 0.3925
C99 C 0.0121(6) -0.0450(10) 1.1375(3)
H84 H -0.0204 -0.0882 1.1302
C100 C -0.0281(5) -0.2561(10) 0.3312(3)
H85 H -0.0013 -0.2147 0.3194
C101 C 0.2373(5) 0.4094(10) 1.0096(3)
H86 H 0.2720 0.3826 1.0003
H87 H 0.2120 0.3468 1.0129
H88 H 0.2468 0.4461 1.0327
C102 C 0.3044(6) 0.4965(15) 0.4029(4)
H89 H 0.3090 0.4901 0.4290
H90 H 0.2948 0.4240 0.3924
H91 H 0.2740 0.5491 0.3958
C103 C 0.6078(5) 0.8488(10) 0.9553(4)
H92 H 0.6179 0.9067 0.9718
C104 C 0.1010(7) 0.1931(13) 0.4014(4)
H93 H 0.1312 0.2414 0.3942
H94 H 0.0969 0.2036 0.4270
H95 H 0.0653 0.2115 0.3875
C105 C 0.2568(5) 0.4373(10) 0.5091(3)
H96 H 0.2934 0.4167 0.5217
H97 H 0.2393 0.4954 0.5226
H98 H 0.2627 0.4647 0.4852
C106 C 0.1604(5) 0.3718(11) 0.4854(3)
H99 H 0.1672 0.3989 0.4616
H100 H 0.1434 0.4308 0.4988
H101 H 0.1346 0.3085 0.4831
C107 C 0.2980(5) 0.8142(9) 0.4961(3)
C108 C 0.5668(6) 0.4954(13) 0.6151(4)
H102 H 0.5539 0.4582 0.6351
C109 C 0.4951(6) 0.4393(11) 1.1720(3)
H103 H 0.4714 0.4952 1.1802
C110 C 0.1529(6) 0.5380(11) 0.9968(4)
H104 H 0.1346 0.5917 0.9800
H105 H 0.1627 0.5738 1.0200
H106 H 0.1269 0.4764 0.9998
C111 C 0.4900(5) 0.5177(10) 1.1098(3)
C112 C 0.2178(5) 0.3357(8) 0.5059(2)
C113 C -0.0587(4) 0.1051(8) 0.5417(3)
H107 H -0.0443 0.1131 0.5191
C114 C -0.0396(4) 0.0175(8) 0.5642(2)
C115 C 0.4312(4) 0.4708(9) 0.9150(2)
C116 C 0.4804(5) 0.3134(10) 0.3859(3)
C117 C 0.4381(5) 0.3938(9) 0.3763(3)
H108 H 0.4281 0.4061 0.3516
C118 C 0.0858(4) -0.1922(8) 0.5809(3)
C119 C -0.0635(5) 0.0094(10) 0.5974(3)
H109 H -0.0512 -0.0489 0.6132
C120 C 0.2576(5) 0.9159(11) 1.0011(3)
H110 H 0.2834 0.8536 1.0063
H111 H 0.2214 0.8887 0.9897
H112 H 0.2512 0.9537 1.0235
C121 C 0.3922(6) 0.4374(10) 0.9386(3)
H113 H 0.3815 0.4872 0.9564
O30 O -0.0098(5) 1.062(3) 0.7921(3)
H114 H -0.0368 1.0805 0.8050
H115 H -0.0052 0.9926 0.7867
C122 C 0.4439(6) 0.3979(10) 0.8873(3)
H116 H 0.4692 0.4196 0.8704
C123 C 0.2612(7) 0.9233(12) 0.4959(4)
H117 H 0.2245 0.9066 0.5046
H118 H 0.2553 0.9522 0.4714
H119 H 0.2810 0.9786 0.5114
C124 C 0.0762(6) -0.2634(10) 0.6094(4)
H120 H 0.0551 -0.2394 0.6283
C125 C 0.3647(7) 0.0509(11) 0.5772(6)
H121 H 0.3420 -0.0068 0.5854
C126 C 0.1186(6) -0.2297(9) 0.5538(4)
H122 H 0.1262 -0.1812 0.5349
C127 C 0.1718(6) 0.0361(14) 0.4147(4)
H123 H 0.1803 -0.0412 0.4096
H124 H 0.1688 0.0449 0.4405
H125 H 0.2022 0.0835 0.4075
C128 C 0.5542(5) 0.5471(11) 0.5525(4)
H126 H 0.5314 0.5473 0.5303
C129 C -0.1044(6) 0.0831(12) 0.6080(4)
H127 H -0.1205 0.0723 0.6300
C130 C 0.0989(6) -0.3724(11) 0.6092(4)
H128 H 0.0933 -0.4194 0.6288
C131 C 0.6333(7) 0.8458(12) 0.9229(4)
H129 H 0.6599 0.9008 0.9178
C132 C 0.3802(4) 0.2462(11) 0.5641(4)
H130 H 0.3646 0.3183 0.5618
C133 C 0.3502(7) 0.5448(17) 0.3466(4)
H131 H 0.3836 0.5731 0.3360
H132 H 0.3179 0.5939 0.3404
H133 H 0.3412 0.4705 0.3374
C134 C 0.4182(7) 0.2920(13) 0.8852(4)
H134 H 0.4259 0.2441 0.8662
C135 C 0.3562(8) 0.7460(15) 1.1337(4)
H135 H 0.3891 0.7736 1.1488
H136 H 0.3478 0.6702 1.1408
H137 H 0.3234 0.7933 1.1367
C136 C 0.3450(6) 0.1590(10) 0.5722(4)
H138 H 0.3062 0.1739 0.5744
C137 C 0.0156(5) -0.0077(12) 1.0722(3)
H139 H -0.0141 -0.0599 1.0675
C138 C 0.1320(5) 0.3020(9) 0.9071(3)
C139 C 0.0379(6) 0.0496(12) 1.0432(3)
C140 C 0.0380(5) 0.0136(11) 1.1086(3)
C141 C 0.3819(6) 0.2556(11) 0.9103(4)
H140 H 0.3668 0.1828 0.9095
C142 C 0.1505(6) 0.3375(12) 1.0859(4)
H141 H 0.1361 0.3418 1.0607
H142 H 0.1847 0.3829 1.0901
H143 H 0.1216 0.3646 1.1008
C143 C 0.1406(6) -0.3392(10) 0.5543(4)
H144 H 0.1633 -0.3621 0.5360
C144 C -0.0688(6) 0.2296(13) 0.9464(4)
H145 H -0.0483 0.2169 0.9690
C145 C 0.3688(6) 0.3310(10) 0.9363(4)
H146 H 0.3432 0.3096 0.9531
C146 C -0.1196(7) 0.2925(16) 0.9442(6)
H147 H -0.1317 0.3265 0.9650
C147 C 0.1293(7) -0.4146(13) 0.5817(4)
H148 H 0.1414 -0.4893 0.5815
C148 C -0.0812(7) 0.2045(14) 0.8818(4)
H149 H -0.0675 0.1755 0.8607
C149 C 0.1253(7) 0.0528(15) 0.3556(4)
H150 H 0.1356 -0.0243 0.3514
H151 H 0.1558 0.1014 0.3491
H152 H 0.0903 0.0710 0.3409
C150 C 0.6191(5) 0.7613(11) 0.8982(4)
H153 H 0.6358 0.7587 0.8762
C151 C 0.4207(6) 0.0343(13) 0.5692(6)
H154 H 0.4345 -0.0391 0.5677
C152 C 0.1039(6) -0.0777(15) 0.9357(5)
H155 H 0.1237 -0.0162 0.9464
C153 C 0.6177(6) 0.5574(15) 0.6194(5)
H156 H 0.6390 0.5635 0.6420
C154 C 0.1298(4) 0.0624(8) 0.5916(3)
H157 H 0.1323 0.0351 0.6154
C155 C 0.3986(4) 0.5495(8) 0.5870(3)
H158 H 0.4063 0.5324 0.6117
C156 C -0.0995(5) 0.1819(11) 0.5523(4)
H159 H -0.1120 0.2400 0.5364
C157 C -0.1215(7) 0.1734(14) 0.5858(4)
H160 H -0.1472 0.2270 0.5932
C158 C 0.6062(5) 0.6064(13) 0.5552(4)
H161 H 0.6202 0.6417 0.5352
C159 C 0.6351(7) 0.6093(17) 0.5889(4)
H162 H 0.6695 0.6497 0.5916
C160 C -0.1524(10) 0.3043(19) 0.9106(5)
H163 H -0.1881 0.3400 0.9098
C161 C -0.1332(7) 0.2643(16) 0.8783(6)
H164 H -0.1538 0.2765 0.8557
C162 C 0.1522(5) 1.0264(10) 0.8034(3)
N9 N 0.2950(6) 1.1455(11) 0.7679(4)
C163 C 0.2569(6) 1.0879(14) 0.7492(4)
H165 H 0.2641 1.0112 0.7471
C164 C 0.1170(7) -0.2616(16) 0.9072(6)
H166 H 0.1394 -0.3203 0.8994
C165 C 0.3435(8) 1.0875(17) 0.7869(7)
H167 H 0.3405 1.0082 0.7818
H168 H 0.3434 1.0997 0.8127
H169 H 0.3788 1.1161 0.7787
C166 C 0.2875(9) 1.2615(14) 0.7734(7)
H170 H 0.2523 1.2859 0.7600
H171 H 0.3195 1.3020 0.7650
H172 H 0.2856 1.2761 0.7990
C167 C 0.1359(8) -0.1647(14) 0.9238(5)
H173 H 0.1758 -0.1563 0.9275
C168 C 0.3064(4) 0.7632(8) 0.5329(3)
C169 C 0.0580(7) -0.2547(18) 0.9045(7)
H174 H 0.0377 -0.3062 0.8891
O31 O 0.4832(5) 0.5081(13) 0.7902(4)
H175 H 0.5175 0.5334 0.7916
H176 H 0.4771 0.4389 0.7945
C170 C 0.2451(6) 0.5950(11) 0.9791(4)
H177 H 0.2262 0.6489 0.9626
H178 H 0.2807 0.5714 0.9701
H179 H 0.2532 0.6291 1.0027
Cl1 Cl 0.32826(15) 0.7883(3) 0.75643(10)
C171 C 0.0257(8) -0.1785(14) 0.9224(6)
H180 H -0.0113 -0.1994 0.9274
Cd2A Cd -0.13483(3) -0.51621(6) 0.283354(18)
Cd3A Cd 0.59584(4) 0.13183(7) 0.22548(2)
Cd3A_2 Cd 0.59584(4) 0.13183(7) 1.22548(2)
Cd4A Cd -0.05657(4) -0.28162(7) 0.22977(2)
Cd4A_2 Cd -0.05657(4) -0.28162(7) 1.22977(2)
O5A O 0.4618(4) 0.6993(7) 0.7321(2)
O7A O 0.4534(4) 0.7708(8) 0.8109(2)
O19A O -0.0157(5) 1.3643(9) 0.7710(2)
O25A O 0.0493(4) 1.1252(7) 0.72021(19)
O28A O 0.0949(4) 1.1018(9) 0.6744(2)
O29A O 0.0448(5) 1.3194(9) 0.8167(2)
loop_
_geom_bond_atom_site_label_1
_geom_bond_atom_site_label_2
_geom_bond_site_symmetry_1
_geom_bond_site_symmetry_2
Cd1 O4 1_555 1_555
Cd2 O4 1_555 1_555
Cd3 O9 1_555 1_555
Cd4 O20 1_555 1_555
Ni1 O15 1_555 1_555
Ni2 O3 1_555 1_555
Ni3 O1 1_555 1_555
Ni4 N7 1_555 1_555
O1 C1 1_555 1_555
O2 Ni3 1_555 1_555
C1 C6 1_555 1_555
N1 Ni3 1_555 1_555
C2 C5 1_555 1_555
N2 Ni3 1_555 1_555
C3 N1 1_555 1_555
H1 C3 1_555 1_555
C4 N2 1_555 1_555
H2 C4 1_555 1_555
C5 H3 1_555 1_555
C6 C10 1_555 1_555
C7 C8 1_555 1_555
C8 O2 1_555 1_555
C9 C7 1_555 1_555
H4 C9 1_555 1_555
C10 C61 1_555 1_555
C11 H5 1_555 1_555
C12 C8 1_555 1_555
C13 N1 1_555 1_555
H6 C13 1_555 1_555
C14 C1 1_555 1_555
O3 C16 1_555 1_555
O4 C22 1_555 1_555
O5 C88 1_555 1_555
O6 Cd1 1_555 1_555
O7 C90 1_555 1_555
O8 Cd2 1_555 1_555
O9 H7 1_555 1_555
H8 O9 1_555 1_555
N3 Ni2 1_555 1_555
O10 Ni2 1_555 1_555
O11 Cd3 1_555 1_555
O12 Cd2 1_555 1_555
O13 Cd1 1_555 1_555
H9 O13 1_555 1_555
H10 O13 1_555 1_555
O14 Cd1 1_555 1_555
N4 Ni2 1_555 1_555
O15 C44 1_555 1_555
O16 Ni1 1_555 1_555
N5 Ni1 1_555 1_555
C15 C16 1_555 1_555
N6 Ni1 1_555 1_555
C16 C17 1_555 1_555
C17 C41 1_555 1_555
C18 C15 1_555 1_555
H11 C18 1_555 1_555
C19 C18 1_555 1_555
O17 Cd1 1_555 1_555
C20 N6 1_555 1_555
H12 C20 1_555 1_555
O18 Cd2 1_555 1_555
C21 N6 1_555 1_555
H13 C21 1_555 1_555
C22 O12 1_555 1_555
O19 C86 1_555 1_555
O20 C162 1_555 1_555
C23 C24 1_555 1_555
C24 O16 1_555 1_555
O21 Cd2 1_555 1_555
H14 O21 1_555 1_555
H15 O21 1_555 1_555
O22 Cd4 1_555 1_555
H16 O22 1_555 1_555
H17 O22 1_555 1_555
C25 C21 1_555 1_555
N7 C27 1_555 1_555
O23 Ni4 1_555 1_555
O24 Ni4 1_555 1_555
C26 O24 1_555 1_555
C27 H18 1_555 1_555
C28 N7 1_555 1_555
H19 C28 1_555 1_555
C29 N4 1_555 1_555
H20 C29 1_555 1_555
C30 O10 1_555 1_555
C31 N3 1_555 1_555
H21 C31 1_555 1_555
C32 N3 1_555 1_555
H22 C32 1_555 1_555
C33 O23 1_555 1_555
C34 C28 1_555 1_555
H23 C34 1_555 1_555
C35 C30 1_555 1_555
N8 Ni4 1_555 1_555
C36 C44 1_555 1_555
C37 C20 1_555 1_555
C38 N5 1_555 1_555
H24 C38 1_555 1_555
C39 H25 1_555 1_555
C40 C33 1_555 1_555
C41 C19 1_555 1_555
H26 C41 1_555 1_555
C42 C39 1_555 1_555
C43 C40 1_555 1_555
H27 C43 1_555 1_555
C44 C168 1_555 1_555
C45 C36 1_555 1_555
H28 C45 1_555 1_555
O25 C83 1_555 1_555
C46 C42 1_555 1_555
H29 C46 1_555 1_555
C47 C2 1_555 1_555
H30 C47 1_555 1_555
C48 N2 1_555 1_555
H31 C48 1_555 1_555
C49 C25 1_555 1_555
H32 C49 1_555 1_555
C50 C4 1_555 1_555
C51 C19 1_555 1_555
H33 C51 1_555 1_555
C52 N8 1_555 1_555
H34 C52 1_555 1_555
C53 C40 1_555 1_555
C54 H35 1_555 1_555
C55 C60 1_555 1_555
C56 H36 1_555 1_555
C57 C78 1_555 1_555
C58 C23 1_555 1_555
C59 C38 1_555 1_555
C60 C26 1_555 1_555
C61 H37 1_555 1_555
H38 C61 1_555 1_555
H39 C61 1_555 1_555
C62 C51 1_555 1_555
H40 C62 1_555 1_555
C63 H41 1_555 1_555
H42 C63 1_555 1_555
H43 C63 1_555 1_555
C64 C47 1_555 1_555
H44 C64 1_555 1_555
C65 C56 1_555 1_555
H45 C65 1_555 1_555
C66 C34 1_555 1_555
C67 C68 1_555 1_555
C68 C30 1_555 1_555
C69 H46 1_555 1_555
C70 C10 1_555 1_555
H47 C70 1_555 1_555
H48 C70 1_555 1_555
H49 C70 1_555 1_555
C71 C12 1_555 1_555
C72 H50 1_555 1_555
C73 O6 1_555 1_555
C74 C71 1_555 1_555
H51 C74 1_555 1_555
H52 C74 1_555 1_555
H53 C74 1_555 1_555
C75 C37 1_555 1_555
H54 C75 1_555 1_555
C76 C60 1_555 1_555
H55 C76 1_555 1_555
C77 C43 1_555 1_555
C78 C68 1_555 1_555
H56 C78 1_555 1_555
C79 C22 1_555 1_555
H57 C79 1_555 1_555
C80 O14 1_555 1_555
C81 C55 1_555 1_555
H58 C81 1_555 1_555
H59 C81 1_555 1_555
H60 C81 1_555 1_555
C82 C2 1_555 1_555
H61 C82 1_555 1_555
O26 C88 1_555 1_555
O27 H62 1_555 1_555
O28 C83 1_555 1_555
O29 C86 1_555 1_555
C83 C100 1_555 1_555
C84 C72 1_555 1_555
H63 C84 1_555 1_555
C85 C57 1_555 1_555
H64 C85 1_555 1_555
C86 C91 1_555 1_555
C87 C35 1_555 1_555
H65 C87 1_555 1_555
C88 C84 1_555 1_555
C89 C50 1_555 1_555
H66 C89 1_555 1_555
C90 O27 1_555 1_555
C91 H67 1_555 1_555
C92 H68 1_555 1_555
H69 C92 1_555 1_555
H70 C92 1_555 1_555
C93 C50 1_555 1_555
H71 C93 1_555 1_555
C94 C55 1_555 1_555
H72 C94 1_555 1_555
H73 C94 1_555 1_555
H74 C94 1_555 1_555
C95 H75 1_555 1_555
H76 C95 1_555 1_555
H77 C95 1_555 1_555
C96 H78 1_555 1_555
H79 C96 1_555 1_555
H80 C96 1_555 1_555
C97 C28 1_555 1_555
C98 C58 1_555 1_555
H81 C98 1_555 1_555
H82 C98 1_555 1_555
H83 C98 1_555 1_555
C99 C91 1_555 1_555
H84 C99 1_555 1_555
C100 C85 1_555 1_555
H85 C100 1_555 1_555
C101 C53 1_555 1_555
H86 C101 1_555 1_555
H87 C101 1_555 1_555
H88 C101 1_555 1_555
C102 C58 1_555 1_555
H89 C102 1_555 1_555
H90 C102 1_555 1_555
H91 C102 1_555 1_555
C103 C89 1_555 1_555
H92 C103 1_555 1_555
C104 C67 1_555 1_555
H93 C104 1_555 1_555
H94 C104 1_555 1_555
H95 C104 1_555 1_555
C105 H96 1_555 1_555
H97 C105 1_555 1_555
H98 C105 1_555 1_555
C106 H99 1_555 1_555
H100 C106 1_555 1_555
H101 C106 1_555 1_555
C107 C92 1_555 1_555
C108 C59 1_555 1_555
H102 C108 1_555 1_555
C109 C54 1_555 1_555
H103 C109 1_555 1_555
C110 C53 1_555 1_555
H104 C110 1_555 1_555
H105 C110 1_555 1_555
H106 C110 1_555 1_555
C111 C9 1_555 1_555
C112 C17 1_555 1_555
C113 H107 1_555 1_555
C114 C31 1_555 1_555
C115 C13 1_555 1_555
C116 C49 1_555 1_555
C117 C23 1_555 1_555
H108 C117 1_555 1_555
C118 C29 1_555 1_555
C119 C114 1_555 1_555
H109 C119 1_555 1_555
C120 C10 1_555 1_555
H110 C120 1_555 1_555
H111 C120 1_555 1_555
H112 C120 1_555 1_555
C121 C115 1_555 1_555
H113 C121 1_555 1_555
O30 Cd4 1_555 1_555
H114 O30 1_555 1_555
H115 O30 1_555 1_555
C122 C115 1_555 1_555
H116 C122 1_555 1_555
C123 C107 1_555 1_555
H117 C123 1_555 1_555
H118 C123 1_555 1_555
H119 C123 1_555 1_555
C124 C118 1_555 1_555
H120 C124 1_555 1_555
C125 H121 1_555 1_555
C126 C118 1_555 1_555
H122 C126 1_555 1_555
C127 C67 1_555 1_555
H123 C127 1_555 1_555
H124 C127 1_555 1_555
H125 C127 1_555 1_555
C128 C59 1_555 1_555
H126 C128 1_555 1_555
C129 C119 1_555 1_555
H127 C129 1_555 1_555
C130 C124 1_555 1_555
H128 C130 1_555 1_555
C131 C103 1_555 1_555
H129 C131 1_555 1_555
C132 C37 1_555 1_555
H130 C132 1_555 1_555
C133 C58 1_555 1_555
H131 C133 1_555 1_555
H132 C133 1_555 1_555
H133 C133 1_555 1_555
C134 C122 1_555 1_555
H134 C134 1_555 1_555
C135 C71 1_555 1_555
H135 C135 1_555 1_555
H136 C135 1_555 1_555
H137 C135 1_555 1_555
C136 C125 1_555 1_555
H138 C136 1_555 1_555
C137 H139 1_555 1_555
C138 C27 1_555 1_555
C139 C26 1_555 1_555
C140 C76 1_555 1_555
C141 C134 1_555 1_555
H140 C141 1_555 1_555
C142 C55 1_555 1_555
H141 C142 1_555 1_555
H142 C142 1_555 1_555
H143 C142 1_555 1_555
C143 C126 1_555 1_555
H144 C143 1_555 1_555
C144 C97 1_555 1_555
H145 C144 1_555 1_555
C145 C121 1_555 1_555
H146 C145 1_555 1_555
C146 C144 1_555 1_555
H147 C146 1_555 1_555
C147 C130 1_555 1_555
H148 C147 1_555 1_555
C148 C97 1_555 1_555
H149 C148 1_555 1_555
C149 C67 1_555 1_555
H150 C149 1_555 1_555
H151 C149 1_555 1_555
H152 C149 1_555 1_555
C150 C93 1_555 1_555
H153 C150 1_555 1_555
C151 C75 1_555 1_555
H154 C151 1_555 1_555
C152 C66 1_555 1_555
H155 C152 1_555 1_555
C153 C108 1_555 1_555
H156 C153 1_555 1_555
C154 N4 1_555 1_555
H157 C154 1_555 1_555
C155 N5 1_555 1_555
H158 C155 1_555 1_555
C156 C113 1_555 1_555
H159 C156 1_555 1_555
C157 C129 1_555 1_555
H160 C157 1_555 1_555
C158 C128 1_555 1_555
H161 C158 1_555 1_555
C159 C153 1_555 1_555
H162 C159 1_555 1_555
C160 C146 1_555 1_555
H163 C160 1_555 1_555
C161 C148 1_555 1_555
H164 C161 1_555 1_555
C162 O18 1_555 1_555
N9 C163 1_555 1_555
C163 O8 1_555 1_555
H165 C163 1_555 1_555
C164 H166 1_555 1_555
C165 N9 1_555 1_555
H167 C165 1_555 1_555
H168 C165 1_555 1_555
H169 C165 1_555 1_555
C166 N9 1_555 1_555
H170 C166 1_555 1_555
H171 C166 1_555 1_555
H172 C166 1_555 1_555
C167 C152 1_555 1_555
H173 C167 1_555 1_555
C168 C39 1_555 1_555
C169 C164 1_555 1_555
H174 C169 1_555 1_555
O31 Cd3 1_555 1_555
H175 O31 1_555 1_555
H176 O31 1_555 1_555
C170 C53 1_555 1_555
H177 C170 1_555 1_555
H178 C170 1_555 1_555
H179 C170 1_555 1_555
Cl1 Cd1 1_555 1_555
C171 C66 1_555 1_555
H180 C171 1_555 1_555
Cd2A O25 1_555 1_555
Cd3A O5 1_555 1_555
Cd3A_2 O7 1_555 1_555
Cd4A O25 1_555 1_555
Cd4A_2 O19 1_555 1_555
O5A Cd3 1_555 1_555
O7A Cd3 1_555 1_555
O19A Cd4 1_555 1_555
O25A Cd2 1_555 1_555
O28A Cd2 1_555 1_555
O29A Cd4 1_555 1_555
Cd3 Cl1 1_555 1_555
Cd4 O25A 1_555 1_555
C3 C14 1_555 1_555
C4 C13 1_555 1_555
C5 C14 1_555 1_555
C6 C82 1_555 1_555
C7 C48 1_555 1_555
C11 C12 1_555 1_555
C11 C111 1_555 1_555
O11 C73 1_555 1_555
C15 C154 1_555 1_555
O17 C80 1_555 1_555
C20 C38 1_555 1_555
C24 C25 1_555 1_555
C29 C31 1_555 1_555
C32 C35 1_555 1_555
C33 C138 1_555 1_555
C34 N8 1_555 1_555
C36 C155 1_555 1_555
C42 C45 1_555 1_555
C46 C79 1_555 1_555
C52 C139 1_555 1_555
C54 C111 1_555 1_555
C56 C73 1_555 1_555
C57 C87 1_555 1_555
C62 C80 1_555 1_555
C63 C71 1_555 1_555
C64 C162 1_555 1_555
C65 C77 1_555 1_555
C69 C77 1_555 1_555
C69 C138 1_555 1_555
C72 C116 1_555 1_555
O28 Cd2A 1_555 1_555
O29 Cd4A_2 1_555 1_555
C90 C109 1_555 1_555
C95 C107 1_555 1_555
C96 C112 1_555 1_555
C99 C140 1_555 1_555
C105 C112 1_555 1_555
C106 C112 1_555 1_555
C107 C168 1_555 1_555
C113 C114 1_555 1_555
C116 C117 1_555 1_555
C125 C151 1_555 1_555
C131 C150 1_555 1_555
C132 C136 1_555 1_555
C137 C139 1_555 1_555
C137 C140 1_555 1_555
C141 C145 1_555 1_555
C143 C147 1_555 1_555
C156 C157 1_555 1_555
C158 C159 1_555 1_555
C160 C161 1_555 1_555
C164 C167 1_555 1_555
C169 C171 1_555 1_555

#END
