
#######################################################################
#
#                 Cambridge Crystallographic Data Centre
#                                CCDC 
#
#######################################################################
#
# If this CIF has been generated from an entry in the Cambridge 
# Structural Database, then it will include bibliographic, chemical, 
# crystal, experimental, refinement or atomic coordinate data resulting 
# from the CCDC's data processing and validation procedures.
#
#######################################################################

data_VICYEN
_symmetry_cell_setting           triclinic
_symmetry_space_group_name_H-M   'P -1'
_symmetry_Int_Tables_number      2
_space_group_name_Hall           '-P 1'
loop_
_symmetry_equiv_pos_site_id
_symmetry_equiv_pos_as_xyz
1 x,y,z
2 -x,-y,-z
_cell_length_a                   9.2506(6)
_cell_length_b                   14.4032(10)
_cell_length_c                   27.384(2)
_cell_angle_alpha                97.587(6)
_cell_angle_beta                 93.139(6)
_cell_angle_gamma                106.920(5)
_cell_volume                     3443.35
loop_
_atom_site_label
_atom_site_type_symbol
_atom_site_fract_x
_atom_site_fract_y
_atom_site_fract_z
Zn1 Zn 0.29683(13) 0.11710(9) 0.84991(5)
Zn2 Zn 0.11104(14) 0.28793(9) 0.84581(5)
Br1 Br 0.3376(3) 0.1376(3) 0.54973(9)
O1 O 0.4101(7) 0.2430(4) 0.8900(2)
O2 O 0.3256(7) 0.3618(4) 0.8655(3)
O3 O 0.2671(8) 0.1383(6) 0.7824(3)
O4 O 0.0789(9) 0.2084(7) 0.7821(3)
O5 O 1.0956(7) 1.0523(4) 0.8663(3)
O6 O 1.0279(7) 1.1859(5) 0.8893(2)
O7 O 0.4493(7) 1.0518(5) 0.8548(3)
O8 O 0.3768(7) 1.0448(4) 0.9315(3)
O9 O 0.9593(7) 0.3545(5) 0.8552(3)
O10 O 1.0812(7) 0.4139(4) 0.9308(2)
O11 O 0.1608(13) 0.3927(9) 0.7853(4)
O12 O -0.592(3) -0.263(2) 0.6643(10)
O13 O -0.702(2) -0.1625(17) 0.6519(9)
N1 N 0.7469(8) 0.6670(5) 0.9598(3)
N2 N 0.7263(8) 0.8097(5) 0.9603(3)
C1 C 0.4242(11) 0.3309(7) 0.8862(4)
C2 C 0.5709(10) 0.4037(6) 0.9050(3)
C3 C 0.5870(10) 0.5038(6) 0.9260(3)
C4 C 0.7355(10) 0.5644(6) 0.9393(4)
C5 C 0.8666(10) 0.5373(7) 0.9346(3)
C6 C 0.8492(11) 0.4437(7) 0.9125(4)
C7 C 0.6975(10) 0.3774(7) 0.8983(4)
H1 H 0.6867 0.3120 0.8834
C8 C 0.4522(10) 0.5406(7) 0.9362(4)
H2 H 0.4720 0.5819 0.9687
H3 H 0.3613 0.4845 0.9357
H4 H 0.4359 0.5792 0.9106
C9 C 1.0192(11) 0.6114(7) 0.9497(4)
H5 H 1.0945 0.5933 0.9298
H6 H 1.0483 0.6128 0.9848
H7 H 1.0146 0.6764 0.9443
C10 C 0.7292(10) 0.7292(7) 0.9303(3)
C11 C 0.7553(10) 0.7058(7) 1.0081(4)
H8 H 0.7652 0.6748 1.0362
C12 C 0.7467(9) 0.7988(6) 1.0081(4)
H9 H 0.7538 0.8466 1.0363
C13 C 0.7311(10) 0.8984(6) 0.9412(3)
C14 C 0.5946(10) 0.9217(7) 0.9349(3)
C15 C 0.6036(10) 1.0035(7) 0.9132(4)
C16 C 0.7376(11) 1.0591(7) 0.8988(4)
H10 H 0.7389 1.1153 0.8839
C17 C 0.8743(10) 1.0339(6) 0.9057(3)
C18 C 0.8684(10) 0.9510(6) 0.9279(3)
C19 C 0.4523(11) 0.8586(7) 0.9513(4)
H11 H 0.3675 0.8834 0.9429
H12 H 0.4651 0.8602 0.9872
H13 H 0.4309 0.7909 0.9345
C20 C 1.0110(10) 0.9207(7) 0.9376(4)
H14 H 1.0137 0.9014 0.9706
H15 H 1.1011 0.9761 0.9359
H16 H 1.0099 0.8651 0.9126
C21 C 0.1598(15) 0.1585(11) 0.7588(5)
C22 C 0.1222(16) 0.1228(12) 0.7075(5)
C23 C 0.0381(18) 0.1555(14) 0.6804(5)
H17 H -0.0009 0.2050 0.6958
C24 C 0.000(2) 0.1242(15) 0.6302(6)
H18 H -0.0698 0.1476 0.6122
C25 C 0.0629(19) 0.0603(15) 0.6078(5)
C26 C 0.1393(18) 0.0138(14) 0.6356(6)
H19 H 0.1684 -0.0407 0.6208
C27 C 0.1722(16) 0.0471(13) 0.6845(5)
H20 H 0.2308 0.0183 0.7038
C28 C 0.028(2) 0.0312(18) 0.5522(6)
C29 C -0.123(2) -0.0303(17) 0.5315(6)
C30 C 0.150(2) 0.0661(19) 0.5210(6)
C31 C -0.2391(14) -0.0725(11) 0.5647(4)
C32 C -0.3539(17) -0.0295(9) 0.5729(5)
H21 H -0.3524 0.0284 0.5597
C33 C -0.4707(14) -0.0714(12) 0.6005(5)
H22 H -0.5491 -0.0420 0.6061
C34 C -0.4728(15) -0.1562(12) 0.6198(5)
C35 C -0.3581(19) -0.1992(10) 0.6116(6)
H23 H -0.3595 -0.2571 0.6249
C36 C -0.2412(15) -0.1573(12) 0.5841(5)
H24 H -0.1628 -0.1867 0.5784
C37 C -0.589(4) -0.192(3) 0.6492(15)
C38 C 1.0052(11) 1.0938(8) 0.8858(4)
C39 C 0.4621(12) 1.0363(7) 0.9007(5)
C40 C 0.9769(11) 0.4026(7) 0.9001(4)
Br1A Br -0.3376(3) -0.1376(3) 0.45027(9)
O3A O -0.2671(8) -0.1383(6) 0.2176(3)
O4A O -0.0789(9) -0.2084(7) 0.2179(3)
O12A O 0.592(3) 0.263(2) 0.3357(10)
O13A O 0.702(2) 0.1625(17) 0.3481(9)
C21A C -0.1598(15) -0.1585(11) 0.2412(5)
C22A C -0.1222(16) -0.1228(12) 0.2925(5)
C23A C -0.0381(18) -0.1555(14) 0.3196(5)
H17A H 0.0009 -0.2050 0.3042
C24A C 0.000(2) -0.1242(15) 0.3698(6)
H18A H 0.0698 -0.1476 0.3878
C25A C -0.0629(19) -0.0603(15) 0.3922(5)
C26A C -0.1393(18) -0.0138(14) 0.3644(6)
H19A H -0.1684 0.0407 0.3792
C27A C -0.1722(16) -0.0471(13) 0.3155(5)
H20A H -0.2308 -0.0183 0.2962
C28A C -0.028(2) -0.0312(18) 0.4478(6)
C29A C 0.123(2) 0.0303(17) 0.4685(6)
C30A C -0.150(2) -0.0661(19) 0.4790(6)
C31A C 0.2391(14) 0.0725(11) 0.4353(4)
C32A C 0.3539(17) 0.0295(9) 0.4271(5)
H21A H 0.3524 -0.0284 0.4403
C33A C 0.4707(14) 0.0714(12) 0.3995(5)
H22A H 0.5491 0.0420 0.3939
C34A C 0.4728(15) 0.1562(12) 0.3802(5)
C35A C 0.3581(19) 0.1992(10) 0.3884(6)
H23A H 0.3595 0.2571 0.3751
C36A C 0.2412(15) 0.1573(12) 0.4159(5)
H24A H 0.1628 0.1867 0.4216
C37A C 0.589(4) 0.192(3) 0.3508(15)
Zn1A Zn -0.29683(13) -0.11710(9) 0.15009(5)
Zn2A Zn -0.11104(14) -0.28793(9) 0.15419(5)
O1A O -0.4101(7) -0.2430(4) 0.1100(2)
O2A O -0.3256(7) -0.3618(4) 0.1345(3)
O5A O -1.0956(7) -1.0523(4) 0.1337(3)
O6A O -1.0279(7) -1.1859(5) 0.1107(2)
O7A O -0.4493(7) -1.0518(5) 0.1452(3)
O8A O -0.3768(7) -1.0448(4) 0.0685(3)
O9A O -0.9593(7) -0.3545(5) 0.1448(3)
O10A O -1.0812(7) -0.4139(4) 0.0692(2)
O11A O -0.1608(13) -0.3927(9) 0.2147(4)
N1A N -0.7469(8) -0.6670(5) 0.0402(3)
N2A N -0.7263(8) -0.8097(5) 0.0397(3)
C1A C -0.4242(11) -0.3309(7) 0.1138(4)
C2A C -0.5709(10) -0.4037(6) 0.0950(3)
C3A C -0.5870(10) -0.5038(6) 0.0740(3)
C4A C -0.7355(10) -0.5644(6) 0.0607(4)
C5A C -0.8666(10) -0.5373(7) 0.0654(3)
C6A C -0.8492(11) -0.4437(7) 0.0875(4)
C7A C -0.6975(10) -0.3774(7) 0.1017(4)
H1A H -0.6867 -0.3120 0.1166
C8A C -0.4522(10) -0.5406(7) 0.0638(4)
H2A H -0.4720 -0.5819 0.0313
H3A H -0.3613 -0.4845 0.0643
H4A H -0.4359 -0.5792 0.0894
C9A C -1.0192(11) -0.6114(7) 0.0503(4)
H5A H -1.0945 -0.5933 0.0702
H6A H -1.0483 -0.6128 0.0152
H7A H -1.0146 -0.6764 0.0557
C10A C -0.7292(10) -0.7292(7) 0.0697(3)
C11A C -0.7553(10) -0.7058(7) -0.0081(4)
H8A H -0.7652 -0.6748 -0.0362
C12A C -0.7467(9) -0.7988(6) -0.0081(4)
H9A H -0.7538 -0.8466 -0.0363
C13A C -0.7311(10) -0.8984(6) 0.0588(3)
C14A C -0.5946(10) -0.9217(7) 0.0651(3)
C15A C -0.6036(10) -1.0035(7) 0.0868(4)
C16A C -0.7376(11) -1.0591(7) 0.1012(4)
H10A H -0.7389 -1.1153 0.1161
C17A C -0.8743(10) -1.0339(6) 0.0943(3)
C18A C -0.8684(10) -0.9510(6) 0.0721(3)
C19A C -0.4523(11) -0.8586(7) 0.0487(4)
H11A H -0.3675 -0.8834 0.0571
H12A H -0.4651 -0.8602 0.0128
H13A H -0.4309 -0.7909 0.0655
C20A C -1.0110(10) -0.9207(7) 0.0624(4)
H14A H -1.0137 -0.9014 0.0294
H15A H -1.1011 -0.9761 0.0641
H16A H -1.0099 -0.8651 0.0874
C38A C -1.0052(11) -1.0938(8) 0.1142(4)
C39A C -0.4621(12) -1.0363(7) 0.0993(5)
C40A C -0.9769(11) -0.4026(7) 0.0999(4)
Zn1_2 Zn 0.29683(13) 1.11710(9) 0.84991(5)
Zn1_3 Zn 1.29683(13) 1.11710(9) 0.84991(5)
Zn1A_2 Zn -1.29683(13) -1.11710(9) 0.15009(5)
Zn1A_3 Zn -0.29683(13) -1.11710(9) 0.15009(5)
Zn2_2 Zn 1.11104(14) 0.28793(9) 0.84581(5)
Zn2_3 Zn 1.11104(14) 1.28793(9) 0.84581(5)
Zn2A_2 Zn -1.11104(14) -1.28793(9) 0.15419(5)
Zn2A_3 Zn -1.11104(14) -0.28793(9) 0.15419(5)
O5_2 O 0.0956(7) 0.0523(4) 0.8663(3)
O5A_2 O -0.0956(7) -0.0523(4) 0.1337(3)
O6_2 O 0.0279(7) 0.1859(5) 0.8893(2)
O6A_2 O -0.0279(7) -0.1859(5) 0.1107(2)
O7_2 O 0.4493(7) 0.0518(5) 0.8548(3)
O7A_2 O -0.4493(7) -0.0518(5) 0.1452(3)
O9_2 O -0.0407(7) 0.3545(5) 0.8552(3)
O9A_2 O 0.0407(7) -0.3545(5) 0.1448(3)
loop_
_geom_bond_atom_site_label_1
_geom_bond_atom_site_label_2
_geom_bond_site_symmetry_1
_geom_bond_site_symmetry_2
Zn1 O1 1_555 1_555
Zn2 O2 1_555 1_555
Br1 C30 1_555 1_555
O1 C1 1_555 1_555
O2 C1 1_555 1_555
O3 Zn1 1_555 1_555
O4 Zn2 1_555 1_555
O5 C38 1_555 1_555
O6 C38 1_555 1_555
O7 C39 1_555 1_555
O8 C39 1_555 1_555
O9 C40 1_555 1_555
O10 C40 1_555 1_555
O11 Zn2 1_555 1_555
O12 C37 1_555 1_555
O13 C37 1_555 1_555
N1 C4 1_555 1_555
N2 C10 1_555 1_555
C1 C2 1_555 1_555
C2 C3 1_555 1_555
C3 C4 1_555 1_555
C4 C5 1_555 1_555
C5 C6 1_555 1_555
C6 C7 1_555 1_555
C7 C2 1_555 1_555
H1 C7 1_555 1_555
C8 C3 1_555 1_555
H2 C8 1_555 1_555
H3 C8 1_555 1_555
H4 C8 1_555 1_555
C9 C5 1_555 1_555
H5 C9 1_555 1_555
H6 C9 1_555 1_555
H7 C9 1_555 1_555
C10 N1 1_555 1_555
C11 N1 1_555 1_555
H8 C11 1_555 1_555
C12 N2 1_555 1_555
H9 C12 1_555 1_555
C13 N2 1_555 1_555
C14 C13 1_555 1_555
C15 C14 1_555 1_555
C16 C15 1_555 1_555
H10 C16 1_555 1_555
C17 C16 1_555 1_555
C18 C13 1_555 1_555
C19 C14 1_555 1_555
H11 C19 1_555 1_555
H12 C19 1_555 1_555
H13 C19 1_555 1_555
C20 C18 1_555 1_555
H14 C20 1_555 1_555
H15 C20 1_555 1_555
H16 C20 1_555 1_555
C21 O3 1_555 1_555
C22 C21 1_555 1_555
C23 C22 1_555 1_555
H17 C23 1_555 1_555
C24 C23 1_555 1_555
H18 C24 1_555 1_555
C25 C24 1_555 1_555
C26 C25 1_555 1_555
H19 C26 1_555 1_555
C27 C22 1_555 1_555
H20 C27 1_555 1_555
C28 C25 1_555 1_555
C29 C28 1_555 1_555
C30 C28 1_555 1_555
C31 C29 1_555 1_555
C32 C31 1_555 1_555
H21 C32 1_555 1_555
C33 C32 1_555 1_555
H22 C33 1_555 1_555
C34 C33 1_555 1_555
C35 C34 1_555 1_555
H23 C35 1_555 1_555
C36 C31 1_555 1_555
H24 C36 1_555 1_555
C37 C34 1_555 1_555
C38 C17 1_555 1_555
C39 C15 1_555 1_555
C40 C6 1_555 1_555
Br1A C30A 1_555 1_555
O3A C21A 1_555 1_555
O4A C21A 1_555 1_555
O12A C37A 1_555 1_555
O13A C37A 1_555 1_555
C21A C22A 1_555 1_555
C22A C23A 1_555 1_555
C23A H17A 1_555 1_555
C24A C23A 1_555 1_555
H18A C24A 1_555 1_555
C25A C24A 1_555 1_555
C26A C25A 1_555 1_555
H19A C26A 1_555 1_555
C27A C22A 1_555 1_555
H20A C27A 1_555 1_555
C28A C25A 1_555 1_555
C29A C30 1_555 1_555
C30A C29 1_555 1_555
C31A C29A 1_555 1_555
C32A C31A 1_555 1_555
H21A C32A 1_555 1_555
C33A C32A 1_555 1_555
H22A C33A 1_555 1_555
C34A C33A 1_555 1_555
C35A C34A 1_555 1_555
H23A C35A 1_555 1_555
C36A C31A 1_555 1_555
H24A C36A 1_555 1_555
C37A C34A 1_555 1_555
Zn1A O3A 1_555 1_555
Zn2A O4A 1_555 1_555
O1A Zn1A 1_555 1_555
O2A Zn2A 1_555 1_555
O5A C38A 1_555 1_555
O6A C38A 1_555 1_555
O7A C39A 1_555 1_555
O8A C39A 1_555 1_555
O9A C40A 1_555 1_555
O10A C40A 1_555 1_555
O11A Zn2A 1_555 1_555
N1A C4A 1_555 1_555
N2A C10A 1_555 1_555
C1A O1A 1_555 1_555
C2A C1A 1_555 1_555
C3A C2A 1_555 1_555
C4A C3A 1_555 1_555
C5A C4A 1_555 1_555
C6A C5A 1_555 1_555
C7A C2A 1_555 1_555
H1A C7A 1_555 1_555
C8A C3A 1_555 1_555
H2A C8A 1_555 1_555
H3A C8A 1_555 1_555
H4A C8A 1_555 1_555
C9A C5A 1_555 1_555
H5A C9A 1_555 1_555
H6A C9A 1_555 1_555
H7A C9A 1_555 1_555
C10A N1A 1_555 1_555
C11A N1A 1_555 1_555
H8A C11A 1_555 1_555
C12A N2A 1_555 1_555
H9A C12A 1_555 1_555
C13A N2A 1_555 1_555
C14A C13A 1_555 1_555
C15A C14A 1_555 1_555
C16A C15A 1_555 1_555
H10A C16A 1_555 1_555
C17A C16A 1_555 1_555
C18A C13A 1_555 1_555
C19A C14A 1_555 1_555
H11A C19A 1_555 1_555
H12A C19A 1_555 1_555
H13A C19A 1_555 1_555
C20A C18A 1_555 1_555
H14A C20A 1_555 1_555
H15A C20A 1_555 1_555
H16A C20A 1_555 1_555
C38A C17A 1_555 1_555
C39A C15A 1_555 1_555
C40A C6A 1_555 1_555
Zn1_2 O7 1_555 1_555
Zn1_3 O5 1_555 1_555
Zn1A_2 O5A 1_555 1_555
Zn1A_3 O7A 1_555 1_555
Zn2_2 O9 1_555 1_555
Zn2_3 O6 1_555 1_555
Zn2A_2 O6A 1_555 1_555
Zn2A_3 O9A 1_555 1_555
O5_2 Zn1 1_555 1_555
O5A_2 Zn1A 1_555 1_555
O6_2 Zn2 1_555 1_555
O6A_2 Zn2A 1_555 1_555
O7_2 Zn1 1_555 1_555
O7A_2 Zn1A 1_555 1_555
O9_2 Zn2 1_555 1_555
O9A_2 Zn2A 1_555 1_555
O4 C21 1_555 1_555
C11 C12 1_555 1_555
C17 C18 1_555 1_555
C26 C27 1_555 1_555
C35 C36 1_555 1_555
C26A C27A 1_555 1_555
C28A C29A 1_555 1_555
C28A C30A 1_555 1_555
C35A C36A 1_555 1_555
O2A C1A 1_555 1_555
C6A C7A 1_555 1_555
C11A C12A 1_555 1_555
C17A C18A 1_555 1_555

#END
