
#######################################################################
#
#                 Cambridge Crystallographic Data Centre
#                                CCDC 
#
#######################################################################
#
# If this CIF has been generated from an entry in the Cambridge 
# Structural Database, then it will include bibliographic, chemical, 
# crystal, experimental, refinement or atomic coordinate data resulting 
# from the CCDC's data processing and validation procedures.
#
#######################################################################

data_VIGNOQ
_symmetry_cell_setting           triclinic
_symmetry_space_group_name_H-M   'P -1'
_symmetry_Int_Tables_number      2
_space_group_name_Hall           '-P 1'
loop_
_symmetry_equiv_pos_site_id
_symmetry_equiv_pos_as_xyz
1 x,y,z
2 -x,-y,-z
_cell_length_a                   12.004(5)
_cell_length_b                   13.943(5)
_cell_length_c                   22.746(5)
_cell_angle_alpha                95.776(5)
_cell_angle_beta                 105.206(5)
_cell_angle_gamma                104.265(5)
_cell_volume                     3504.44
loop_
_atom_site_label
_atom_site_type_symbol
_atom_site_fract_x
_atom_site_fract_y
_atom_site_fract_z
C1 C 0.7851(16) 0.3409(14) 0.7425(9)
C2 C 0.6952(17) 0.2870(13) 0.6848(9)
C3 C 0.7120(18) 0.2224(16) 0.6471(10)
H1 H 0.7850 0.2071 0.6572
C4 C 0.628(2) 0.1750(19) 0.5928(11)
H2 H 0.6472 0.1289 0.5674
C5 C 0.501(2) 0.2582(17) 0.6138(10)
H3 H 0.4273 0.2718 0.6031
C6 C 0.5841(16) 0.3073(15) 0.6690(10)
H4 H 0.5667 0.3532 0.6953
C7 C 1.0143(19) 0.3526(17) 0.5489(10)
C8 C 1.100(2) 0.4525(17) 0.5547(12)
C9 C 1.1730(18) 0.4635(17) 0.5126(11)
H5 H 1.1629 0.4091 0.4825
C10 C 1.252(2) 0.548(2) 0.5163(13)
H6 H 1.3014 0.5549 0.4905
C11 C 1.1154(19) 0.5330(16) 0.5933(12)
H7 H 1.0659 0.5313 0.6187
C12 C 1.201(2) 0.6192(16) 0.5977(13)
H8 H 1.2152 0.6721 0.6296
C13 C 1.3125(19) 0.3253(15) 0.7545(9)
C14 C 1.2937(16) 0.2398(14) 0.7085(9)
C15 C 1.2200(18) 0.2265(15) 0.6498(10)
H9 H 1.1831 0.2753 0.6369
C16 C 1.2011(19) 0.1387(15) 0.6096(10)
H10 H 1.1532 0.1313 0.5690
C17 C 1.359(2) 0.1653(15) 0.7232(11)
H11 H 1.4238 0.1760 0.7586
C18 C 1.317(2) 0.0807(17) 0.6816(11)
H12 H 1.3418 0.0255 0.6935
C19 C 1.2211(18) 0.5762(14) 1.0099(9)
C20 C 1.1352(17) 0.6405(14) 1.0147(9)
C21 C 1.165(2) 0.7237(16) 1.0537(10)
H13 H 1.2412 0.7480 1.0822
C22 C 1.078(2) 0.7762(19) 1.0516(12)
H14 H 1.0977 0.8348 1.0803
C23 C 0.9455(18) 0.6625(15) 0.9713(11)
H15 H 0.8703 0.6398 0.9417
C24 C 1.0229(17) 0.6056(14) 0.9700(9)
H16 H 1.0020 0.5471 0.9411
C25 C 1.424(2) 0.8242(16) 0.9970(14)
C26 C 1.363(2) 0.9088(17) 1.0018(12)
C27 C 1.398(2) 0.9785(17) 1.0530(12)
H17 H 1.4561 0.9755 1.0882
C28 C 1.342(2) 1.0572(19) 1.0516(15)
H18 H 1.3645 1.1077 1.0860
C29 C 1.279(3) 0.9168(19) 0.9503(15)
H19 H 1.2540 0.8669 0.9154
C30 C 1.232(2) 0.990(2) 0.9482(15)
H20 H 1.1815 0.9967 0.9108
N1 N 0.7576(14) 0.3804(12) 0.7933(8)
N2 N 0.8663(14) 0.4280(12) 0.8360(7)
N3 N 0.9519(13) 0.4170(12) 0.8104(8)
N4 N 0.5228(15) 0.1896(13) 0.5737(7)
N5 N 0.9741(15) 0.3144(13) 0.5938(8)
N6 N 0.8995(15) 0.2235(13) 0.5661(8)
N7 N 0.9029(16) 0.2071(12) 0.5089(8)
N8 N 0.9778(16) 0.2865(12) 0.4957(8)
N9 N 1.2611(18) 0.6308(16) 0.5615(12)
N10 N 1.2226(13) 0.3685(11) 0.7572(7)
N11 N 1.2660(15) 0.4386(12) 0.8073(9)
N12 N 1.3790(15) 0.4405(12) 0.8339(8)
N13 N 1.4101(14) 0.3691(12) 0.8024(8)
N14 N 1.2447(16) 0.0681(13) 0.6246(8)
N15 N 1.2174(14) 0.5186(11) 0.9609(7)
N16 N 1.3020(15) 0.4785(12) 0.9785(8)
N17 N 1.3614(15) 0.5099(12) 1.0343(8)
N18 N 1.3118(14) 0.5773(12) 1.0594(7)
N19 N 0.9661(15) 0.7457(12) 1.0100(8)
N20 N 1.3992(16) 0.7518(15) 0.9484(10)
N21 N 1.4706(19) 0.6973(14) 0.9694(11)
N22 N 1.5397(19) 0.7339(15) 1.0258(11)
N23 N 1.508(2) 0.8141(14) 1.0472(12)
N24 N 1.2540(18) 1.0582(16) 0.9990(11)
O1 O 1.6775(11) 0.8156(9) 0.6297(6)
O2 O 1.8470(11) 0.7457(9) 0.7092(6)
O3 O 1.878(3) 0.745(2) 1.1373(13)
O4 O 1.6262(10) 0.7369(9) 0.7339(6)
O5 O 1.8344(12) 1.1085(9) 0.7448(6)
O6 O 1.7838(11) 1.0341(9) 0.8423(6)
O7 O 1.9967(11) 1.0450(9) 0.8229(6)
O8 O 1.9616(13) 0.9897(11) 0.9312(6)
O9 O 1.8013(10) 0.9255(9) 0.7518(5)
O10 O 1.3423(13) 0.8064(11) 0.7542(8)
O11 O 1.7647(11) 0.8356(10) 0.8545(6)
O12 O 1.8571(12) 1.0018(9) 0.6487(6)
O13 O 1.5735(12) 0.9194(10) 0.7706(6)
O14 O 1.6299(12) 1.1305(10) 0.7748(6)
O15 O 1.6127(12) 0.9894(10) 0.6742(6)
O16 O 1.4123(12) 0.9371(10) 0.5695(7)
O17 O 1.7140(12) 0.6280(10) 0.5909(6)
O18 O 1.6664(12) 0.5566(10) 0.6866(6)
O19 O 1.4188(13) 0.4579(10) 0.6632(7)
O20 O 1.8477(14) 0.9653(10) 0.5260(7)
O21 O 1.6778(12) 0.6659(11) 0.9004(7)
O22 O 1.4507(12) 0.8149(9) 0.6590(6)
O23 O 1.6367(12) 0.9423(10) 0.5590(6)
O24 O 2.0622(13) 1.1428(10) 0.7313(7)
O25 O 2.0622(12) 0.6881(11) 0.8577(7)
O26 O 2.1391(12) 0.8310(9) 0.6531(7)
O27 O 1.5303(11) 0.7468(10) 0.8185(6)
O28 O 1.8183(12) 0.6747(10) 0.8166(6)
O29 O 1.6889(12) 0.7777(9) 0.5201(6)
O30 O 1.4765(12) 0.7631(10) 0.5465(6)
O31 O 1.9754(12) 0.8505(10) 0.8334(7)
O32 O 1.9120(12) 0.5948(9) 0.7404(6)
O33 O 1.5737(11) 0.5750(9) 0.7761(6)
O34 O 1.4056(11) 0.6462(9) 0.7059(7)
O35 O 2.0740(12) 0.7717(10) 0.7547(6)
O36 O 2.0205(12) 0.9371(10) 0.7201(7)
O37 O 1.5118(11) 0.6186(9) 0.6105(6)
O38 O 1.9003(12) 0.8378(10) 0.6092(6)
O39 O 1.9535(12) 0.6650(9) 0.6406(6)
O40 O 1.8062(13) 0.4661(10) 0.6277(7)
O41 O 1.5153(13) 0.5982(10) 0.4872(7)
Na1 Na 1.2905(9) 0.6981(8) 0.8432(4)
Ge1 Ge 1.73910(18) 0.80577(14) 0.70606(9)
Mo1 Mo 1.95998(16) 1.03834(13) 0.73604(9)
Mo2 Mo 1.69521(16) 1.04089(13) 0.75912(9)
Mo3 Mo 1.88488(17) 0.94606(14) 0.85493(8)
Mo4 Mo 1.96677(17) 0.72222(14) 0.80043(9)
Mo5 Mo 2.00915(17) 0.79870(14) 0.67065(9)
Mo6 Mo 1.66818(17) 0.69145(14) 0.82828(9)
Mo7 Mo 1.47047(16) 0.79405(14) 0.74420(10)
Mo8 Mo 1.51979(17) 0.88614(14) 0.60316(9)
Mo9 Mo 1.78655(17) 0.91091(13) 0.57724(8)
Mo10 Mo 1.59390(17) 0.68184(13) 0.55161(9)
Mo11 Mo 1.50740(16) 0.57752(13) 0.68452(9)
Mo12 Mo 1.80508(17) 0.58029(13) 0.66271(9)
Ag1 Ag 1.48423(15) 0.56029(12) 0.91739(8)
Ag2 Ag 1.14518(16) 0.51469(16) 0.85412(9)
Ag3 Ag 1.02614(16) 0.34971(17) 0.69648(8)
Ag4 Ag 0.60206(15) 0.38128(14) 0.82580(9)
Ag5 Ag 0.81364(16) 0.07431(12) 0.44105(8)
Ag6 Ag 1.6834(2) 0.67059(17) 1.06598(11)
Ag7 Ag 0.84866(18) 0.83646(14) 1.00157(10)
N25 N 0.9015(13) 0.3661(11) 0.7541(7)
N13_2 N 0.4101(14) 0.3691(12) 0.8024(8)
N14A N 0.7553(16) -0.0681(13) 0.3754(8)
N16A N 1.6980(15) 0.5215(12) 1.0215(8)
N17A N 1.6386(15) 0.4901(12) 0.9657(8)
N18A N 0.6882(14) 0.4227(12) 0.9406(7)
N24A N 0.7460(18) 0.9418(16) 1.0010(11)
O16A O 0.5877(12) 0.0629(10) 0.4305(7)
O20_2 O 0.8477(14) -0.0347(10) 0.5260(7)
O25_2 O 1.0622(12) 0.6881(11) 0.8577(7)
Na1_2 Na 2.2905(9) 0.6981(8) 0.8432(4)
Ag1A Ag 1.51577(15) 0.43971(12) 1.08261(8)
Ag4_2 Ag 1.60206(15) 0.38128(14) 0.82580(9)
Ag4A Ag 1.39794(15) 0.61872(14) 1.17420(9)
Ag5_2 Ag 1.81364(16) 1.07431(12) 0.44105(8)
Ag5A Ag 1.18636(16) -0.07431(12) 0.55895(8)
Ag5A_2 Ag 1.18636(16) 0.92569(12) 0.55895(8)
Ag6A Ag 1.3166(2) 0.32941(17) 0.93402(11)
Ag7A Ag 1.15134(18) 1.16354(14) 0.99843(10)
loop_
_geom_bond_atom_site_label_1
_geom_bond_atom_site_label_2
_geom_bond_site_symmetry_1
_geom_bond_site_symmetry_2
C1 C2 1_555 1_555
C2 C3 1_555 1_555
C3 H1 1_555 1_555
C4 C3 1_555 1_555
H2 C4 1_555 1_555
C5 H3 1_555 1_555
C6 C2 1_555 1_555
H4 C6 1_555 1_555
C7 C8 1_555 1_555
C8 C9 1_555 1_555
C9 H5 1_555 1_555
C10 C9 1_555 1_555
H6 C10 1_555 1_555
C11 C8 1_555 1_555
H7 C11 1_555 1_555
C12 C11 1_555 1_555
H8 C12 1_555 1_555
C13 C14 1_555 1_555
C14 C15 1_555 1_555
C15 H9 1_555 1_555
C16 C15 1_555 1_555
H10 C16 1_555 1_555
C17 C14 1_555 1_555
H11 C17 1_555 1_555
C18 C17 1_555 1_555
H12 C18 1_555 1_555
C19 C20 1_555 1_555
C20 C21 1_555 1_555
C21 H13 1_555 1_555
C22 C21 1_555 1_555
H14 C22 1_555 1_555
C23 H15 1_555 1_555
C24 C20 1_555 1_555
H16 C24 1_555 1_555
C25 C26 1_555 1_555
C26 C27 1_555 1_555
C27 H17 1_555 1_555
C28 C27 1_555 1_555
H18 C28 1_555 1_555
C29 C26 1_555 1_555
H19 C29 1_555 1_555
C30 C29 1_555 1_555
H20 C30 1_555 1_555
N1 C1 1_555 1_555
N2 N1 1_555 1_555
N3 N2 1_555 1_555
N4 C4 1_555 1_555
N5 C7 1_555 1_555
N6 N5 1_555 1_555
N7 N6 1_555 1_555
N8 C7 1_555 1_555
N9 C10 1_555 1_555
N10 C13 1_555 1_555
N11 N10 1_555 1_555
N12 N11 1_555 1_555
N13 C13 1_555 1_555
N14 C16 1_555 1_555
N15 C19 1_555 1_555
N16 N15 1_555 1_555
N17 N16 1_555 1_555
N18 C19 1_555 1_555
N19 C22 1_555 1_555
N20 C25 1_555 1_555
N21 N20 1_555 1_555
N22 N21 1_555 1_555
N23 C25 1_555 1_555
N24 C28 1_555 1_555
O1 Ge1 1_555 1_555
O2 Ge1 1_555 1_555
O3 Ag6 1_555 1_555
O4 Ge1 1_555 1_555
O5 Mo1 1_555 1_555
O6 Mo2 1_555 1_555
O7 Mo1 1_555 1_555
O8 Mo3 1_555 1_555
O9 Ge1 1_555 1_555
O10 Na1 1_555 1_555
O11 Mo3 1_555 1_555
O12 Mo1 1_555 1_555
O13 Mo2 1_555 1_555
O14 Mo2 1_555 1_555
O15 Mo2 1_555 1_555
O16 Mo8 1_555 1_555
O17 Mo10 1_555 1_555
O18 Mo11 1_555 1_555
O19 Mo11 1_555 1_555
O20 Mo9 1_555 1_555
O21 Mo6 1_555 1_555
O22 Mo7 1_555 1_555
O23 Mo8 1_555 1_555
O24 Mo1 1_555 1_555
O25 Mo4 1_555 1_555
O26 Mo5 1_555 1_555
O27 Na1 1_555 1_555
O28 Mo4 1_555 1_555
O29 Mo9 1_555 1_555
O30 Mo8 1_555 1_555
O31 Mo3 1_555 1_555
O32 Mo4 1_555 1_555
O33 Mo6 1_555 1_555
O34 Mo7 1_555 1_555
O35 Mo4 1_555 1_555
O36 Mo1 1_555 1_555
O37 Mo10 1_555 1_555
O38 Mo5 1_555 1_555
O39 Mo5 1_555 1_555
O40 Mo12 1_555 1_555
O41 Mo10 1_555 1_555
Na1 N20 1_555 1_555
Mo1 O9 1_555 1_555
Mo2 O5 1_555 1_555
Mo3 O6 1_555 1_555
Mo4 O2 1_555 1_555
Mo5 O2 1_555 1_555
Mo6 O4 1_555 1_555
Mo7 O4 1_555 1_555
Mo8 O1 1_555 1_555
Mo9 O1 1_555 1_555
Mo10 O1 1_555 1_555
Mo11 O4 1_555 1_555
Mo12 O2 1_555 1_555
Ag1 N12 1_555 1_555
Ag2 N3 1_555 1_555
Ag3 N5 1_555 1_555
Ag4 N1 1_555 1_555
Ag5 N7 1_555 1_555
Ag6 N22 1_555 1_555
Ag7 N19 1_555 1_555
N25 C1 1_555 1_555
N13_2 Ag4 1_555 1_555
N14A Ag5 1_555 1_555
N16A Ag6 1_555 1_555
N17A Ag1 1_555 1_555
N18A Ag4 1_555 1_555
N24A Ag7 1_555 1_555
O16A Ag5 1_555 1_555
O20_2 Ag5 1_555 1_555
O25_2 Na1 1_555 1_555
Na1_2 O25 1_555 1_555
Ag1A N17 1_555 1_555
Ag4_2 N13 1_555 1_555
Ag4A N18 1_555 1_555
Ag5_2 O20 1_555 1_555
Ag5A N14 1_555 1_555
Ag5A_2 O16 1_555 1_555
Ag6A N16 1_555 1_555
Ag7A N24 1_555 1_555
C5 C6 1_555 1_555
C5 N4 1_555 1_555
C12 N9 1_555 1_555
C18 N14 1_555 1_555
C23 C24 1_555 1_555
C23 N19 1_555 1_555
C30 N24 1_555 1_555
N3 N25 1_555 1_555
N7 N8 1_555 1_555
N10 Ag3 1_555 1_555
N11 Ag2 1_555 1_555
N12 N13 1_555 1_555
N15 Ag2 1_555 1_555
N17 N18 1_555 1_555
N21 Ag1 1_555 1_555
N22 N23 1_555 1_555
O7 Mo3 1_555 1_555
O9 Mo2 1_555 1_555
O9 Mo3 1_555 1_555
O10 Mo7 1_555 1_555
O11 Mo6 1_555 1_555
O12 Mo9 1_555 1_555
O13 Mo7 1_555 1_555
O15 Mo8 1_555 1_555
O17 Mo12 1_555 1_555
O18 Mo12 1_555 1_555
O21 Ag1 1_555 1_555
O22 Mo8 1_555 1_555
O23 Mo9 1_555 1_555
O27 Mo6 1_555 1_555
O27 Mo7 1_555 1_555
O28 Mo6 1_555 1_555
O29 Mo10 1_555 1_555
O30 Mo10 1_555 1_555
O31 Mo4 1_555 1_555
O32 Mo12 1_555 1_555
O33 Mo11 1_555 1_555
O34 Mo11 1_555 1_555
O35 Mo5 1_555 1_555
O36 Mo5 1_555 1_555
O37 Mo11 1_555 1_555
O38 Mo9 1_555 1_555
O39 Mo12 1_555 1_555
Ag3 N25 1_555 1_555
N16A N17A 1_555 1_555

#END
