
#######################################################################
#
#                 Cambridge Crystallographic Data Centre
#                                CCDC 
#
#######################################################################
#
# If this CIF has been generated from an entry in the Cambridge 
# Structural Database, then it will include bibliographic, chemical, 
# crystal, experimental, refinement or atomic coordinate data resulting 
# from the CCDC's data processing and validation procedures.
#
#######################################################################

data_VINBAX
_symmetry_cell_setting           monoclinic
_symmetry_space_group_name_H-M   'P 21/n'
_symmetry_Int_Tables_number      14
_space_group_name_Hall           '-P 2yn'
loop_
_symmetry_equiv_pos_site_id
_symmetry_equiv_pos_as_xyz
1 x,y,z
2 1/2-x,1/2+y,1/2-z
3 -x,-y,-z
4 1/2+x,1/2-y,1/2+z
_cell_length_a                   10.665(2)
_cell_length_b                   17.956(4)
_cell_length_c                   17.194(3)
_cell_angle_alpha                90
_cell_angle_beta                 96.19(3)
_cell_angle_gamma                90
_cell_volume                     3273.47
loop_
_atom_site_label
_atom_site_type_symbol
_atom_site_fract_x
_atom_site_fract_y
_atom_site_fract_z
Mo1 Mo 0.22567(7) 0.16599(4) 0.98538(4)
Cu1 Cu 0.27724(12) -0.11818(7) 1.04454(7)
N1 N 0.3045(6) -0.2216(4) 1.0737(4)
N2 N 0.2356(7) -0.1711(4) 0.9384(4)
N3 N 0.3240(7) -0.3452(4) 1.0348(4)
C1 C 0.2306(7) 0.0478(5) 1.0036(4)
N4 N 0.3363(7) -0.1081(4) 1.1634(4)
C2 C 0.3586(8) -0.1745(5) 1.2011(5)
C3 C 0.3438(9) -0.2390(5) 1.1480(5)
N5 N 0.4176(7) -0.4502(4) 1.2117(4)
N6 N 0.2412(6) -0.0151(4) 1.0160(4)
C4 C 0.4176(10) 0.1293(5) 0.9845(5)
N7 N 0.5197(8) 0.1102(4) 0.9826(5)
C5 C 0.3895(9) -0.4371(5) 1.1345(6)
C6 C 0.2578(8) -0.2458(5) 0.9411(5)
C7 C 0.0348(10) 0.1357(5) 0.9388(5)
N8 N 0.3721(7) -0.3087(4) 1.1708(4)
C8 C 0.1415(9) 0.1419(5) 1.0934(6)
C9 C 0.3959(9) -0.1791(5) 1.2811(5)
H1 H 0.4120 -0.2261 1.3055
C10 C 0.3355(10) 0.2243(5) 1.0782(5)
N9 N 0.3628(8) 0.3027(5) 0.8942(5)
C11 C 0.2447(9) -0.2895(6) 0.8745(6)
H2 H 0.2590 -0.3417 0.8779
C12 C 0.2971(8) -0.2738(5) 1.0200(5)
N10 N 0.0993(8) 0.1262(4) 1.1494(5)
C13 C 0.3601(9) -0.3588(5) 1.1128(6)
N11 N 0.3954(9) 0.2544(5) 1.1275(5)
C14 C 0.4481(10) -0.5777(6) 1.1861(7)
H3 H 0.4695 -0.6264 1.2048
C15 C 0.1095(10) 0.2633(6) 0.9947(5)
C16 C 0.3122(9) 0.2551(5) 0.9250(5)
C17 C 0.4473(10) -0.5190(5) 1.2387(6)
H4 H 0.4676 -0.5274 1.2932
C18 C 0.4091(10) -0.1147(5) 1.3239(6)
H5 H 0.4318 -0.1164 1.3788
C19 C 0.3510(9) -0.0457(5) 1.2052(5)
H6 H 0.3354 0.0008 1.1794
C20 C 0.3886(9) -0.0461(5) 1.2855(6)
H7 H 0.4001 -0.0007 1.3137
N12 N -0.0665(8) 0.1225(4) 0.9144(5)
N13 N 0.0440(9) 0.3139(5) 0.9979(5)
C21 C 0.1890(10) -0.1816(7) 0.7997(6)
H8 H 0.1641 -0.1583 0.7509
C22 C 0.2039(9) -0.1381(6) 0.8692(5)
H9 H 0.1914 -0.0857 0.8666
C23 C 0.2101(10) -0.2557(6) 0.8025(6)
H10 H 0.2014 -0.2844 0.7559
C24 C 0.4186(11) -0.5662(6) 1.1077(6)
H11 H 0.4189 -0.6065 1.0720
N14 N 0.2365(9) 0.0977(5) 0.8064(5)
C25 C 0.2332(9) 0.1217(5) 0.8677(6)
C26 C 0.3877(10) -0.4943(5) 1.0805(6)
H12 H 0.3662 -0.4850 1.0263
Cu1B Cu -0.27724(12) 0.11818(7) 0.95546(7)
Cu1B_2 Cu 0.72276(12) 0.11818(7) 0.95546(7)
N7B N 0.4803(8) -0.1102(4) 1.0174(5)
N12B N 0.0665(8) -0.1225(4) 1.0856(5)
O1 O 0.1019(8) -0.3739(4) 1.1396(5)
C27 C 0.0580(15) -0.3268(7) 1.2024(8)
H13 H 0.0939 -0.3455 1.2536
H14 H -0.0343 -0.3286 1.1991
H15 H 0.0853 -0.2753 1.1959
O2 O 0.235(2) -0.0196(9) 0.6542(15)
H16 H 0.316(2) -0.021(3) 0.638(3)
H17 H 0.204(4) 0.0267(18) 0.663(3)
H18 H 0.179(3) -0.042(2) 0.610(2)
loop_
_geom_bond_atom_site_label_1
_geom_bond_atom_site_label_2
_geom_bond_site_symmetry_1
_geom_bond_site_symmetry_2
Mo1 C1 1_555 1_555
Cu1 N1 1_555 1_555
N1 C3 1_555 1_555
N2 Cu1 1_555 1_555
N3 C12 1_555 1_555
C1 N6 1_555 1_555
N4 Cu1 1_555 1_555
C2 N4 1_555 1_555
C3 C2 1_555 1_555
N5 C5 1_555 1_555
N6 Cu1 1_555 1_555
C4 Mo1 1_555 1_555
N7 C4 1_555 1_555
C5 C13 1_555 1_555
C6 N2 1_555 1_555
C7 Mo1 1_555 1_555
N8 C3 1_555 1_555
C8 Mo1 1_555 1_555
C9 C2 1_555 1_555
H1 C9 1_555 1_555
C10 Mo1 1_555 1_555
N9 C16 1_555 1_555
C11 C6 1_555 1_555
H2 C11 1_555 1_555
C12 N1 1_555 1_555
N10 C8 1_555 1_555
C13 N3 1_555 1_555
N11 C10 1_555 1_555
C14 H3 1_555 1_555
C15 Mo1 1_555 1_555
C16 Mo1 1_555 1_555
C17 N5 1_555 1_555
H4 C17 1_555 1_555
C18 C9 1_555 1_555
H5 C18 1_555 1_555
C19 N4 1_555 1_555
H6 C19 1_555 1_555
C20 C18 1_555 1_555
H7 C20 1_555 1_555
N12 C7 1_555 1_555
N13 C15 1_555 1_555
C21 H8 1_555 1_555
C22 N2 1_555 1_555
H9 C22 1_555 1_555
C23 C11 1_555 1_555
H10 C23 1_555 1_555
C24 C14 1_555 1_555
H11 C24 1_555 1_555
N14 C25 1_555 1_555
C25 Mo1 1_555 1_555
C26 C5 1_555 1_555
H12 C26 1_555 1_555
O1 C27 1_555 1_555
C27 H13 1_555 1_555
H14 C27 1_555 1_555
H15 C27 1_555 1_555
O2 H16 1_555 1_555
H17 O2 1_555 1_555
H18 O2 1_555 1_555
Cu1B N12 1_555 1_555
Cu1B_2 N7 1_555 1_555
N7B Cu1 1_555 1_555
N12B Cu1 1_555 1_555
C6 C12 1_555 1_555
N8 C13 1_555 1_555
C14 C17 1_555 1_555
C19 C20 1_555 1_555
C21 C22 1_555 1_555
C21 C23 1_555 1_555
C24 C26 1_555 1_555

#END
