
#######################################################################
#
#                 Cambridge Crystallographic Data Centre
#                                CCDC 
#
#######################################################################
#
# If this CIF has been generated from an entry in the Cambridge 
# Structural Database, then it will include bibliographic, chemical, 
# crystal, experimental, refinement or atomic coordinate data resulting 
# from the CCDC's data processing and validation procedures.
#
#######################################################################

data_VINHEH
_symmetry_cell_setting           monoclinic
_symmetry_space_group_name_H-M   'C 2'
_symmetry_Int_Tables_number      5
_space_group_name_Hall           'C 2y'
loop_
_symmetry_equiv_pos_site_id
_symmetry_equiv_pos_as_xyz
1 x,y,z
2 -x,y,-z
3 1/2+x,1/2+y,z
4 1/2-x,1/2+y,-z
_cell_length_a                   39.821(4)
_cell_length_b                   14.1428(8)
_cell_length_c                   20.3826(17)
_cell_angle_alpha                90
_cell_angle_beta                 116.922(11)
_cell_angle_gamma                90
_cell_volume                     10235
loop_
_atom_site_label
_atom_site_type_symbol
_atom_site_fract_x
_atom_site_fract_y
_atom_site_fract_z
C1 C 0.2078(3) 0.8130(7) 0.0644(6)
H1 H 0.2242 0.8557 0.0531
H2 H 0.1931 0.7747 0.0198
C2 C 0.2328(3) 0.7466(7) 0.1262(6)
H3 H 0.2473 0.7053 0.1089
H4 H 0.2510 0.7841 0.1684
C3 C 0.2047(3) 0.5975(8) 0.1289(5)
H5 H 0.2148 0.5704 0.0989
C4 C 0.1827(3) 0.5438(7) 0.1549(6)
C5 C 0.1696(4) 0.4532(8) 0.1450(7)
H6 H 0.1739 0.4055 0.1168
C6 C 0.1512(4) 0.5333(10) 0.2153(7)
H7 H 0.1401 0.5481 0.2465
C7 C 0.1433(4) 0.8576(9) 0.0357(7)
H8 H 0.1375 0.8549 -0.0169
H9 H 0.1301 0.9131 0.0427
C8 C 0.1286(3) 0.7669(8) 0.0562(5)
H10 H 0.1010 0.7635 0.0263
H11 H 0.1398 0.7112 0.0440
C9 C 0.1110(3) 0.7813(7) 0.1476(8)
H12 H 0.0865 0.7992 0.1120
C10 C 0.1209(4) 0.7726(8) 0.2296(9)
C11 C 0.1015(4) 0.7831(9) 0.2648(8)
H13 H 0.0758 0.8002 0.2478
C12 C 0.1622(5) 0.7417(9) 0.3375(8)
H14 H 0.1850 0.7262 0.3796
C13 C 0.1964(3) 0.9489(8) 0.1276(7)
H15 H 0.1830 1.0061 0.1005
H16 H 0.2235 0.9575 0.1411
C14 C 0.1921(3) 0.9412(8) 0.1974(6)
H17 H 0.2040 0.9967 0.2292
H18 H 0.1651 0.9410 0.1851
C15 C 0.2407(4) 0.8581(9) 0.2945(7)
H19 H 0.2541 0.9158 0.3115
C16 C 0.2545(4) 0.7739(11) 0.3322(6)
C17 C 0.2861(6) 0.7503(12) 0.3925(8)
H20 H 0.3064 0.7903 0.4232
C18 C 0.2492(5) 0.6200(12) 0.3437(8)
H21 H 0.2403 0.5567 0.3373
N1 N 0.1826(3) 0.8687(6) 0.0791(5)
N2 N 0.2103(2) 0.6892(6) 0.1497(4)
N3 N 0.1488(3) 0.4440(7) 0.1841(5)
H22 H 0.1369 0.3936 0.1882
N4 N 0.1704(3) 0.5946(6) 0.1974(5)
N5 N 0.1372(2) 0.7633(6) 0.1294(5)
N6 N 0.1293(5) 0.7616(8) 0.3359(9)
H23 H 0.1254 0.7614 0.3750
N7 N 0.1568(4) 0.7478(6) 0.2690(6)
N8 N 0.2098(3) 0.8550(6) 0.2368(5)
N9 N 0.2825(5) 0.6591(12) 0.3988(9)
H24 H 0.2995 0.6250 0.4346
N10 N 0.2338(3) 0.6947(7) 0.3036(5)
Fe1 Fe 0.18690(5) 0.72596(10) 0.21321(8)
C19 C 0.3669(4) 0.9257(18) 0.0699(8)
H25 H 0.3671 0.9296 0.0216
H26 H 0.3525 0.8689 0.0701
C20 C 0.4081(5) 0.9185(18) 0.1327(12)
H27 H 0.4227 0.9747 0.1316
H28 H 0.4205 0.8615 0.1253
C21 C 0.4167(6) 0.8298(16) 0.2337(9)
H29 H 0.4236 0.7819 0.2094
C22 C 0.4155(6) 0.8168(14) 0.3007(10)
C23 C 0.4180(7) 0.738(2) 0.3385(14)
H30 H 0.4212 0.6741 0.3283
C24 C 0.4032(5) 0.8743(15) 0.3945(11)
H31 H 0.3955 0.9146 0.4225
C25 C 0.3672(10) 1.078(3) 0.0757(18)
H32 H 0.3547 1.1028 0.0249
H33 H 0.3932 1.0587 0.0873
H34 H 0.3737 1.2340 0.1331
C26 C 0.4317(5) 1.1692(11) 0.2300(9)
H35 H 0.4345 1.2256 0.2077
C27 C 0.4607(5) 1.1265(14) 0.2929(9)
C28 C 0.5016(6) 1.1453(17) 0.3334(12)
H36 H 0.5159 1.1944 0.3265
C29 C 0.4856(6) 1.0165(16) 0.3768(10)
H37 H 0.4875 0.9642 0.4075
C30 C 0.3151(4) 0.9891(12) 0.0811(7)
H38 H 0.3007 0.9475 0.0384
H39 H 0.3008 1.0488 0.0728
C31 C 0.3164(4) 0.9445(10) 0.1458(8)
H40 H 0.3258 0.8791 0.1482
H41 H 0.2904 0.9401 0.1399
C32 C 0.3231(4) 1.0390(9) 0.2477(8)
H42 H 0.2965 1.0382 0.2284
C33 C 0.3459(4) 1.0920(9) 0.3110(6)
C34 C 0.3416(4) 1.1468(9) 0.3600(7)
H43 H 0.3183 1.1597 0.3604
C35 C 0.4021(6) 1.1391(13) 0.3923(9)
H44 H 0.4286 1.1436 0.4212
N11 N 0.3495(4) 1.0097(10) 0.0819(7)
N12 N 0.4075(5) 0.9125(17) 0.2094(8)
N13 N 0.4139(6) 0.7849(17) 0.4080(12)
H45 H 0.4183 0.7547 0.4488
N14 N 0.4056(4) 0.8960(9) 0.3312(7)
N15 N 0.4005(4) 1.1204(8) 0.2067(7)
N16 N 0.5139(5) 1.0687(13) 0.3866(9)
H46 H 0.5372 1.0595 0.4204
N17 N 0.4530(4) 1.0420(9) 0.3191(7)
N18 N 0.3400(3) 0.9915(7) 0.2169(5)
N19 N 0.3738(4) 1.1797(9) 0.4064(6)
H47 H 0.3776 1.2209 0.4414
N20 N 0.3835(4) 1.0933(7) 0.3300(6)
Fe2 Fe 0.39756(6) 1.00622(13) 0.26330(11)
C36 C 0.3753(12) 1.160(3) 0.120(2)
C37 C 0.3852(5) 0.0232(10) 0.5389(7)
C38 C 0.3967(4) 0.0451(10) 0.6184(8)
C39 C 0.2549(5) 0.0326(8) 0.4267(7)
C40 C 0.2701(4) 0.1249(8) 0.4642(6)
C41 C 0.2419(3) 0.1953(8) 0.2291(7)
C42 C 0.2004(3) 0.2197(8) 0.1749(7)
C43 C 0.3024(3) 0.3496(7) 0.1181(5)
C44 C 0.2754(3) 0.4195(8) 0.1293(5)
C45 C 0.4212(4) 0.4638(9) 0.2244(7)
C46 C 0.4152(4) 0.5073(8) 0.1453(6)
C47 C 0.4788(3) 0.2929(10) 0.1098(6)
C48 C 0.5092(3) 0.3634(10) 0.1128(7)
C49 C 0.2004(3) 0.3682(7) 0.3735(5)
C50 C 0.1777(3) 0.3065(7) 0.4028(6)
C51 C 0.3032(3) 0.6901(7) 0.0431(6)
C52 C 0.2889(3) 0.5979(7) -0.0015(6)
O1 O 0.4257(3) 0.0752(8) 0.6635(6)
O2 O 0.4127(3) 0.0243(7) 0.5221(4)
O3 O 0.3659(2) 0.0260(5) 0.6311(3)
O4 O 0.3524(3) 0.0030(6) 0.4947(4)
O5 O 0.3009(2) 0.1182(5) 0.5248(4)
O6 O 0.2734(2) -0.0414(5) 0.4530(4)
O7 O 0.2535(3) 0.1999(5) 0.4369(4)
O8 O 0.2231(2) 0.0349(5) 0.3698(4)
O9 O 0.2488(2) 0.1671(5) 0.2906(4)
O10 O 0.1759(2) 0.2123(6) 0.1987(5)
O11 O 0.2647(2) 0.2110(5) 0.2045(4)
O12 O 0.1932(2) 0.2376(5) 0.1095(4)
O13 O 0.2889(2) 0.2671(4) 0.0981(4)
O14 O 0.2446(2) 0.3846(5) 0.1207(4)
O15 O 0.3327(2) 0.3768(5) 0.1286(4)
O16 O 0.2849(2) 0.5001(5) 0.1480(4)
O17 O 0.3960(3) 0.4734(6) 0.2379(4)
O18 O 0.3832(2) 0.5479(6) 0.1069(4)
O19 O 0.4515(3) 0.4232(6) 0.2562(4)
O20 O 0.4418(2) 0.5005(6) 0.1314(4)
O21 O 0.4655(2) 0.3121(6) 0.1549(4)
O22 O 0.5156(2) 0.4330(6) 0.1552(5)
O23 O 0.46887(19) 0.2275(6) 0.0656(4)
O24 O 0.5262(2) 0.3419(6) 0.0778(5)
O25 O 0.1735(2) 0.2227(6) 0.3891(4)
O26 O 0.2089(2) 0.3286(5) 0.3298(5)
O27 O 0.1658(2) 0.3498(5) 0.4420(4)
O28 O 0.2044(2) 0.4542(5) 0.3926(3)
O29 O 0.2995(2) 0.5229(5) 0.0256(4)
O30 O 0.3243(2) 0.6791(5) 0.1098(4)
O31 O 0.2643(2) 0.6119(5) -0.0700(4)
O32 O 0.2899(2) 0.7656(5) 0.0077(4)
O33 O 0.5305(3) 0.3802(9) 0.2975(7)
O34 O 0.5077(4) 0.5512(9) 0.2623(7)
O35 O 0.5576(7) 0.6060(15) 0.3614(10)
C53 C 0.5364(6) 0.5416(13) 0.3196(9)
O36 O 0.5846(7) 0.4387(19) 0.3963(13)
C54 C 0.5535(9) 0.4417(15) 0.341(2)
Cr1 Cr 0.32090(6) -0.01404(12) 0.54509(9)
Cr2 Cr 0.23975(5) 0.24810(11) 0.09758(9)
Cr3 Cr 0.48589(6) 0.43195(18) 0.21009(12)
Mn1 Mn 0.20177(5) 0.17389(11) 0.32181(9)
Mn2 Mn 0.34077(5) 0.53442(11) 0.14996(9)
Mn3 Mn 0.5000 0.22208(19) 0.0000
C55 C 0.1336(5) 0.0287(10) 0.2944(9)
H48 H 0.1099 0.0036 0.2558
H49 H 0.1287 0.0601 0.3321
H50 H 0.1514 -0.0234 0.3169
O37 O 0.1488(3) 0.0935(6) 0.2639(6)
C56 C 0.3278(5) 0.6686(10) 0.2643(8)
H51 H 0.3389 0.6873 0.3162
H52 H 0.3031 0.6394 0.2501
H53 H 0.3247 0.7246 0.2337
O38 O 0.3517(2) 0.6030(6) 0.2539(4)
C57 C 0.5636(6) 0.0586(14) 0.0509(12)
H54 H 0.5798 0.0209 0.0941
H55 H 0.5794 0.0945 0.0342
H56 H 0.5469 0.0165 0.0114
O39 O 0.5410(2) 0.1243(7) 0.0704(4)
C37A C 0.6148(5) 0.0232(10) -0.5389(7)
C38A C 0.6033(4) 0.0451(10) -0.6184(8)
C39A C 0.7451(5) 0.0326(8) -0.4267(7)
C40A C 0.7299(4) 0.1249(8) -0.4642(6)
C41A C 0.7581(3) 0.1953(8) -0.2291(7)
C42A C 0.7996(3) 0.2197(8) -0.1749(7)
C43A C 0.6976(3) 0.3496(7) -0.1181(5)
C44A C 0.7246(3) 0.4195(8) -0.1293(5)
C45A C 0.5788(4) 0.4638(9) -0.2244(7)
C46A C 0.5848(4) 0.5073(8) -0.1453(6)
C47A C 0.5212(3) 0.2929(10) -0.1098(6)
C48A C 0.4908(3) 0.3634(10) -0.1128(7)
C49A C 0.7996(3) 0.3682(7) -0.3735(5)
C50A C 0.8223(3) 0.3065(7) -0.4028(6)
C51A C 0.6968(3) 0.6901(7) -0.0431(6)
C52A C 0.7111(3) 0.5979(7) 0.0015(6)
O1A O 0.5743(3) 0.0752(8) -0.6635(6)
O2A O 0.5873(3) 0.0243(7) -0.5221(4)
O3A O 0.6341(2) 0.0260(5) -0.6311(3)
O4A O 0.6476(3) 0.0030(6) -0.4947(4)
O5A O 0.6991(2) 0.1182(5) -0.5248(4)
O6A O 0.7266(2) -0.0414(5) -0.4530(4)
O7A O 0.7465(3) 0.1999(5) -0.4369(4)
O8A O 0.7769(2) 0.0349(5) -0.3698(4)
O9A O 0.7512(2) 0.1671(5) -0.2906(4)
O10A O 0.8241(2) 0.2123(6) -0.1987(5)
O11A O 0.7353(2) 0.2110(5) -0.2045(4)
O12A O 0.8068(2) 0.2376(5) -0.1095(4)
O13A O 0.7111(2) 0.2671(4) -0.0981(4)
O14A O 0.7554(2) 0.3846(5) -0.1207(4)
O15A O 0.6673(2) 0.3768(5) -0.1286(4)
O16A O 0.7151(2) 0.5001(5) -0.1480(4)
O17A O 0.6040(3) 0.4734(6) -0.2379(4)
O18A O 0.6168(2) 0.5479(6) -0.1069(4)
O19A O 0.5485(3) 0.4232(6) -0.2562(4)
O20A O 0.5582(2) 0.5005(6) -0.1314(4)
O21A O 0.5345(2) 0.3121(6) -0.1549(4)
O22A O 0.4844(2) 0.4330(6) -0.1552(5)
O23A O 0.53113(19) 0.2275(6) -0.0656(4)
O24A O 0.4738(2) 0.3419(6) -0.0778(5)
O25A O 0.8265(2) 0.2227(6) -0.3891(4)
O26A O 0.7911(2) 0.3286(5) -0.3298(5)
O27A O 0.8342(2) 0.3498(5) -0.4420(4)
O28A O 0.7956(2) 0.4542(5) -0.3926(3)
O29A O 0.7005(2) 0.5229(5) -0.0256(4)
O30A O 0.6757(2) 0.6791(5) -0.1098(4)
O31A O 0.7357(2) 0.6119(5) 0.0700(4)
O32A O 0.7101(2) 0.7656(5) -0.0077(4)
O33A O 0.4695(3) 0.3802(9) -0.2975(7)
O34A O 0.4923(4) 0.5512(9) -0.2623(7)
O35A O 0.4424(7) 0.6060(15) -0.3614(10)
C53A C 0.4636(6) 0.5416(13) -0.3196(9)
O36A O 0.4154(7) 0.4387(19) -0.3963(13)
C54A C 0.4465(9) 0.4417(15) -0.341(2)
Cr1A Cr 0.67910(6) -0.01404(12) -0.54509(9)
Cr2A Cr 0.76025(5) 0.24810(11) -0.09758(9)
Cr3A Cr 0.51411(6) 0.43195(18) -0.21009(12)
Mn1A Mn 0.79823(5) 0.17389(11) -0.32181(9)
Mn2A Mn 0.65923(5) 0.53442(11) -0.14996(9)
C55A C 0.8664(5) 0.0287(10) -0.2944(9)
H48A H 0.8901 0.0036 -0.2558
H49A H 0.8713 0.0601 -0.3321
H50A H 0.8486 -0.0234 -0.3169
O37A O 0.8512(3) 0.0935(6) -0.2639(6)
C56A C 0.6722(5) 0.6686(10) -0.2643(8)
H51A H 0.6611 0.6873 -0.3162
H52A H 0.6969 0.6394 -0.2501
H53A H 0.6753 0.7246 -0.2337
O38A O 0.6483(2) 0.6030(6) -0.2539(4)
C57A C 0.4364(6) 0.0586(14) -0.0509(12)
H54A H 0.4202 0.0209 -0.0941
H55A H 0.4206 0.0945 -0.0342
H56A H 0.4531 0.0165 -0.0114
O39A O 0.4590(2) 0.1243(7) -0.0704(4)
O27B O 0.6658(2) -0.1502(5) -0.5580(4)
O27C O 0.3342(2) -0.1502(5) 0.5580(4)
O28B O 0.7044(2) -0.0458(5) -0.6074(3)
O28C O 0.2956(2) -0.0458(5) 0.6074(3)
O31B O 0.7643(2) 0.1119(5) -0.0700(4)
O31C O 0.2357(2) 0.1119(5) 0.0700(4)
O32B O 0.7899(2) 0.2656(5) 0.0077(4)
O32C O 0.2101(2) 0.2656(5) -0.0077(4)
Cr1B Cr 0.82090(6) 0.48596(12) -0.45491(9)
Cr1C Cr 0.17910(6) 0.48596(12) 0.45491(9)
Cr2B Cr 0.73975(5) 0.74810(11) 0.09758(9)
Cr2C Cr 0.26025(5) 0.74810(11) -0.09758(9)
C58 C 0.0082(6) 0.5247(15) 0.1802(11)
O40 O 0.0421(5) 0.5536(15) 0.1899(10)
C59 C 0.7917(7) 0.9169(18) 0.3073(11)
O41 O 0.8143(5) 0.9493(15) 0.3767(10)
O42 O 0.8109(4) 0.8449(11) 0.4833(8)
C60 C 0.7990(7) 0.9068(18) 0.5207(13)
C61 C 0.9011(8) 0.9215(16) 0.3996(16)
O43 O 0.8814(4) 1.0062(10) 0.3838(8)
C62 C 0.0660(7) 0.0608(19) 0.0853(15)
O44 O 0.1010(5) 0.1093(13) 0.1186(9)
C63 C 0.0828(8) 0.313(2) 0.2294(15)
O45 O 0.0957(7) 0.2999(18) 0.1734(15)
O46 O 0.8821(3) 0.7814(9) 0.5333(6)
O47 O 0.1234(4) 0.1455(12) 0.0219(9)
O48 O 0.8490(5) 0.1007(14) 0.5256(11)
O49 O 0.4860(8) 0.733(2) 0.2051(15)
O50 O 0.4088(7) 0.6273(19) 0.4902(14)
C64? C 0.3578(8) 1.117(2) 0.0842(16)
H57? H 0.3619 1.1265 0.0403
H58? H 0.3331 1.1461 0.0718
H59? H 0.3612 1.2164 0.1212
H60? H 0.3933 1.1799 0.1012
O51? O 0.5660(7) 0.4178(17) 0.4112(12)
C65? C 0.5430(13) 0.4379(15) 0.3490(13)
O52? O 0.0361(5) 0.6026(14) 0.1930(9)
O53? O 0.8146(8) 0.978(2) 0.5021(16)
O54? O 0.1150(6) 0.3008(14) 0.2207(12)
O55? O 0.1165(5) 0.1913(15) -0.0007(11)
C66? C 0.3675(8) 1.170(2) 0.1434(15)
H61? H 0.3442 1.1703 0.1493
loop_
_geom_bond_atom_site_label_1
_geom_bond_atom_site_label_2
_geom_bond_site_symmetry_1
_geom_bond_site_symmetry_2
C1 H1 1_555 1_555
H2 C1 1_555 1_555
C2 C1 1_555 1_555
H3 C2 1_555 1_555
H4 C2 1_555 1_555
C3 H5 1_555 1_555
C4 C3 1_555 1_555
C5 C4 1_555 1_555
H6 C5 1_555 1_555
C6 H7 1_555 1_555
C7 H8 1_555 1_555
H9 C7 1_555 1_555
C8 C7 1_555 1_555
H10 C8 1_555 1_555
H11 C8 1_555 1_555
C9 H12 1_555 1_555
C10 C9 1_555 1_555
C11 C10 1_555 1_555
H13 C11 1_555 1_555
C12 H14 1_555 1_555
C13 H15 1_555 1_555
H16 C13 1_555 1_555
C14 C13 1_555 1_555
H17 C14 1_555 1_555
H18 C14 1_555 1_555
C15 H19 1_555 1_555
C16 C15 1_555 1_555
C17 C16 1_555 1_555
H20 C17 1_555 1_555
C18 H21 1_555 1_555
N1 C1 1_555 1_555
N2 C2 1_555 1_555
N3 C5 1_555 1_555
H22 N3 1_555 1_555
N4 C4 1_555 1_555
N5 C8 1_555 1_555
N6 C11 1_555 1_555
H23 N6 1_555 1_555
N7 C10 1_555 1_555
N8 C14 1_555 1_555
N9 C17 1_555 1_555
H24 N9 1_555 1_555
N10 C16 1_555 1_555
Fe1 N2 1_555 1_555
C19 H25 1_555 1_555
H26 C19 1_555 1_555
C20 C19 1_555 1_555
H27 C20 1_555 1_555
H28 C20 1_555 1_555
C21 H29 1_555 1_555
C22 C21 1_555 1_555
C23 C22 1_555 1_555
H30 C23 1_555 1_555
C24 H31 1_555 1_555
C25 H32 1_555 1_555
H33 C25 1_555 1_555
H34 C36 1_555 1_555
C26 H35 1_555 1_555
C27 C26 1_555 1_555
C28 C27 1_555 1_555
H36 C28 1_555 1_555
C29 H37 1_555 1_555
C30 H38 1_555 1_555
H39 C30 1_555 1_555
C31 C30 1_555 1_555
H40 C31 1_555 1_555
H41 C31 1_555 1_555
C32 H42 1_555 1_555
C33 C32 1_555 1_555
C34 C33 1_555 1_555
H43 C34 1_555 1_555
C35 H44 1_555 1_555
N11 C19 1_555 1_555
N12 C20 1_555 1_555
N13 C23 1_555 1_555
H45 N13 1_555 1_555
N14 C22 1_555 1_555
N15 C26 1_555 1_555
N16 C28 1_555 1_555
H46 N16 1_555 1_555
N17 C27 1_555 1_555
N18 C31 1_555 1_555
N19 C34 1_555 1_555
H47 N19 1_555 1_555
N20 C33 1_555 1_555
Fe2 N12 1_555 1_555
C36 C25 1_555 1_555
C37 C38 1_555 1_555
C38 O1 1_555 1_555
C39 C40 1_555 1_555
C40 O5 1_555 1_555
C41 C42 1_555 1_555
C42 O10 1_555 1_555
C43 C44 1_555 1_555
C44 O14 1_555 1_555
C45 C46 1_555 1_555
C46 O18 1_555 1_555
C47 C48 1_555 1_555
C48 O22 1_555 1_555
C49 C50 1_555 1_555
C50 O25 1_555 1_555
C51 C52 1_555 1_555
C52 O29 1_555 1_555
O2 C37 1_555 1_555
O3 C38 1_555 1_555
O4 C37 1_555 1_555
O5 Cr1 1_555 1_555
O6 C39 1_555 1_555
O7 C40 1_555 1_555
O8 C39 1_555 1_555
O9 C41 1_555 1_555
O10 Mn1 1_555 1_555
O11 C41 1_555 1_555
O12 C42 1_555 1_555
O13 C43 1_555 1_555
O14 Cr2 1_555 1_555
O15 C43 1_555 1_555
O16 C44 1_555 1_555
O17 C45 1_555 1_555
O18 Mn2 1_555 1_555
O19 C45 1_555 1_555
O20 C46 1_555 1_555
O21 C47 1_555 1_555
O22 Cr3 1_555 1_555
O23 C47 1_555 1_555
O24 C48 1_555 1_555
O25 Mn1 1_555 1_555
O26 C49 1_555 1_555
O27 C50 1_555 1_555
O28 C49 1_555 1_555
O29 Mn2 1_555 1_555
O30 C51 1_555 1_555
O31 C52 1_555 1_555
O32 C51 1_555 1_555
O33 C54 1_555 1_555
O34 C53 1_555 1_555
O35 C53 1_555 1_555
C53 C54 1_555 1_555
O36 C54 1_555 1_555
Cr1 O3 1_555 1_555
Cr2 O11 1_555 1_555
Cr3 O19 1_555 1_555
Mn1 O7 1_555 1_555
Mn2 O15 1_555 1_555
Mn3 O23 1_555 1_555
C55 H48 1_555 1_555
H49 C55 1_555 1_555
H50 C55 1_555 1_555
O37 Mn1 1_555 1_555
C56 H51 1_555 1_555
H52 C56 1_555 1_555
H53 C56 1_555 1_555
O38 Mn2 1_555 1_555
C57 H54 1_555 1_555
H55 C57 1_555 1_555
H56 C57 1_555 1_555
O39 Mn3 1_555 1_555
C58 O40 1_555 1_555
C59 O41 1_555 1_555
O42 C60 1_555 1_555
C61 O43 1_555 1_555
C62 O44 1_555 1_555
C63 O45 1_555 1_555
C37A C38A 1_555 1_555
C38A O1A 1_555 1_555
C39A C40A 1_555 1_555
C40A O5A 1_555 1_555
C41A C42A 1_555 1_555
C42A O10A 1_555 1_555
C43A C44A 1_555 1_555
C44A O14A 1_555 1_555
C45A C46A 1_555 1_555
C46A O18A 1_555 1_555
C47A C48A 1_555 1_555
C48A O22A 1_555 1_555
C49A C50A 1_555 1_555
C50A O25A 1_555 1_555
C51A C52A 1_555 1_555
C52A O29A 1_555 1_555
O2A C37A 1_555 1_555
O3A C38A 1_555 1_555
O4A C37A 1_555 1_555
O5A Cr1A 1_555 1_555
O6A C39A 1_555 1_555
O7A C40A 1_555 1_555
O8A C39A 1_555 1_555
O9A C41A 1_555 1_555
O10A Mn1A 1_555 1_555
O11A C41A 1_555 1_555
O12A C42A 1_555 1_555
O13A C43A 1_555 1_555
O14A Cr2A 1_555 1_555
O15A C43A 1_555 1_555
O16A C44A 1_555 1_555
O17A C45A 1_555 1_555
O18A Mn2A 1_555 1_555
O19A C45A 1_555 1_555
O20A C46A 1_555 1_555
O21A C47A 1_555 1_555
O22A Cr3A 1_555 1_555
O23A Mn3 1_555 1_555
O24A Mn3 1_555 1_555
O25A Mn1A 1_555 1_555
O26A C49A 1_555 1_555
O27A C50A 1_555 1_555
O28A C49A 1_555 1_555
O29A Mn2A 1_555 1_555
O30A C51A 1_555 1_555
O31A C52A 1_555 1_555
O32A C51A 1_555 1_555
O33A C54A 1_555 1_555
O34A C53A 1_555 1_555
O35A C53A 1_555 1_555
C53A C54A 1_555 1_555
O36A C54A 1_555 1_555
Cr1A O3A 1_555 1_555
Cr2A O11A 1_555 1_555
Cr3A O19A 1_555 1_555
Mn1A O7A 1_555 1_555
Mn2A O15A 1_555 1_555
C55A H48A 1_555 1_555
H49A C55A 1_555 1_555
H50A C55A 1_555 1_555
O37A Mn1A 1_555 1_555
C56A H51A 1_555 1_555
H52A C56A 1_555 1_555
H53A C56A 1_555 1_555
O38A Mn2A 1_555 1_555
C57A H54A 1_555 1_555
H55A C57A 1_555 1_555
H56A C57A 1_555 1_555
O39A Mn3 1_555 1_555
O27B Cr1A 1_555 1_555
O27C Cr1 1_555 1_555
O28B Cr1A 1_555 1_555
O28C Cr1 1_555 1_555
O31B Cr2A 1_555 1_555
O31C Cr2 1_555 1_555
O32B Cr2A 1_555 1_555
O32C Cr2 1_555 1_555
Cr1B O27A 1_555 1_555
Cr1C O27 1_555 1_555
Cr2B O31A 1_555 1_555
Cr2C O31 1_555 1_555
C3 N2 1_555 1_555
C6 N3 1_555 1_555
C6 N4 1_555 1_555
C7 N1 1_555 1_555
C9 N5 1_555 1_555
C12 N6 1_555 1_555
C12 N7 1_555 1_555
C13 N1 1_555 1_555
C15 N8 1_555 1_555
C18 N9 1_555 1_555
C18 N10 1_555 1_555
N4 Fe1 1_555 1_555
N5 Fe1 1_555 1_555
N7 Fe1 1_555 1_555
N8 Fe1 1_555 1_555
N10 Fe1 1_555 1_555
C21 N12 1_555 1_555
C24 N13 1_555 1_555
C24 N14 1_555 1_555
C25 N11 1_555 1_555
C29 N16 1_555 1_555
C29 N17 1_555 1_555
C30 N11 1_555 1_555
C32 N18 1_555 1_555
C35 N19 1_555 1_555
C35 N20 1_555 1_555
N14 Fe2 1_555 1_555
N15 Fe2 1_555 1_555
N15 C36 1_555 1_555
N17 Fe2 1_555 1_555
N18 Fe2 1_555 1_555
N20 Fe2 1_555 1_555
O4 Cr1 1_555 1_555
O6 Cr1 1_555 1_555
O8 Mn1 1_555 1_555
O9 Mn1 1_555 1_555
O12 Cr2 1_555 1_555
O13 Cr2 1_555 1_555
O16 Mn2 1_555 1_555
O17 Mn2 1_555 1_555
O20 Cr3 1_555 1_555
O21 Cr3 1_555 1_555
O24 Mn3 1_555 1_555
O26 Mn1 1_555 1_555
O28 Cr1C 1_555 1_555
O30 Mn2 1_555 1_555
O32 Cr2C 1_555 1_555
O33 Cr3 1_555 1_555
O34 Cr3 1_555 1_555
C55 O37 1_555 1_555
C56 O38 1_555 1_555
C57 O39 1_555 1_555
C47A O23A 1_555 1_555
C48A O24A 1_555 1_555
O4A Cr1A 1_555 1_555
O6A Cr1A 1_555 1_555
O8A Mn1A 1_555 1_555
O9A Mn1A 1_555 1_555
O12A Cr2A 1_555 1_555
O13A Cr2A 1_555 1_555
O16A Mn2A 1_555 1_555
O17A Mn2A 1_555 1_555
O20A Cr3A 1_555 1_555
O21A Cr3A 1_555 1_555
O26A Mn1A 1_555 1_555
O28A Cr1B 1_555 1_555
O30A Mn2A 1_555 1_555
O32A Cr2B 1_555 1_555
O33A Cr3A 1_555 1_555
O34A Cr3A 1_555 1_555
C55A O37A 1_555 1_555
C56A O38A 1_555 1_555
C57A O39A 1_555 1_555

#END
