
#######################################################################
#
#                 Cambridge Crystallographic Data Centre
#                                CCDC 
#
#######################################################################
#
# If this CIF has been generated from an entry in the Cambridge 
# Structural Database, then it will include bibliographic, chemical, 
# crystal, experimental, refinement or atomic coordinate data resulting 
# from the CCDC's data processing and validation procedures.
#
#######################################################################

data_VIRPOC
_symmetry_cell_setting           cubic
_symmetry_space_group_name_H-M   'F d -3 c'
_symmetry_Int_Tables_number      228
_space_group_name_Hall           '-F 4ud 2vw 3'
loop_
_symmetry_equiv_pos_site_id
_symmetry_equiv_pos_as_xyz
1 x,y,z
2 z,x,y
3 y,z,x
4 3/4+y,1/4+x,-z
5 1/4+y,-x,3/4+z
6 -y,3/4+x,1/4+z
7 3/4+x,1/4+z,-y
8 -x,3/4+z,1/4+y
9 1/4+x,-z,3/4+y
10 3/4+z,1/4+y,-x
11 1/4+z,-y,3/4+x
12 -z,3/4+y,1/4+x
13 x,1/2+y,1/2+z
14 1/4-x,1/4-y,z
15 z,1/2+x,1/2+y
16 1/4-z,1/4-x,y
17 y,1/2+z,1/2+x
18 1/4-y,1/4-z,x
19 1/4+y,1/2-x,1/4+z
20 -y,1/4+x,3/4+z
21 -x,1/4+z,3/4+y
22 1/4+x,1/2-z,1/4+y
23 1/4+z,1/2-y,1/4+x
24 -z,1/4+y,3/4+x
25 1/2+x,y,1/2+z
26 x,1/4-y,1/4-z
27 1/2+z,x,1/2+y
28 z,1/4-x,1/4-y
29 1/2+y,z,1/2+x
30 y,1/4-z,1/4-x
31 1/4+y,1/4+x,1/2-z
32 3/4+y,-x,1/4+z
33 1/4+x,1/4+z,1/2-y
34 3/4+x,-z,1/4+y
35 1/4+z,1/4+y,1/2-x
36 3/4+z,-y,1/4+x
37 1/2+x,1/2+y,z
38 1/4-x,y,1/4-z
39 1/2+z,1/2+x,y
40 1/4-z,x,1/4-y
41 1/2+y,1/2+z,x
42 1/4-y,z,1/4-x
43 1/4+y,3/4+x,-z
44 1/2-y,1/4+x,1/4+z
45 1/4+x,3/4+z,-y
46 1/2-x,1/4+z,1/4+y
47 1/4+z,3/4+y,-x
48 1/2-z,1/4+y,1/4+x
49 1/4-x,3/4-y,1/2+z
50 3/4-x,1/2+y,1/4-z
51 1/2+x,1/4-y,3/4-z
52 1/2+z,1/4-x,3/4-y
53 1/4-z,3/4-x,1/2+y
54 3/4-z,1/2+x,1/4-y
55 3/4-y,1/2+z,1/4-x
56 1/2+y,1/4-z,3/4-x
57 1/4-y,3/4-z,1/2+x
58 1/2-y,1/2-x,1/2-z
59 1/2-x,1/2-z,1/2-y
60 1/2-z,1/2-y,1/2-x
61 3/4-x,y,3/4-z
62 1/2+x,3/4-y,1/4-z
63 1/2+z,3/4-x,1/4-y
64 3/4-z,x,3/4-y
65 3/4-y,z,3/4-x
66 1/2+y,3/4-z,1/4-x
67 3/4+y,3/4+x,1/2-z
68 1/2-y,-x,-z
69 3/4+x,3/4+z,1/2-y
70 1/2-x,-z,-y
71 3/4+z,3/4+y,1/2-x
72 1/2-z,-y,-x
73 3/4-x,3/4-y,z
74 1/4-x,1/2+y,3/4-z
75 3/4-z,3/4-x,y
76 1/4-z,1/2+x,3/4-y
77 1/4-y,1/2+z,3/4-x
78 3/4-y,3/4-z,x
79 -y,1/2-x,-z
80 1/2-y,3/4+x,3/4+z
81 1/2-x,3/4+z,3/4+y
82 -x,1/2-z,-y
83 1/2-z,3/4+y,3/4+x
84 -z,1/2-y,-x
85 3/4-x,1/4-y,1/2+z
86 x,3/4-y,3/4-z
87 z,3/4-x,3/4-y
88 3/4-z,1/4-x,1/2+y
89 y,3/4-z,3/4-x
90 3/4-y,1/4-z,1/2+x
91 -y,-x,1/2-z
92 3/4+y,1/2-x,3/4+z
93 -x,-z,1/2-y
94 3/4+x,1/2-z,3/4+y
95 3/4+z,1/2-y,3/4+x
96 -z,-y,1/2-x
97 -x,-y,-z
98 -z,-x,-y
99 -y,-z,-x
100 1/4-y,3/4-x,z
101 3/4-y,x,1/4-z
102 y,1/4-x,3/4-z
103 1/4-x,3/4-z,y
104 x,1/4-z,3/4-y
105 3/4-x,z,1/4-y
106 1/4-z,3/4-y,x
107 3/4-z,y,1/4-x
108 z,1/4-y,3/4-x
109 -x,1/2-y,1/2-z
110 3/4+x,3/4+y,-z
111 -z,1/2-x,1/2-y
112 3/4+z,3/4+x,-y
113 -y,1/2-z,1/2-x
114 3/4+y,3/4+z,-x
115 3/4-y,1/2+x,3/4-z
116 y,3/4-x,1/4-z
117 x,3/4-z,1/4-y
118 3/4-x,1/2+z,3/4-y
119 3/4-z,1/2+y,3/4-x
120 z,3/4-y,1/4-x
121 1/2-x,-y,1/2-z
122 -x,3/4+y,3/4+z
123 1/2-z,-x,1/2-y
124 -z,3/4+x,3/4+y
125 1/2-y,-z,1/2-x
126 -y,3/4+z,3/4+x
127 3/4-y,3/4-x,1/2+z
128 1/4-y,x,3/4-z
129 3/4-x,3/4-z,1/2+y
130 1/4-x,z,3/4-y
131 3/4-z,3/4-y,1/2+x
132 1/4-z,y,3/4-x
133 1/2-x,1/2-y,-z
134 3/4+x,-y,3/4+z
135 1/2-z,1/2-x,-y
136 3/4+z,-x,3/4+y
137 1/2-y,1/2-z,-x
138 3/4+y,-z,3/4+x
139 3/4-y,1/4-x,z
140 1/2+y,3/4-x,3/4-z
141 3/4-x,1/4-z,y
142 1/2+x,3/4-z,3/4-y
143 3/4-z,1/4-y,x
144 1/2+z,3/4-y,3/4-x
145 3/4+x,1/4+y,1/2-z
146 1/4+x,1/2-y,3/4+z
147 1/2-x,3/4+y,1/4+z
148 1/2-z,3/4+x,1/4+y
149 3/4+z,1/4+x,1/2-y
150 1/4+z,1/2-x,3/4+y
151 1/4+y,1/2-z,3/4+x
152 1/2-y,3/4+z,1/4+x
153 3/4+y,1/4+z,1/2-x
154 1/2+y,1/2+x,1/2+z
155 1/2+x,1/2+z,1/2+y
156 1/2+z,1/2+y,1/2+x
157 1/4+x,-y,1/4+z
158 1/2-x,1/4+y,3/4+z
159 1/2-z,1/4+x,3/4+y
160 1/4+z,-x,1/4+y
161 1/4+y,-z,1/4+x
162 1/2-y,1/4+z,3/4+x
163 1/4-y,1/4-x,1/2+z
164 1/2+y,x,z
165 1/4-x,1/4-z,1/2+y
166 1/2+x,z,y
167 1/4-z,1/4-y,1/2+x
168 1/2+z,y,x
169 1/4+x,1/4+y,-z
170 3/4+x,1/2-y,1/4+z
171 1/4+z,1/4+x,-y
172 3/4+z,1/2-x,1/4+y
173 3/4+y,1/2-z,1/4+x
174 1/4+y,1/4+z,-x
175 y,1/2+x,z
176 1/2+y,1/4-x,1/4-z
177 1/2+x,1/4-z,1/4-y
178 x,1/2+z,y
179 1/2+z,1/4-y,1/4-x
180 z,1/2+y,x
181 1/4+x,3/4+y,1/2-z
182 -x,1/4+y,1/4+z
183 -z,1/4+x,1/4+y
184 1/4+z,3/4+x,1/2-y
185 -y,1/4+z,1/4+x
186 1/4+y,3/4+z,1/2-x
187 y,x,1/2+z
188 1/4-y,1/2+x,1/4-z
189 x,z,1/2+y
190 1/4-x,1/2+z,1/4-y
191 1/4-z,1/2+y,1/4-x
192 z,y,1/2+x
_cell_length_a                   25.2102(4)
_cell_length_b                   25.2102(4)
_cell_length_c                   25.2102(4)
_cell_angle_alpha                90
_cell_angle_beta                 90
_cell_angle_gamma                90
_cell_volume                     16022.4
loop_
_atom_site_label
_atom_site_type_symbol
_atom_site_fract_x
_atom_site_fract_y
_atom_site_fract_z
Ni1 Ni 0.307247(14) 0.5000 0.057247(14)
O1 O 0.2500 0.5000 0.0000
O2 O 0.34911(17) 0.45220(16) 0.00846(17)
N1 N 0.27119(11) 0.43491(11) 0.08851(11)
N2 N 0.2500 0.36429(9) 0.13571(9)
C1 C 0.28240(12) 0.40606(12) 0.13096(13)
H1 H 0.3096 0.4139 0.1547
Ni1C Ni 0.2500 0.557247(14) -0.057247(14)
Ni1ZA Ni 0.192753(14) 0.442753(14) 0.0000
Ni1VE Ni 0.2500 0.307247(14) 0.192753(14)
Ni1RD Ni 0.442753(14) 0.692753(14) 0.0000
Ni1BF Ni 0.442753(14) 0.557247(14) 0.2500
Ni1HD Ni 0.5000 0.442753(14) 0.192753(14)
O2J O 0.25846(17) 0.54780(16) 0.09911(17)
O2C O 0.20220(16) 0.59911(17) -0.00846(17)
O2BB O 0.29780(16) 0.50846(17) -0.09911(17)
O2ZA O 0.24154(17) 0.40089(17) -0.04780(16)
O2FB O 0.15089(17) 0.49154(17) 0.04780(16)
N1FB N 0.22881(11) 0.41149(11) 0.06509(11)
N1J N 0.33851(11) 0.56509(11) 0.02119(11)
N1BB N 0.31509(11) 0.58851(11) -0.02119(11)
N1BF N 0.41149(11) 0.52119(11) 0.18491(11)
N1KD N 0.43491(11) 0.47881(11) 0.16149(11)
N1C N 0.18491(11) 0.52119(11) -0.08851(11)
N1ZA N 0.16149(11) 0.47881(11) -0.06509(11)
N2J N 0.38571(9) 0.63571(9) 0.0000
N2BF N 0.36429(9) 0.5000 0.11429(9)
N2AF N 0.2500 0.61429(9) -0.11429(9)
N2EF N 0.13571(9) 0.38571(9) 0.0000
C1FB C 0.21760(12) 0.36904(13) 0.09394(12)
C1J C 0.38096(13) 0.59394(12) 0.03240(12)
C1BB C 0.34394(12) 0.63096(13) -0.03240(12)
C1BF C 0.36904(13) 0.53240(12) 0.15606(12)
C1KD C 0.40606(12) 0.46760(12) 0.11904(13)
H1FB H 0.1904 0.3453 0.0861
H1J H 0.4047 0.5861 0.0596
H1BB H 0.3361 0.6547 -0.0596
H1BF H 0.3453 0.5596 0.1639
H1KD H 0.4139 0.4404 0.0953
loop_
_geom_bond_atom_site_label_1
_geom_bond_atom_site_label_2
_geom_bond_site_symmetry_1
_geom_bond_site_symmetry_2
Ni1 O1 1_555 1_555
O1 Ni1C 1_555 1_555
O2 Ni1 1_555 1_555
N1 Ni1 1_555 1_555
N2 C1 1_555 1_555
C1 N1 1_555 1_555
H1 C1 1_555 1_555
Ni1C O2C 1_555 1_555
Ni1ZA O1 1_555 1_555
Ni1VE N2 1_555 1_555
Ni1RD N2J 1_555 1_555
Ni1BF N1BF 1_555 1_555
Ni1HD N1KD 1_555 1_555
O2J Ni1 1_555 1_555
O2BB Ni1C 1_555 1_555
O2ZA Ni1ZA 1_555 1_555
O2FB Ni1ZA 1_555 1_555
N1FB N1 1_555 1_555
N1J Ni1 1_555 1_555
N1BB Ni1C 1_555 1_555
N1BF N1KD 1_555 1_555
N1KD C1KD 1_555 1_555
N1C Ni1C 1_555 1_555
N1ZA Ni1ZA 1_555 1_555
N2J C1J 1_555 1_555
N2BF Ni1 1_555 1_555
N2AF Ni1C 1_555 1_555
N2EF Ni1ZA 1_555 1_555
C1FB N2 1_555 1_555
C1J N1J 1_555 1_555
C1BB N1BB 1_555 1_555
C1BF N1BF 1_555 1_555
C1KD N2BF 1_555 1_555
H1FB C1FB 1_555 1_555
H1J C1J 1_555 1_555
H1BB C1BB 1_555 1_555
H1BF C1BF 1_555 1_555
H1KD C1KD 1_555 1_555
Ni1ZA N1FB 1_555 1_555
N1FB C1FB 1_555 1_555
N1J N1BB 1_555 1_555
N1C N1ZA 1_555 1_555
N2J C1BB 1_555 1_555
N2BF C1BF 1_555 1_555

#END
