
#######################################################################
#
#                 Cambridge Crystallographic Data Centre
#                                CCDC 
#
#######################################################################
#
# If this CIF has been generated from an entry in the Cambridge 
# Structural Database, then it will include bibliographic, chemical, 
# crystal, experimental, refinement or atomic coordinate data resulting 
# from the CCDC's data processing and validation procedures.
#
#######################################################################

data_VIWKOD
_symmetry_cell_setting           monoclinic
_symmetry_space_group_name_H-M   'P 21/n'
_symmetry_Int_Tables_number      14
_space_group_name_Hall           '-P 2yn'
loop_
_symmetry_equiv_pos_site_id
_symmetry_equiv_pos_as_xyz
1 x,y,z
2 1/2-x,1/2+y,1/2-z
3 -x,-y,-z
4 1/2+x,1/2-y,1/2+z
_cell_length_a                   10.994(2)
_cell_length_b                   23.098(5)
_cell_length_c                   19.838(4)
_cell_angle_alpha                90
_cell_angle_beta                 99.89(3)
_cell_angle_gamma                90
_cell_volume                     4962.79
loop_
_atom_site_label
_atom_site_type_symbol
_atom_site_fract_x
_atom_site_fract_y
_atom_site_fract_z
Ce1 Ce -0.46037(3) 0.145282(12) 0.398967(15)
Ce2 Ce 0.85265(3) 0.144201(14) 1.145959(17)
Cu1 Cu 0.09132(6) 0.17861(3) 0.89849(3)
Cu2 Cu 0.30292(6) 0.17930(3) 0.65118(3)
C1 C -0.2472(4) 0.2503(3) 0.5850(2)
C2 C -0.2789(5) 0.2801(2) 0.6416(3)
C3 C -0.2065(5) 0.2740(3) 0.7058(3)
H1 H -0.2270 0.2941 0.7429
C4 C -0.1031(4) 0.2379(2) 0.7151(3)
C5 C -0.0710(5) 0.2085(2) 0.6592(3)
C6 C -0.1429(5) 0.2150(3) 0.5944(3)
H2 H -0.1210 0.1955 0.5572
C7 C -0.3152(4) 0.2598(3) 0.5137(2)
C8 C -0.3987(5) 0.3122(3) 0.6365(3)
C9 C -0.0350(5) 0.2291(3) 0.7863(3)
C10 C 0.0463(5) 0.1739(3) 0.6643(3)
C11 C -0.1263(5) -0.0037(3) 0.5011(3)
C12 C -0.0784(5) 0.0455(3) 0.4757(4)
C13 C 0.0492(5) 0.0489(3) 0.4751(4)
H3 H 0.0818 0.0821 0.4585
C14 C -0.2612(5) -0.0097(3) 0.5081(3)
C15 C -0.1577(6) 0.0950(3) 0.4462(5)
C16 C 0.4634(5) 0.2096(2) 0.8901(3)
C17 C 0.4922(5) 0.2410(3) 0.8341(3)
C18 C 0.5928(5) 0.2785(3) 0.8439(3)
H4 H 0.6101 0.3003 0.8073
C19 C 0.6674(5) 0.2840(3) 0.9072(3)
C20 C 0.6392(5) 0.2532(3) 0.9636(3)
C21 C 0.5367(5) 0.2160(3) 0.9543(3)
H5 H 0.5175 0.1955 0.9914
C22 C 0.3501(5) 0.1722(3) 0.8866(3)
C23 C 0.4232(4) 0.2315(3) 0.7633(3)
C24 C 0.7875(5) 0.3167(3) 0.9127(3)
C25 C 0.7088(5) 0.2609(3) 1.0350(3)
O1 O -0.3528(4) 0.2166(2) 0.4782(2)
O2 O -0.3264(4) 0.3116(2) 0.4935(2)
O3 O -0.4920(4) 0.2915(2) 0.5966(2)
O4 O -0.4065(5) 0.3557(2) 0.6723(3)
O5 O -0.0267(4) 0.2713(2) 0.8267(2)
O6 O 0.0073(4) 0.17959(19) 0.8030(2)
O7 O 0.1444(3) 0.20324(19) 0.6789(2)
O8 O 0.0392(4) 0.1214(2) 0.6509(3)
O9 O -0.3296(4) -0.0397(2) 0.4630(3)
O10 O -0.2976(4) 0.0126(2) 0.5586(3)
O11 O -0.2729(4) 0.0892(2) 0.4397(3)
O12 O -0.1053(6) 0.1386(3) 0.4280(7)
O13 O 0.2479(4) 0.1974(2) 0.8665(2)
O14 O 0.3619(5) 0.1216(2) 0.9062(3)
O15 O 0.3857(4) 0.18114(19) 0.7468(2)
O16 O 0.4101(4) 0.2729(2) 0.7220(2)
O17 O 0.7962(4) 0.3613(2) 0.8774(3)
O18 O 0.8811(3) 0.2957(2) 0.9510(2)
O19 O 0.7401(4) 0.2164(2) 1.0700(2)
O20 O 0.7242(4) 0.3120(2) 1.05621(19)
O21 O -0.4771(4) 0.10245(19) 0.5180(2)
O22 O -0.5170(5) 0.0385(2) 0.3871(3)
O23 O -0.4785(6) 0.1083(3) 0.2770(3)
O24 O -0.2798(4) 0.1868(2) 0.3450(3)
O25 O 0.6604(6) 0.1770(3) 1.1953(4)
O26 O 0.8767(11) 0.1068(4) 1.2674(4)
O27 O 0.9253(10) 0.0393(3) 1.1582(5)
O28 O 0.6709(8) 0.0810(4) 1.1003(6)
O29 O 0.8915(8) 0.1043(3) 1.0347(3)
O30 O -0.0707(4) 0.1808(2) 0.9321(2)
O31 O 0.1142(10) 0.0842(5) 0.9057(5)
O32 O 0.2697(5) 0.0843(3) 0.6501(3)
O33 O 0.4704(4) 0.1789(2) 0.6203(2)
C11B C 0.1263(5) 0.0037(3) 0.4989(3)
C12B C 0.0784(5) -0.0455(3) 0.5243(4)
C13B C -0.0492(5) -0.0489(3) 0.5249(4)
H3B H -0.0818 -0.0821 0.5415
C14B C 0.2612(5) 0.0097(3) 0.4919(3)
C15B C 0.1577(6) -0.0950(3) 0.5538(5)
O9B O 0.3296(4) 0.0397(2) 0.5370(3)
O10B O 0.2976(4) -0.0126(2) 0.4414(3)
O11B O 0.2729(4) -0.0892(2) 0.5603(3)
O12B O 0.1053(6) -0.1386(3) 0.5720(7)
Ce1B Ce 0.46037(3) -0.145282(12) 0.601033(15)
Ce2B Ce -0.85265(3) -0.144201(14) -0.145959(17)
Cu1B Cu -0.09132(6) -0.17861(3) 0.10151(3)
Cu2B Cu -0.30292(6) -0.17930(3) 0.34882(3)
C1B C 0.2472(4) -0.2503(3) 0.4150(2)
C2B C 0.2789(5) -0.2801(2) 0.3584(3)
C3B C 0.2065(5) -0.2740(3) 0.2942(3)
H1B H 0.2270 -0.2941 0.2571
C4B C 0.1031(4) -0.2379(2) 0.2849(3)
C5B C 0.0710(5) -0.2085(2) 0.3408(3)
C6B C 0.1429(5) -0.2150(3) 0.4056(3)
H2B H 0.1210 -0.1955 0.4428
C7B C 0.3152(4) -0.2598(3) 0.4863(2)
C8B C 0.3987(5) -0.3122(3) 0.3635(3)
C9B C 0.0350(5) -0.2291(3) 0.2137(3)
C10B C -0.0463(5) -0.1739(3) 0.3357(3)
C16B C -0.4634(5) -0.2096(2) 0.1099(3)
C17B C -0.4922(5) -0.2410(3) 0.1659(3)
C18B C -0.5928(5) -0.2785(3) 0.1561(3)
H4B H -0.6101 -0.3003 0.1927
C19B C -0.6674(5) -0.2840(3) 0.0928(3)
C20B C -0.6392(5) -0.2532(3) 0.0364(3)
C21B C -0.5367(5) -0.2160(3) 0.0457(3)
H5B H -0.5175 -0.1955 0.0086
C22B C -0.3501(5) -0.1722(3) 0.1134(3)
C23B C -0.4232(4) -0.2315(3) 0.2367(3)
C24B C -0.7875(5) -0.3167(3) 0.0873(3)
C25B C -0.7088(5) -0.2609(3) -0.0350(3)
O1B O 0.3528(4) -0.2166(2) 0.5218(2)
O2B O 0.3264(4) -0.3116(2) 0.5065(2)
O3B O 0.4920(4) -0.2915(2) 0.4034(2)
O4B O 0.4065(5) -0.3557(2) 0.3277(3)
O5B O 0.0267(4) -0.2713(2) 0.1733(2)
O6B O -0.0073(4) -0.17959(19) 0.1970(2)
O7B O -0.1444(3) -0.20324(19) 0.3211(2)
O8B O -0.0392(4) -0.1214(2) 0.3491(3)
O13B O -0.2479(4) -0.1974(2) 0.1335(2)
O14B O -0.3619(5) -0.1216(2) 0.0938(3)
O15B O -0.3857(4) -0.18114(19) 0.2532(2)
O16B O -0.4101(4) -0.2729(2) 0.2780(2)
O17B O -0.7962(4) -0.3613(2) 0.1226(3)
O18B O -0.8811(3) -0.2957(2) 0.0490(2)
O19B O -0.7401(4) -0.2164(2) -0.0700(2)
O20B O -0.7242(4) -0.3120(2) -0.05621(19)
O21B O 0.4771(4) -0.10245(19) 0.4820(2)
O22B O 0.5170(5) -0.0385(2) 0.6129(3)
O23B O 0.4785(6) -0.1083(3) 0.7230(3)
O24B O 0.2798(4) -0.1868(2) 0.6550(3)
O25B O -0.6604(6) -0.1770(3) -0.1953(4)
O26B O -0.8767(11) -0.1068(4) -0.2674(4)
O27B O -0.9253(10) -0.0393(3) -0.1582(5)
O28B O -0.6709(8) -0.0810(4) -0.1003(6)
O29B O -0.8915(8) -0.1043(3) -0.0347(3)
O30B O 0.0707(4) -0.1808(2) 0.0679(2)
O31B O -0.1142(10) -0.0842(5) 0.0943(5)
O32B O -0.2697(5) -0.0843(3) 0.3499(3)
O33B O -0.4704(4) -0.1789(2) 0.3797(2)
Ce1A Ce -1.03963(3) -0.354718(12) 0.101033(15)
Ce1A_2 Ce -0.03963(3) -0.354718(12) 0.101033(15)
Ce1C Ce 0.03963(3) 0.354718(12) 0.898967(15)
Ce1C_2 Ce 1.03963(3) 0.354718(12) 0.898967(15)
Ce2A Ce -0.35265(3) -0.355799(14) 0.354041(17)
Ce2A_2 Ce 0.64735(3) -0.355799(14) 0.354041(17)
Ce2C Ce -0.64735(3) 0.355799(14) 0.645959(17)
Ce2C_2 Ce 0.35265(3) 0.355799(14) 0.645959(17)
Cu1A Cu 0.40868(6) -0.32139(3) 0.60151(3)
Cu1C Cu -0.40868(6) 0.32139(3) 0.39849(3)
Cu2A Cu -0.80292(6) -0.32070(3) -0.15118(3)
Cu2C Cu 0.80292(6) 0.32070(3) 1.15118(3)
O2A O -0.1736(4) -0.1884(2) 0.0065(2)
O2C O 0.1736(4) 0.1884(2) 0.9935(2)
O3A O -1.0080(4) -0.2085(2) -0.0966(2)
O3C O 1.0080(4) 0.2085(2) 1.0966(2)
O4A O -1.0935(5) -0.1443(2) -0.1723(3)
O4C O 1.0935(5) 0.1443(2) 1.1723(3)
O5A O 0.5267(4) -0.2287(2) 0.6733(2)
O5C O -0.5267(4) 0.2287(2) 0.3267(2)
O16A O -0.9101(4) -0.2271(2) -0.2220(2)
O16C O 0.9101(4) 0.2271(2) 1.2220(2)
O17A O 0.7038(4) -0.1387(2) 0.6226(3)
O17C O -0.7038(4) 0.1387(2) 0.3774(3)
O18A O 0.6189(3) -0.2043(2) 0.5490(2)
O18C O -0.6189(3) 0.2043(2) 0.4510(2)
O20A O -0.2242(4) -0.1880(2) 0.44379(19)
O20C O 0.2242(4) 0.1880(2) 0.55621(19)
O34 O 0.8334(7) 0.0631(4) 0.6673(4)
O35 O 0.7425(8) 0.1275(5) 0.8557(4)
O36 O 0.6483(9) 0.1211(6) 0.7194(5)
O37 O 0.8893(13) -0.0644(5) 0.6944(6)
O38 O 0.6987(11) -0.0760(6) 0.8033(10)
O39 O 0.868(2) 0.0303(9) 0.8073(10)
O40 O 0.5824(17) 0.0653(8) 0.9244(16)
O41 O 0.5907(16) -0.1152(9) 0.9235(8)
O42 O 0.486(3) 0.0263(12) 0.7450(17)
O43 O 0.221(4) 0.0480(13) 0.7918(10)
loop_
_geom_bond_atom_site_label_1
_geom_bond_atom_site_label_2
_geom_bond_site_symmetry_1
_geom_bond_site_symmetry_2
Ce1 O1 1_555 1_555
Ce2 O19 1_555 1_555
Cu1 O5 1_555 1_555
Cu2 O7 1_555 1_555
C1 C2 1_555 1_555
C2 C3 1_555 1_555
C3 H1 1_555 1_555
C4 C3 1_555 1_555
C5 C4 1_555 1_555
C6 C1 1_555 1_555
H2 C6 1_555 1_555
C7 C1 1_555 1_555
C8 C2 1_555 1_555
C9 C4 1_555 1_555
C10 C5 1_555 1_555
C11 C12 1_555 1_555
C12 C13 1_555 1_555
C13 H3 1_555 1_555
C14 C11 1_555 1_555
C15 C12 1_555 1_555
C16 C17 1_555 1_555
C17 C18 1_555 1_555
C18 H4 1_555 1_555
C19 C18 1_555 1_555
C20 C19 1_555 1_555
C21 C16 1_555 1_555
H5 C21 1_555 1_555
C22 C16 1_555 1_555
C23 C17 1_555 1_555
C24 C19 1_555 1_555
C25 C20 1_555 1_555
O1 C7 1_555 1_555
O2 C7 1_555 1_555
O3 C8 1_555 1_555
O4 C8 1_555 1_555
O5 C9 1_555 1_555
O6 Cu1 1_555 1_555
O7 C10 1_555 1_555
O8 C10 1_555 1_555
O9 C14 1_555 1_555
O10 C14 1_555 1_555
O11 Ce1 1_555 1_555
O12 C15 1_555 1_555
O13 Cu1 1_555 1_555
O14 C22 1_555 1_555
O15 Cu2 1_555 1_555
O16 Cu2 1_555 1_555
O17 C24 1_555 1_555
O18 C24 1_555 1_555
O19 C25 1_555 1_555
O20 C25 1_555 1_555
O21 Ce1 1_555 1_555
O22 Ce1 1_555 1_555
O23 Ce1 1_555 1_555
O24 Ce1 1_555 1_555
O25 Ce2 1_555 1_555
O26 Ce2 1_555 1_555
O27 Ce2 1_555 1_555
O28 Ce2 1_555 1_555
O29 Ce2 1_555 1_555
O30 Cu1 1_555 1_555
O31 Cu1 1_555 1_555
O32 Cu2 1_555 1_555
O33 Cu2 1_555 1_555
C11B C13 1_555 1_555
C12B C11B 1_555 1_555
C13B C11 1_555 1_555
H3B C13B 1_555 1_555
C14B C11B 1_555 1_555
C15B C12B 1_555 1_555
O9B C14B 1_555 1_555
O10B C14B 1_555 1_555
O11B C15B 1_555 1_555
O12B C15B 1_555 1_555
Ce1B O11B 1_555 1_555
Ce2B O19B 1_555 1_555
Cu1B O5B 1_555 1_555
Cu2B O7B 1_555 1_555
C1B C2B 1_555 1_555
C2B C3B 1_555 1_555
C3B H1B 1_555 1_555
C4B C3B 1_555 1_555
C5B C4B 1_555 1_555
C6B C1B 1_555 1_555
H2B C6B 1_555 1_555
C7B C1B 1_555 1_555
C8B C2B 1_555 1_555
C9B C4B 1_555 1_555
C10B C5B 1_555 1_555
C16B C17B 1_555 1_555
C17B C18B 1_555 1_555
C18B H4B 1_555 1_555
C19B C18B 1_555 1_555
C20B C19B 1_555 1_555
C21B C16B 1_555 1_555
H5B C21B 1_555 1_555
C22B C16B 1_555 1_555
C23B C17B 1_555 1_555
C24B C19B 1_555 1_555
C25B C20B 1_555 1_555
O1B Ce1B 1_555 1_555
O2B C7B 1_555 1_555
O3B C8B 1_555 1_555
O4B C8B 1_555 1_555
O5B C9B 1_555 1_555
O6B Cu1B 1_555 1_555
O7B C10B 1_555 1_555
O8B C10B 1_555 1_555
O13B Cu1B 1_555 1_555
O14B C22B 1_555 1_555
O15B Cu2B 1_555 1_555
O16B Cu2B 1_555 1_555
O17B C24B 1_555 1_555
O18B C24B 1_555 1_555
O19B C25B 1_555 1_555
O20B C25B 1_555 1_555
O21B Ce1B 1_555 1_555
O22B Ce1B 1_555 1_555
O23B Ce1B 1_555 1_555
O24B Ce1B 1_555 1_555
O25B Ce2B 1_555 1_555
O26B Ce2B 1_555 1_555
O27B Ce2B 1_555 1_555
O28B Ce2B 1_555 1_555
O29B Ce2B 1_555 1_555
O30B Cu1B 1_555 1_555
O31B Cu1B 1_555 1_555
O32B Cu2B 1_555 1_555
O33B Cu2B 1_555 1_555
Ce1A O17B 1_555 1_555
Ce1A_2 O5B 1_555 1_555
Ce1C O5 1_555 1_555
Ce1C_2 O17 1_555 1_555
Ce2A O16B 1_555 1_555
Ce2A_2 O3B 1_555 1_555
Ce2C O3 1_555 1_555
Ce2C_2 O16 1_555 1_555
Cu1A O2B 1_555 1_555
Cu1C O2 1_555 1_555
Cu2A O20B 1_555 1_555
Cu2C O20 1_555 1_555
O2A Cu1B 1_555 1_555
O2C Cu1 1_555 1_555
O3A Ce2B 1_555 1_555
O3C Ce2 1_555 1_555
O4A Ce2B 1_555 1_555
O4C Ce2 1_555 1_555
O5A Ce1B 1_555 1_555
O5C Ce1 1_555 1_555
O16A Ce2B 1_555 1_555
O16C Ce2 1_555 1_555
O17A Ce1B 1_555 1_555
O17C Ce1 1_555 1_555
O18A Ce1B 1_555 1_555
O18C Ce1 1_555 1_555
O20A Cu2B 1_555 1_555
O20C Cu2 1_555 1_555
C5 C6 1_555 1_555
C9 O6 1_555 1_555
C15 O11 1_555 1_555
C20 C21 1_555 1_555
C22 O13 1_555 1_555
C23 O15 1_555 1_555
C23 O16 1_555 1_555
O4 Ce2C 1_555 1_555
O18 Ce1C_2 1_555 1_555
C12B C13B 1_555 1_555
C5B C6B 1_555 1_555
C7B O1B 1_555 1_555
C9B O6B 1_555 1_555
C20B C21B 1_555 1_555
C22B O13B 1_555 1_555
C23B O15B 1_555 1_555
C23B O16B 1_555 1_555
O4B Ce2A_2 1_555 1_555
O18B Ce1A 1_555 1_555
Cu1A O5A 1_555 1_555
Cu1C O5C 1_555 1_555
Cu2A O16A 1_555 1_555
Cu2C O16C 1_555 1_555

#END
