
#######################################################################
#
#                 Cambridge Crystallographic Data Centre
#                                CCDC 
#
#######################################################################
#
# If this CIF has been generated from an entry in the Cambridge 
# Structural Database, then it will include bibliographic, chemical, 
# crystal, experimental, refinement or atomic coordinate data resulting 
# from the CCDC's data processing and validation procedures.
#
#######################################################################

data_VIWLAQ
_symmetry_cell_setting           monoclinic
_symmetry_space_group_name_H-M   'P 21/n'
_symmetry_Int_Tables_number      14
_space_group_name_Hall           '-P 2yn'
loop_
_symmetry_equiv_pos_site_id
_symmetry_equiv_pos_as_xyz
1 x,y,z
2 1/2-x,1/2+y,1/2-z
3 -x,-y,-z
4 1/2+x,1/2-y,1/2+z
_cell_length_a                   10.856(2)
_cell_length_b                   22.799(5)
_cell_length_c                   19.706(4)
_cell_angle_alpha                90
_cell_angle_beta                 99.49(3)
_cell_angle_gamma                90
_cell_volume                     4810.6
loop_
_atom_site_label
_atom_site_type_symbol
_atom_site_fract_x
_atom_site_fract_y
_atom_site_fract_z
Cu1 Cu 0.09005(9) 0.17319(4) 0.90412(5)
Cu2 Cu 0.30630(9) 0.17701(4) 0.65588(5)
Nd1 Nd -0.45874(4) 0.148511(18) 0.40327(2)
Nd2 Nd 0.85039(4) 0.144419(18) 1.15264(2)
C1 C -0.2462(8) 0.2526(4) 0.5907(4)
C2 C -0.2796(8) 0.2809(4) 0.6476(4)
C3 C -0.2065(8) 0.2746(4) 0.7117(4)
H1 H -0.2256 0.2956 0.7490
C4 C -0.1039(8) 0.2366(3) 0.7205(4)
C5 C -0.0714(8) 0.2077(4) 0.6638(4)
C6 C -0.1413(8) 0.2159(4) 0.5985(4)
H2 H -0.1185 0.1972 0.5605
C7 C -0.3143(7) 0.2628(4) 0.5181(4)
C8 C -0.4001(8) 0.3139(4) 0.6427(4)
C9 C -0.0364(8) 0.2259(4) 0.7917(4)
C10 C 0.0459(8) 0.1722(4) 0.6676(4)
C11 C -0.1277(8) -0.0034(4) 0.5014(4)
C12 C -0.0766(8) 0.0478(4) 0.4805(5)
C13 C 0.0523(8) 0.0517(4) 0.4795(5)
H3 H 0.0867 0.0863 0.4661
C14 C -0.2625(8) -0.0095(3) 0.5067(4)
C15 C -0.1558(8) 0.0987(4) 0.4540(6)
C16 C 0.4638(8) 0.2067(3) 0.8952(4)
C17 C 0.4912(8) 0.2394(3) 0.8389(4)
C18 C 0.5917(7) 0.2782(3) 0.8484(4)
H4 H 0.6087 0.3005 0.8115
C19 C 0.6674(7) 0.2840(3) 0.9129(4)
C20 C 0.6389(7) 0.2524(3) 0.9693(4)
C21 C 0.5372(7) 0.2141(3) 0.9601(4)
H5 H 0.5179 0.1931 0.9974
C22 C 0.3511(8) 0.1681(4) 0.8918(4)
C23 C 0.4240(7) 0.2288(3) 0.7682(4)
C24 C 0.7874(7) 0.3169(3) 0.9179(4)
C25 C 0.7094(7) 0.2602(3) 1.0407(4)
O1 O -0.3532(5) 0.2196(2) 0.4824(3)
O2 O -0.3243(6) 0.3156(3) 0.4994(3)
O3 O -0.4932(5) 0.2927(2) 0.6037(3)
O4 O -0.4103(6) 0.3579(2) 0.6793(3)
O5 O -0.0245(6) 0.2681(3) 0.8330(3)
O6 O 0.0038(5) 0.1748(2) 0.8073(3)
O7 O 0.1462(5) 0.2012(2) 0.6851(3)
O8 O 0.0392(6) 0.1195(3) 0.6517(3)
O9 O -0.3316(6) -0.0390(3) 0.4606(3)
O10 O -0.3015(6) 0.0124(3) 0.5582(3)
O11 O -0.2740(5) 0.0920(3) 0.4447(3)
O12 O -0.1043(7) 0.1457(3) 0.4406(6)
O13 O 0.2475(5) 0.1923(2) 0.8708(3)
O14 O 0.3643(6) 0.1167(3) 0.9128(4)
O15 O 0.3887(6) 0.1771(2) 0.7524(3)
O16 O 0.4084(6) 0.2710(2) 0.7260(3)
O17 O 0.7990(6) 0.3616(2) 0.8820(3)
O18 O 0.8825(5) 0.2944(2) 0.9555(3)
O19 O 0.7406(5) 0.2163(3) 1.0764(3)
O20 O 0.7260(5) 0.3132(2) 1.0607(3)
O21 O -0.4752(5) 0.1045(2) 0.5212(3)
O22 O -0.5106(6) 0.0416(3) 0.3905(3)
O23 O -0.4764(7) 0.1126(3) 0.2823(3)
O24 O -0.2752(6) 0.1902(3) 0.3527(3)
O25 O 0.6606(7) 0.1780(3) 1.1991(4)
O26 O 0.8733(9) 0.1112(3) 1.2751(4)
O27 O 0.8962(9) 0.0377(3) 1.1691(4)
O28 O 0.6673(8) 0.0845(4) 1.1010(5)
O29 O 0.9001(7) 0.1012(3) 1.0454(3)
O30 O -0.0720(6) 0.1779(3) 0.9391(3)
O31 O 0.1080(10) 0.0763(3) 0.9137(4)
O32 O 0.2693(6) 0.0809(3) 0.6543(3)
O33 O 0.4750(5) 0.1788(2) 0.6249(3)
C11B C 0.1277(8) 0.0034(4) 0.4986(4)
C12B C 0.0766(8) -0.0478(4) 0.5195(5)
C13B C -0.0523(8) -0.0517(4) 0.5205(5)
H3B H -0.0867 -0.0863 0.5339
C14B C 0.2625(8) 0.0095(3) 0.4933(4)
C15B C 0.1558(8) -0.0987(4) 0.5460(6)
O9B O 0.3316(6) 0.0390(3) 0.5394(3)
O10B O 0.3015(6) -0.0124(3) 0.4418(3)
O11B O 0.2740(5) -0.0920(3) 0.5553(3)
O12B O 0.1043(7) -0.1457(3) 0.5594(6)
Cu1B Cu -0.09005(9) -0.17319(4) 0.09588(5)
Cu2B Cu -0.30630(9) -0.17701(4) 0.34412(5)
Nd1B Nd 0.45874(4) -0.148511(18) 0.59673(2)
Nd2B Nd -0.85039(4) -0.144419(18) -0.15264(2)
C1B C 0.2462(8) -0.2526(4) 0.4093(4)
C2B C 0.2796(8) -0.2809(4) 0.3524(4)
C3B C 0.2065(8) -0.2746(4) 0.2883(4)
H1B H 0.2256 -0.2956 0.2510
C4B C 0.1039(8) -0.2366(3) 0.2795(4)
C5B C 0.0714(8) -0.2077(4) 0.3362(4)
C6B C 0.1413(8) -0.2159(4) 0.4015(4)
H2B H 0.1185 -0.1972 0.4395
C7B C 0.3143(7) -0.2628(4) 0.4819(4)
C8B C 0.4001(8) -0.3139(4) 0.3573(4)
C9B C 0.0364(8) -0.2259(4) 0.2083(4)
C10B C -0.0459(8) -0.1722(4) 0.3324(4)
C16B C -0.4638(8) -0.2067(3) 0.1048(4)
C17B C -0.4912(8) -0.2394(3) 0.1611(4)
C18B C -0.5917(7) -0.2782(3) 0.1516(4)
H4B H -0.6087 -0.3005 0.1885
C19B C -0.6674(7) -0.2840(3) 0.0871(4)
C20B C -0.6389(7) -0.2524(3) 0.0307(4)
C21B C -0.5372(7) -0.2141(3) 0.0399(4)
H5B H -0.5179 -0.1931 0.0026
C22B C -0.3511(8) -0.1681(4) 0.1082(4)
C23B C -0.4240(7) -0.2288(3) 0.2318(4)
C24B C -0.7874(7) -0.3169(3) 0.0821(4)
C25B C -0.7094(7) -0.2602(3) -0.0407(4)
O1B O 0.3532(5) -0.2196(2) 0.5176(3)
O2B O 0.3243(6) -0.3156(3) 0.5006(3)
O3B O 0.4932(5) -0.2927(2) 0.3963(3)
O4B O 0.4103(6) -0.3579(2) 0.3207(3)
O5B O 0.0245(6) -0.2681(3) 0.1670(3)
O6B O -0.0038(5) -0.1748(2) 0.1927(3)
O7B O -0.1462(5) -0.2012(2) 0.3149(3)
O8B O -0.0392(6) -0.1195(3) 0.3483(3)
O13B O -0.2475(5) -0.1923(2) 0.1292(3)
O14B O -0.3643(6) -0.1167(3) 0.0872(4)
O15B O -0.3887(6) -0.1771(2) 0.2476(3)
O16B O -0.4084(6) -0.2710(2) 0.2740(3)
O17B O -0.7990(6) -0.3616(2) 0.1180(3)
O18B O -0.8825(5) -0.2944(2) 0.0445(3)
O19B O -0.7406(5) -0.2163(3) -0.0764(3)
O20B O -0.7260(5) -0.3132(2) -0.0607(3)
O21B O 0.4752(5) -0.1045(2) 0.4788(3)
O22B O 0.5106(6) -0.0416(3) 0.6095(3)
O23B O 0.4764(7) -0.1126(3) 0.7177(3)
O24B O 0.2752(6) -0.1902(3) 0.6473(3)
O25B O -0.6606(7) -0.1780(3) -0.1991(4)
O26B O -0.8733(9) -0.1112(3) -0.2751(4)
O27B O -0.8962(9) -0.0377(3) -0.1691(4)
O28B O -0.6673(8) -0.0845(4) -0.1010(5)
O29B O -0.9001(7) -0.1012(3) -0.0454(3)
O30B O 0.0720(6) -0.1779(3) 0.0609(3)
O31B O -0.1080(10) -0.0763(3) 0.0863(4)
O32B O -0.2693(6) -0.0809(3) 0.3457(3)
O33B O -0.4750(5) -0.1788(2) 0.3751(3)
Cu1A Cu 0.40995(9) -0.32681(4) 0.59588(5)
Cu1C Cu -0.40995(9) 0.32681(4) 0.40412(5)
Cu2A Cu -0.80630(9) -0.32299(4) -0.15588(5)
Cu2C Cu 0.80630(9) 0.32299(4) 1.15588(5)
Nd1A Nd -1.04126(4) -0.351489(18) 0.09673(2)
Nd1A_2 Nd -0.04126(4) -0.351489(18) 0.09673(2)
Nd1C Nd 0.04126(4) 0.351489(18) 0.90327(2)
Nd1C_2 Nd 1.04126(4) 0.351489(18) 0.90327(2)
Nd2A Nd -0.35039(4) -0.355581(18) 0.34736(2)
Nd2A_2 Nd 0.64961(4) -0.355581(18) 0.34736(2)
Nd2C Nd -0.64961(4) 0.355581(18) 0.65264(2)
Nd2C_2 Nd 0.35039(4) 0.355581(18) 0.65264(2)
O2A O -0.1757(6) -0.1844(3) 0.0006(3)
O2C O 0.1757(6) 0.1844(3) 0.9994(3)
O3A O -1.0068(5) -0.2073(2) -0.1037(3)
O3C O 1.0068(5) 0.2073(2) 1.1037(3)
O4A O -1.0897(6) -0.1421(2) -0.1793(3)
O4C O 1.0897(6) 0.1421(2) 1.1793(3)
O5A O 0.5245(6) -0.2319(3) 0.6670(3)
O5C O -0.5245(6) 0.2319(3) 0.3330(3)
O16A O -0.9084(6) -0.2290(2) -0.2260(3)
O16C O 0.9084(6) 0.2290(2) 1.2260(3)
O17A O 0.7010(6) -0.1384(2) 0.6180(3)
O17C O -0.7010(6) 0.1384(2) 0.3820(3)
O18A O 0.6175(5) -0.2056(2) 0.5445(3)
O18C O -0.6175(5) 0.2056(2) 0.4555(3)
O20A O -0.2260(5) -0.1868(2) 0.4393(3)
O20C O 0.2260(5) 0.1868(2) 0.5607(3)
O34 O 0.8319(7) 0.0618(3) 0.6671(4)
O35 O 0.7407(9) 0.1271(7) 0.8627(5)
O36 O 0.6485(9) 0.1156(5) 0.7258(4)
O37 O 0.8940(10) -0.0663(4) 0.6877(5)
O38 O 0.7007(14) -0.0749(7) 0.8151(12)
O39 O 0.9041(13) 0.0370(5) 0.8031(6)
O40 O 0.5910(10) 0.0604(6) 0.9323(10)
O41 O 0.5971(13) -0.1013(10) 0.9301(7)
O42 O 0.5504(14) 0.0128(7) 0.7772(6)
O43 O 0.0977(11) 0.0193(6) 1.0554(10)
O44 O 0.310(2) 0.0190(16) 0.7746(19)
loop_
_geom_bond_atom_site_label_1
_geom_bond_atom_site_label_2
_geom_bond_site_symmetry_1
_geom_bond_site_symmetry_2
Cu1 O5 1_555 1_555
Cu2 O7 1_555 1_555
Nd1 O1 1_555 1_555
Nd2 O19 1_555 1_555
C1 C2 1_555 1_555
C2 C3 1_555 1_555
C3 H1 1_555 1_555
C4 C3 1_555 1_555
C5 C4 1_555 1_555
C6 C1 1_555 1_555
H2 C6 1_555 1_555
C7 C1 1_555 1_555
C8 C2 1_555 1_555
C9 C4 1_555 1_555
C10 C5 1_555 1_555
C11 C12 1_555 1_555
C12 C13 1_555 1_555
C13 H3 1_555 1_555
C14 C11 1_555 1_555
C15 C12 1_555 1_555
C16 C17 1_555 1_555
C17 C18 1_555 1_555
C18 H4 1_555 1_555
C19 C18 1_555 1_555
C20 C19 1_555 1_555
C21 C16 1_555 1_555
H5 C21 1_555 1_555
C22 C16 1_555 1_555
C23 C17 1_555 1_555
C24 C19 1_555 1_555
C25 C20 1_555 1_555
O1 C7 1_555 1_555
O2 C7 1_555 1_555
O3 C8 1_555 1_555
O4 C8 1_555 1_555
O5 C9 1_555 1_555
O6 Cu1 1_555 1_555
O7 C10 1_555 1_555
O8 C10 1_555 1_555
O9 C14 1_555 1_555
O10 C14 1_555 1_555
O11 Nd1 1_555 1_555
O12 C15 1_555 1_555
O13 Cu1 1_555 1_555
O14 C22 1_555 1_555
O15 Cu2 1_555 1_555
O16 Cu2 1_555 1_555
O17 C24 1_555 1_555
O18 C24 1_555 1_555
O19 C25 1_555 1_555
O20 C25 1_555 1_555
O21 Nd1 1_555 1_555
O22 Nd1 1_555 1_555
O23 Nd1 1_555 1_555
O24 Nd1 1_555 1_555
O25 Nd2 1_555 1_555
O26 Nd2 1_555 1_555
O27 Nd2 1_555 1_555
O28 Nd2 1_555 1_555
O29 Nd2 1_555 1_555
O30 Cu1 1_555 1_555
O31 Cu1 1_555 1_555
O32 Cu2 1_555 1_555
O33 Cu2 1_555 1_555
C11B C13 1_555 1_555
C12B C11B 1_555 1_555
C13B C11 1_555 1_555
H3B C13B 1_555 1_555
C14B C11B 1_555 1_555
C15B C12B 1_555 1_555
O9B C14B 1_555 1_555
O10B C14B 1_555 1_555
O11B C15B 1_555 1_555
O12B C15B 1_555 1_555
Cu1B O5B 1_555 1_555
Cu2B O7B 1_555 1_555
Nd1B O11B 1_555 1_555
Nd2B O19B 1_555 1_555
C1B C2B 1_555 1_555
C2B C3B 1_555 1_555
C3B H1B 1_555 1_555
C4B C3B 1_555 1_555
C5B C4B 1_555 1_555
C6B C1B 1_555 1_555
H2B C6B 1_555 1_555
C7B C1B 1_555 1_555
C8B C2B 1_555 1_555
C9B C4B 1_555 1_555
C10B C5B 1_555 1_555
C16B C17B 1_555 1_555
C17B C18B 1_555 1_555
C18B H4B 1_555 1_555
C19B C18B 1_555 1_555
C20B C19B 1_555 1_555
C21B C16B 1_555 1_555
H5B C21B 1_555 1_555
C22B C16B 1_555 1_555
C23B C17B 1_555 1_555
C24B C19B 1_555 1_555
C25B C20B 1_555 1_555
O1B Nd1B 1_555 1_555
O2B C7B 1_555 1_555
O3B C8B 1_555 1_555
O4B C8B 1_555 1_555
O5B C9B 1_555 1_555
O6B Cu1B 1_555 1_555
O7B C10B 1_555 1_555
O8B C10B 1_555 1_555
O13B Cu1B 1_555 1_555
O14B C22B 1_555 1_555
O15B Cu2B 1_555 1_555
O16B Cu2B 1_555 1_555
O17B C24B 1_555 1_555
O18B C24B 1_555 1_555
O19B C25B 1_555 1_555
O20B C25B 1_555 1_555
O21B Nd1B 1_555 1_555
O22B Nd1B 1_555 1_555
O23B Nd1B 1_555 1_555
O24B Nd1B 1_555 1_555
O25B Nd2B 1_555 1_555
O26B Nd2B 1_555 1_555
O27B Nd2B 1_555 1_555
O28B Nd2B 1_555 1_555
O29B Nd2B 1_555 1_555
O30B Cu1B 1_555 1_555
O31B Cu1B 1_555 1_555
O32B Cu2B 1_555 1_555
O33B Cu2B 1_555 1_555
Cu1A O2B 1_555 1_555
Cu1C O2 1_555 1_555
Cu2A O20B 1_555 1_555
Cu2C O20 1_555 1_555
Nd1A O17B 1_555 1_555
Nd1A_2 O5B 1_555 1_555
Nd1C O5 1_555 1_555
Nd1C_2 O17 1_555 1_555
Nd2A O16B 1_555 1_555
Nd2A_2 O3B 1_555 1_555
Nd2C O3 1_555 1_555
Nd2C_2 O16 1_555 1_555
O2A Cu1B 1_555 1_555
O2C Cu1 1_555 1_555
O3A Nd2B 1_555 1_555
O3C Nd2 1_555 1_555
O4A Nd2B 1_555 1_555
O4C Nd2 1_555 1_555
O5A Nd1B 1_555 1_555
O5C Nd1 1_555 1_555
O16A Nd2B 1_555 1_555
O16C Nd2 1_555 1_555
O17A Nd1B 1_555 1_555
O17C Nd1 1_555 1_555
O18A Nd1B 1_555 1_555
O18C Nd1 1_555 1_555
O20A Cu2B 1_555 1_555
O20C Cu2 1_555 1_555
C5 C6 1_555 1_555
C9 O6 1_555 1_555
C15 O11 1_555 1_555
C20 C21 1_555 1_555
C22 O13 1_555 1_555
C23 O15 1_555 1_555
C23 O16 1_555 1_555
O4 Nd2C 1_555 1_555
O18 Nd1C_2 1_555 1_555
C12B C13B 1_555 1_555
C5B C6B 1_555 1_555
C7B O1B 1_555 1_555
C9B O6B 1_555 1_555
C20B C21B 1_555 1_555
C22B O13B 1_555 1_555
C23B O15B 1_555 1_555
C23B O16B 1_555 1_555
O4B Nd2A_2 1_555 1_555
O18B Nd1A 1_555 1_555
Cu1A O5A 1_555 1_555
Cu1C O5C 1_555 1_555
Cu2A O16A 1_555 1_555
Cu2C O16C 1_555 1_555

#END
