
#######################################################################
#
#                 Cambridge Crystallographic Data Centre
#                                CCDC 
#
#######################################################################
#
# If this CIF has been generated from an entry in the Cambridge 
# Structural Database, then it will include bibliographic, chemical, 
# crystal, experimental, refinement or atomic coordinate data resulting 
# from the CCDC's data processing and validation procedures.
#
#######################################################################

data_VOFYAS
_symmetry_cell_setting           monoclinic
_symmetry_space_group_name_H-M   'C 2/c'
_symmetry_Int_Tables_number      15
_space_group_name_Hall           '-C 2yn'
loop_
_symmetry_equiv_pos_site_id
_symmetry_equiv_pos_as_xyz
1 x,y,z
2 -x,y,1/2-z
3 1/2+x,1/2+y,z
4 1/2-x,1/2+y,1/2-z
5 -x,-y,-z
6 x,-y,1/2+z
7 1/2-x,1/2-y,-z
8 1/2+x,1/2-y,1/2+z
_cell_length_a                   25.973(6)
_cell_length_b                   6.7789(15)
_cell_length_c                   27.596(6)
_cell_angle_alpha                90
_cell_angle_beta                 107.919(3)
_cell_angle_gamma                90
_cell_volume                     4623.09
loop_
_atom_site_label
_atom_site_type_symbol
_atom_site_fract_x
_atom_site_fract_y
_atom_site_fract_z
O5 O 0.99451(15) 0.3960(5) 0.29726(14)
Cu1 Cu 0.90351(3) -0.05624(9) 0.28373(2)
Cu2 Cu 0.90357(3) 0.43969(9) 0.28359(2)
N1 N 0.87899(17) 0.2924(6) 0.21782(16)
N2 N 0.85552(17) 0.1900(7) 0.13941(16)
N3 N 0.87881(18) 0.0876(6) 0.21799(17)
C1 C 0.8652(2) 0.3485(8) 0.1707(2)
H1 H 0.8625 0.4792 0.1599
C2 C 0.8641(2) 0.0327(8) 0.1703(2)
H2 H 0.8600 -0.0977 0.1593
C3 C 0.7473(2) 0.3672(8) 0.0626(2)
H3 H 0.7666 0.4848 0.0702
C4 C 0.8357(2) 0.1878(8) 0.08295(19)
H4 H 0.8486 0.0701 0.0704
H5 H 0.8496 0.3018 0.0698
C5 C 0.7459(2) 0.0164(8) 0.0523(2)
H6 H 0.7644 -0.1021 0.0536
C6 C 0.7747(2) 0.1914(9) 0.0648(2)
C7 C 0.6904(2) 0.0173(8) 0.0381(2)
H7 H 0.6713 -0.1001 0.0289
C8 C 0.6911(3) 0.3693(8) 0.0490(2)
H8 H 0.6729 0.4881 0.0477
N4 N 0.59217(19) 0.2933(7) 0.15340(16)
N5 N 0.59262(18) 0.1914(7) 0.07852(15)
C9 C 0.6024(2) 0.1951(9) 0.0283(2)
H9 H 0.5866 0.3127 0.0096
H10 H 0.5861 0.0806 0.0084
C10 C 0.5924(2) 0.3511(8) 0.1077(2)
H11 H 0.5925 0.4816 0.0973
C11 C 0.6623(2) 0.1940(9) 0.03731(19)
N6 N 0.59350(19) 0.0886(7) 0.15348(17)
C12 C 0.5939(2) 0.0317(8) 0.1085(2)
H12 H 0.5949 -0.0988 0.0984
O6 O 0.90246(14) 0.1929(5) 0.31875(13)
O7 O 0.89887(15) 0.6925(5) 0.24929(13)
O8 O 0.99386(15) -0.0052(5) 0.29667(14)
Cu1_2 Cu 0.90351(3) 0.94376(9) 0.28373(2)
Cu1C Cu 0.59649(3) 0.44376(9) 0.21627(2)
Cu2C Cu 0.59643(3) -0.06031(9) 0.21641(2)
N4C N 0.90783(19) -0.2067(7) 0.34660(16)
N6C N 0.90650(19) 0.5886(7) 0.34652(17)
O7_2 O 0.89887(15) -0.3075(5) 0.24929(13)
O1 O 0.06679(16) 0.5025(5) 0.41926(15)
S1 S 0.08187(6) 0.6874(2) 0.40031(5)
O2 O 0.14060(15) 0.6979(6) 0.40916(14)
O3 O 0.05504(14) 0.6983(5) 0.34385(13)
O4 O 0.06341(16) 0.8572(5) 0.42434(15)
loop_
_geom_bond_atom_site_label_1
_geom_bond_atom_site_label_2
_geom_bond_site_symmetry_1
_geom_bond_site_symmetry_2
O1 S1 1_555 1_555
S1 O2 1_555 1_555
O3 S1 1_555 1_555
O4 S1 1_555 1_555
O5 Cu2 1_555 1_555
Cu1 N3 1_555 1_555
Cu2 N1 1_555 1_555
N1 N3 1_555 1_555
N2 C1 1_555 1_555
N3 C2 1_555 1_555
C1 N1 1_555 1_555
H1 C1 1_555 1_555
C2 N2 1_555 1_555
H2 C2 1_555 1_555
C3 H3 1_555 1_555
C4 N2 1_555 1_555
H4 C4 1_555 1_555
H5 C4 1_555 1_555
C5 H6 1_555 1_555
C6 C3 1_555 1_555
C7 C5 1_555 1_555
H7 C7 1_555 1_555
C8 C3 1_555 1_555
H8 C8 1_555 1_555
N4 C10 1_555 1_555
N5 C9 1_555 1_555
C9 H9 1_555 1_555
H10 C9 1_555 1_555
C10 N5 1_555 1_555
H11 C10 1_555 1_555
C11 C7 1_555 1_555
N6 N4 1_555 1_555
C12 N5 1_555 1_555
H12 C12 1_555 1_555
O6 Cu1 1_555 1_555
O7 Cu2 1_555 1_555
O8 Cu1 1_555 1_555
Cu1_2 O7 1_555 1_555
Cu1C N4 1_555 1_555
Cu2C N6 1_555 1_555
N4C Cu1 1_555 1_555
N6C Cu2 1_555 1_555
O7_2 Cu1 1_555 1_555
Cu2 O6 1_555 1_555
C4 C6 1_555 1_555
C5 C6 1_555 1_555
C8 C11 1_555 1_555
C9 C11 1_555 1_555
N6 C12 1_555 1_555

#END
