
#######################################################################
#
#                 Cambridge Crystallographic Data Centre
#                                CCDC 
#
#######################################################################
#
# If this CIF has been generated from an entry in the Cambridge 
# Structural Database, then it will include bibliographic, chemical, 
# crystal, experimental, refinement or atomic coordinate data resulting 
# from the CCDC's data processing and validation procedures.
#
#######################################################################

data_VOJXUO
_symmetry_cell_setting           triclinic
_symmetry_space_group_name_H-M   'P -1'
_symmetry_Int_Tables_number      2
_space_group_name_Hall           '-P 1'
loop_
_symmetry_equiv_pos_site_id
_symmetry_equiv_pos_as_xyz
1 x,y,z
2 -x,-y,-z
_cell_length_a                   22.909(6)
_cell_length_b                   24.833(6)
_cell_length_c                   28.216(7)
_cell_angle_alpha                69.956(3)
_cell_angle_beta                 73.716(3)
_cell_angle_gamma                79.628(3)
_cell_volume                     14412
loop_
_atom_site_label
_atom_site_type_symbol
_atom_site_fract_x
_atom_site_fract_y
_atom_site_fract_z
W1 W 0.33956(12) 0.83017(10) 0.76320(9)
W2 W 0.19353(11) 0.64185(10) 0.99720(10)
W3 W 0.40124(11) 0.69449(10) 0.80250(9)
W4 W 0.32310(11) 0.59591(9) 0.92588(9)
W5 W 0.19700(12) 0.88213(10) 0.84170(10)
W6 W 0.12775(12) 0.79182(10) 0.95356(10)
W7 W 0.32624(11) 0.68730(10) 0.98928(9)
W8 W 0.61151(12) 0.68784(10) 1.54891(10)
W9 W 0.73524(12) 0.63795(10) 1.47474(10)
W10 W 0.18846(12) 0.76679(10) 0.64582(9)
W11 W 0.17304(12) 0.52962(10) 0.80957(10)
W12 W 0.44889(12) 0.62434(10) 1.44128(10)
W13 W 0.04617(11) 0.81501(10) 0.72633(10)
W14 W 0.12074(11) 0.65841(10) 0.64373(9)
W15 W 0.24970(12) 0.63082(10) 0.68647(10)
W16 W 0.04272(12) 0.57406(10) 0.88160(10)
W17 W 0.57191(12) 0.57512(10) 1.36561(10)
W18 W 0.64574(12) 0.67316(10) 1.24029(10)
W19 W 0.61951(12) 0.92788(10) 1.38987(10)
W20 W 0.59104(12) 0.81078(10) 1.20004(10)
W21 W 0.45606(12) 0.86466(10) 1.28379(10)
W22 W 0.74844(12) 0.72920(10) 1.53490(10)
W23 W 0.75626(12) 0.87114(10) 1.30890(10)
W24 W 0.55117(12) 0.83965(10) 1.50387(10)
W25 W -0.02273(11) 0.72356(10) 0.83780(10)
W26 W 0.81180(12) 0.73344(10) 1.34920(10)
W27 W 0.82621(11) 0.82630(10) 1.40770(10)
W28 W 0.38806(12) 0.77664(11) 1.39863(10)
W29 W 0.04391(12) 0.55700(10) 0.76770(10)
W30 W 0.68780(12) 0.88252(10) 1.48980(10)
W31 W 0.43889(13) 0.60830(10) 1.33005(10)
W32 W 0.51272(13) 0.70709(10) 1.20297(10)
W33 W -0.02350(11) 0.70796(10) 0.72448(10)
W34 W 0.37655(12) 0.76133(11) 1.28817(10)
W35 W 0.40383(12) 0.78817(10) 0.86502(10)
W36 W 0.26057(12) 0.83932(10) 0.94401(10)
Sb1 Sb 0.12923(17) 0.68038(15) 0.77656(15)
Sb2 Sb 0.53459(18) 0.72783(15) 1.33281(14)
Sb3 Sb 0.66433(18) 0.77622(15) 1.41776(15)
Sb4 Sb 0.24800(17) 0.73242(15) 0.86851(14)
Cu1 Cu 0.6890(3) 0.6569(3) 1.3577(3)
Cu2 Cu 0.6061(3) 0.8670(3) 1.2963(3)
Cu3 Cu 0.5090(3) 0.7327(3) 1.4652(3)
Cu4 Cu 0.2843(3) 0.6139(3) 0.8060(3)
Cu5 Cu 0.1937(3) 0.8213(3) 0.7460(3)
Cu6 Cu 0.0934(3) 0.6851(3) 0.9106(3)
Cu7 Cu 0.4206(4) 0.6903(3) 1.0966(3)
Cu8 Cu -0.1496(3) 0.7183(3) 0.6388(3)
N1 N 0.3647(19) 0.6430(17) 1.1552(16)
C1 C 0.304(2) 0.635(2) 1.157(2)
N2 N 0.2747(19) 0.609(3) 1.209(2)
C2 C 0.317(3) 0.601(2) 1.2404(14)
C3 C 0.372(2) 0.622(2) 1.207(2)
N3 N 0.4779(16) 0.7377(17) 1.0405(14)
C4 C 0.515(2) 0.7763(19) 1.0432(14)
N4 N 0.5539(17) 0.7974(16) 0.9933(17)
C5 C 0.5412(17) 0.7720(17) 0.9597(12)
C6 C 0.4942(18) 0.7351(16) 0.9888(17)
N5 N -0.2215(13) 0.7097(15) 0.6931(13)
C7 C -0.2825(16) 0.7061(16) 0.6927(14)
N6 N -0.3214(13) 0.7145(17) 0.7391(16)
C8 C -0.284(2) 0.723(2) 0.7681(13)
C9 C -0.2227(18) 0.7204(18) 0.7397(16)
O1 O 0.0057(14) 0.5116(13) 0.7534(12)
O2 O 0.3364(14) 0.7680(14) 1.3549(12)
O3 O 0.6886(14) 0.7266(13) 1.4828(12)
O4 O 0.0236(16) 0.8872(15) 0.6995(14)
O5 O 0.2733(15) 0.6838(13) 0.9283(13)
O6 O 0.3369(13) 0.8330(12) 0.8979(11)
O7 O 0.0520(14) 0.7177(13) 0.7676(12)
O8 O 0.6897(14) 0.6477(13) 1.4319(12)
O9 O 0.6071(15) 0.8757(14) 1.5287(13)
O10 O 0.1755(14) 0.8289(13) 0.9807(12)
O11 O 0.3625(15) 0.6798(14) 1.0368(13)
O12 O 0.0890(15) 0.6172(14) 0.8968(13)
O13 O 0.3949(13) 0.6947(12) 1.4217(11)
O14 O -0.0145(15) 0.7863(13) 0.7017(12)
O15 O 0.5011(16) 0.6640(15) 1.4553(14)
O16 O 0.8204(13) 0.8783(12) 1.3436(11)
O17 O 0.5526(15) 0.9142(14) 1.4492(13)
O18 O 0.2239(11) 0.7945(10) 0.9013(10)
O19 O 0.4624(14) 0.6627(13) 0.7715(12)
O20 O 0.3907(16) 0.8391(15) 1.2633(13)
O21 O 0.1136(16) 0.5024(16) 0.7847(14)
O22 O 0.4068(15) 0.5900(14) 1.5022(13)
O23 O 0.1509(17) 0.7317(16) 0.6084(14)
O24 O 0.3589(13) 0.6158(12) 0.9733(11)
O25 O 0.7616(16) 0.8733(15) 1.4400(14)
O26 O 0.1595(15) 0.7204(14) 0.9976(13)
O27 O 0.7732(14) 0.6577(13) 1.5222(12)
O28 O 0.2765(14) 0.8777(13) 0.9758(12)
O29 O 0.5496(15) 0.7782(14) 1.1658(13)
O30 O 0.4000(14) 0.8421(13) 0.7985(12)
O31 O 0.6626(17) 0.6262(16) 1.5354(14)
O32 O 0.3620(16) 0.5280(15) 0.9367(14)
O33 O 0.6474(13) 0.8406(12) 1.4458(11)
O34 O 0.8556(14) 0.7741(13) 1.3794(12)
O35 O 0.2780(16) 0.6025(15) 0.8803(14)
O36 O 0.5180(15) 0.8574(14) 1.3135(13)
O37 O 0.4409(16) 0.7499(14) 1.2296(13)
O38 O 0.6609(14) 0.9455(13) 1.4367(12)
O39 O 0.3971(18) 0.8519(17) 1.3520(15)
O40 O 0.7953(15) 0.6802(14) 1.4187(13)
O41 O 0.4992(13) 0.6541(12) 1.3545(11)
O42 O 0.1028(15) 0.6040(13) 0.7948(12)
O43 O 0.0075(15) 0.5445(14) 0.8402(12)
O44 O 0.2100(15) 0.5743(14) 0.8268(13)
O45 O 0.4532(14) 0.7698(13) 1.3239(12)
O46 O 0.2533(14) 0.5779(14) 0.9835(12)
O47 O 0.4693(16) 0.8094(15) 0.8737(14)
O48 O 0.1068(16) 0.7584(14) 0.9146(13)
O49 O 0.1559(15) 0.6796(14) 0.7051(13)
O50 O 0.5641(16) 0.6522(15) 1.6078(14)
O51 O 0.3872(18) 0.6824(17) 1.3231(16)
O52 O 0.4866(15) 0.8544(13) 1.5444(12)
O53 O 0.8042(14) 0.7678(13) 1.4720(12)
O54 O 0.5811(15) 0.7668(14) 1.5470(13)
O55 O 0.1086(13) 0.7969(11) 0.6684(11)
O56 O -0.0167(16) 0.6395(15) 0.8642(14)
O57 O 0.1065(14) 0.6428(13) 0.5939(12)
O58 O 0.6525(15) 0.7528(14) 1.1900(13)
O59 O 0.4848(14) 0.6456(13) 1.2624(12)
O60 O 0.7092(15) 0.8053(14) 1.5282(13)
O61 O 0.2114(14) 0.7782(12) 0.6989(12)
O62 O 0.3834(12) 0.6374(11) 0.8733(10)
O63 O 0.3276(15) 0.7910(14) 1.4474(13)
O64 O 0.5135(16) 0.8420(15) 1.2254(14)
O65 O -0.0086(16) 0.6241(15) 0.7567(14)
O66 O 0.2017(14) 0.6209(13) 0.6390(12)
O67 O 0.5296(14) 0.8049(13) 1.4653(12)
O68 O 0.6672(14) 0.6911(13) 1.2909(12)
O69 O 0.4569(14) 0.7726(13) 1.4219(12)
O70 O 0.2135(16) 0.5644(15) 0.7338(14)
O71 O 0.2524(15) 0.6546(14) 1.0300(13)
O72 O 0.1482(14) 0.6003(13) 1.0537(12)
O73 O 0.7477(16) 0.7119(15) 1.3403(14)
O74 O 0.7792(15) 0.9246(14) 1.2489(13)
O75 O 0.6749(15) 0.6984(14) 1.5814(13)
O76 O 0.5067(15) 0.5536(14) 1.3412(13)
O77 O 0.5720(14) 0.6901(13) 1.5010(12)
O78 O 0.3300(14) 0.7554(13) 0.8398(12)
O79 O 0.0898(17) 0.5892(16) 0.7010(15)
O80 O 0.5147(14) 0.5625(13) 1.4332(12)
O81 O 0.4040(16) 0.5911(15) 1.4070(14)
O82 O 0.1280(17) 0.8647(16) 0.8978(14)
O83 O 0.3384(16) 0.6717(15) 0.7885(14)
O84 O 0.2774(14) 0.8760(13) 0.8039(12)
O85 O 0.3134(17) 0.7654(16) 1.2671(16)
O86 O 0.2221(15) 0.8213(14) 0.5914(13)
O87 O 0.6134(13) 0.6238(12) 1.3804(11)
O88 O 0.2332(17) 0.9020(16) 0.8908(14)
O89 O 0.5907(16) 0.8886(15) 1.3571(14)
O90 O -0.0138(15) 0.8033(14) 0.7904(13)
O91 O 0.0600(17) 0.8014(15) 0.9957(14)
O92 O 0.771(2) 0.5712(19) 1.4800(17)
O93 O 0.5917(16) 0.6713(15) 1.1988(14)
O94 O 0.0466(15) 0.7271(14) 0.8583(13)
O95 O 0.8100(15) 0.8056(14) 1.2944(12)
O96 O 0.2791(15) 0.7998(14) 0.7545(13)
O97 O 0.6130(15) 0.5028(14) 1.3809(13)
O98 O 0.7476(13) 0.7998(12) 1.3866(11)
O99 O -0.0824(14) 0.7100(13) 0.6955(12)
O100 O 0.3205(16) 0.5974(15) 0.6584(14)
O101 O 0.0450(14) 0.6945(13) 0.6710(12)
O102 O 0.1073(13) 0.8114(12) 0.7601(11)
O103 O 0.3926(18) 0.5623(17) 1.3232(15)
O104 O 0.4894(15) 0.6943(13) 1.1534(12)
O105 O 0.3873(15) 0.7248(14) 0.9268(13)
O106 O 0.5582(15) 0.7280(14) 1.2584(13)
O107 O 0.8749(18) 0.6993(16) 1.3176(15)
O108 O 0.2573(16) 0.7085(15) 0.6391(14)
O109 O 0.3652(15) 0.8815(14) 0.7042(13)
O110 O 0.5977(15) 0.9979(14) 1.3599(13)
O111 O 0.2143(16) 0.4631(15) 0.8247(14)
O112 O 0.4421(19) 0.9407(18) 1.2560(16)
O113 O 0.4023(14) 0.7660(13) 0.7465(12)
O114 O 0.6988(15) 0.9187(13) 1.3482(12)
O115 O 0.7073(15) 0.9209(14) 1.5219(13)
O116 O 0.2826(14) 0.7634(13) 0.9840(12)
O117 O 0.6072(14) 0.6069(13) 1.2948(12)
O118 O 0.6136(15) 0.8646(14) 1.1456(13)
O119 O 0.4442(14) 0.7370(13) 0.8290(12)
O120 O 0.6170(15) 0.8200(13) 1.2491(12)
O121 O -0.2096(16) 0.7207(15) 0.5818(14)
O122 O 0.1739(15) 0.8395(14) 0.8070(13)
O123 O 0.0000(16) 0.5359(15) 0.9420(14)
O124 O 0.8879(16) 0.8475(15) 1.4152(14)
O125 O 0.1747(17) 0.9533(15) 0.8102(14)
O126 O -0.0681(16) 0.7178(15) 0.7881(14)
O127 O 0.7094(14) 0.6402(13) 1.2137(12)
O128 O 0.1583(15) 0.6483(14) 0.9464(13)
O129 O 0.2656(16) 0.6481(15) 0.7379(14)
O130 O 0.6919(15) 0.8446(14) 1.3023(13)
O131 O 0.1136(17) 0.5172(16) 0.8767(15)
O132 O -0.0871(17) 0.7351(16) 0.8833(15)
N7 N 0.3520(14) 0.5423(13) 0.7934(13)
C10 C 0.3516(15) 0.5066(16) 0.7635(14)
N8 N 0.4063(17) 0.4691(13) 0.7624(13)
C11 C 0.4405(13) 0.4817(16) 0.7916(15)
C12 C 0.4069(16) 0.5269(15) 0.8107(14)
N9 N -0.0827(13) 0.7304(16) 0.5764(13)
C13 C -0.0243(16) 0.6996(13) 0.5778(12)
N10 N 0.0145(13) 0.7184(16) 0.5274(15)
C14 C -0.020(2) 0.7607(17) 0.4949(11)
C15 C -0.0800(17) 0.7682(15) 0.5251(16)
C16 C 0.6442(17) 0.9953(16) 1.2428(11)
C17 C 0.6533(15) 1.0391(12) 1.1940(13)
N11 N 0.6282(19) 1.0232(16) 1.1606(11)
C18 C 0.6036(17) 0.9695(15) 1.1888(15)
N12 N 0.6135(17) 0.9523(12) 1.2396(13)
N13 N 0.7514(15) 0.5820(15) 1.3472(16)
C19 C 0.7500(16) 0.5457(18) 1.3181(16)
N14 N 0.8043(19) 0.5076(15) 1.3173(14)
C20 C 0.8393(14) 0.5204(16) 1.3457(16)
C21 C 0.8066(17) 0.5664(15) 1.3642(13)
N15 N 0.4688(18) 0.6212(15) 1.0884(15)
C22 C 0.4453(15) 0.570(2) 1.0923(18)
N16 N 0.495(2) 0.5277(14) 1.0875(17)
C23 C 0.5494(16) 0.5522(17) 1.0806(15)
C24 C 0.5332(17) 0.6100(15) 1.0811(15)
O133 O 0.012(2) 0.664(2) 0.984(2)
N17 N 0.3668(15) 0.7586(13) 1.1064(15)
C25 C 0.3356(17) 0.7964(16) 1.0688(11)
N18 N 0.2987(16) 0.8389(14) 1.0901(16)
C26 C 0.3070(19) 0.8273(18) 1.1408(16)
C27 C 0.3491(19) 0.7776(18) 1.1508(12)
N19 N 0.2008(16) 0.9051(11) 0.6893(13)
C28 C 0.2340(15) 0.9465(15) 0.6923(12)
N20 N 0.2226(16) 0.9995(12) 0.6543(14)
C29 C 0.1824(17) 0.9909(15) 0.6279(13)
C30 C 0.1689(16) 0.9326(16) 0.6495(15)
O134 O 0.440(3) 0.702(3) 1.552(2)
N21 N -0.165(2) 0.7991(14) 0.6280(15)
C31 C -0.1246(17) 0.834(2) 0.632(2)
N22 N -0.155(3) 0.8905(18) 0.626(2)
C32 C -0.214(2) 0.8900(17) 0.6186(19)
C33 C -0.2198(17) 0.834(2) 0.6200(19)
N23 N -0.1372(16) 0.6350(11) 0.6558(14)
C34 C -0.1182(17) 0.5941(16) 0.6994(13)
N24 N -0.1230(19) 0.5383(13) 0.6985(15)
C35 C -0.1449(19) 0.5446(14) 0.6543(17)
C36 C -0.1537(17) 0.6044(17) 0.6280(12)
H1 H 0.2871 0.6449 1.1284
H2 H 0.2377 0.5997 1.2206
H3 H 0.3093 0.5847 1.2763
H4 H 0.4077 0.6220 1.2169
H5 H 0.5136 0.7860 1.0725
H6 H 0.5806 0.8215 0.9849
H7 H 0.5603 0.7783 0.9248
H8 H 0.4771 0.7130 0.9763
H9 H -0.2948 0.6994 0.6667
H10 H -0.3605 0.7143 0.7480
H11 H -0.2982 0.7299 0.8001
H12 H -0.1889 0.7247 0.7498
H13 H 0.3209 0.5076 0.7474
H14 H 0.4169 0.4434 0.7468
H15 H 0.4783 0.4634 0.7972
H16 H 0.4189 0.5435 0.8311
H17 H -0.0134 0.6720 0.6067
H18 H 0.0523 0.7062 0.5183
H19 H -0.0055 0.7802 0.4599
H20 H -0.1119 0.7933 0.5134
H21 H 0.6562 0.9949 1.2718
H22 H 0.6723 1.0724 1.1854
H23 H 0.6279 1.0426 1.1289
H24 H 0.5844 0.9492 1.1762
H25 H 0.7190 0.5467 1.3025
H26 H 0.8142 0.4815 1.3021
H27 H 0.8770 0.5020 1.3513
H28 H 0.8191 0.5833 1.3840
H29 H 0.4044 0.5657 1.0972
H30 H 0.4927 0.4931 1.0886
H31 H 0.5888 0.5337 1.0764
H32 H 0.5601 0.6360 1.0773
H33 H 0.3389 0.7939 1.0360
H34 H 0.2754 0.8668 1.0749
H35 H 0.2883 0.8485 1.1634
H36 H 0.3627 0.7606 1.1812
H37 H 0.2589 0.9399 0.7151
H38 H 0.2375 1.0312 0.6484
H39 H 0.1675 1.0187 0.6011
H40 H 0.1436 0.9154 0.6394
H41 H -0.0853 0.8227 0.6367
H42 H -0.1404 0.9197 0.6264
H43 H -0.2433 0.9212 0.6138
H44 H -0.2538 0.8212 0.6163
H45 H -0.1050 0.6024 0.7242
H46 H -0.1142 0.5062 0.7207
H47 H -0.1523 0.5149 0.6444
H48 H -0.1678 0.6207 0.5978
W22_2 W -0.25156(12) 0.72920(10) 0.53490(10)
O121_2 O 0.7904(16) 0.7207(15) 1.5818(14)
N25 N 0.2266(17) 0.430(3) 1.146(2)
C37 C 0.187(3) 0.3883(18) 1.153(2)
N26 N 0.126(2) 0.415(2) 1.1607(16)
C38 C 0.128(2) 0.472(2) 1.1587(19)
C39 C 0.190(3) 0.481(2) 1.150(2)
Cu9 Cu 0.3162(4) 0.4244(4) 1.1230(4)
N27 N 0.319(2) 0.4360(18) 1.1859(15)
C40 C 0.3729(17) 0.449(2) 1.1925(17)
N28 N 0.361(2) 0.4536(18) 1.2433(19)
C41 C 0.299(2) 0.4430(19) 1.2681(13)
C42 C 0.2729(16) 0.432(2) 1.2326(19)
N29 N 0.3130(19) 0.3933(19) 1.0741(14)
C43 C 0.2897(19) 0.4234(16) 1.0294(17)
N30 N 0.301(2) 0.387(2) 0.9981(15)
C44 C 0.331(3) 0.334(2) 1.023(2)
C45 C 0.339(3) 0.3380(18) 1.070(2)
O135 O 0.3217(18) 0.5219(17) 1.0731(15)
N31 N 0.4065(14) 0.4101(19) 1.0979(18)
C46 C 0.449(2) 0.3699(17) 1.1232(13)
N32 N 0.5073(16) 0.3739(16) 1.0876(17)
C47 C 0.5004(18) 0.4167(18) 1.0404(14)
C48 C 0.438(2) 0.4391(16) 1.0468(16)
H49 H 0.1987 0.3507 1.1524
H50 H 0.0937 0.3986 1.1656
H51 H 0.0947 0.4992 1.1626
H52 H 0.2046 0.5154 1.1469
H53 H 0.4099 0.4543 1.1678
H54 H 0.3866 0.4613 1.2567
H55 H 0.2793 0.4432 1.3017
H56 H 0.2329 0.4240 1.2389
H57 H 0.2704 0.4606 1.0221
H58 H 0.2914 0.3950 0.9689
H59 H 0.3443 0.3024 1.0112
H60 H 0.3573 0.3095 1.0943
H61 H 0.4407 0.3452 1.1571
H62 H 0.5407 0.3540 1.0936
H63 H 0.5313 0.4281 1.0105
H64 H 0.4210 0.4676 1.0218
Cu10 Cu 0.0000 1.0000 0.5000
N33 N -0.0748(14) 0.975(2) 0.4946(16)
C49 C -0.128(2) 1.0144(14) 0.4990(18)
N34 N -0.1776(14) 0.9883(18) 0.4978(17)
C50 C -0.155(2) 0.9329(17) 0.4927(17)
C51 C -0.0917(19) 0.9247(16) 0.4907(19)
N35 N -0.0260(16) 1.0795(12) 0.4747(15)
C52 C -0.0224(16) 1.1147(16) 0.4224(13)
N36 N -0.0571(17) 1.1680(13) 0.4231(14)
C53 C -0.0821(17) 1.1658(16) 0.4758(17)
C54 C -0.0628(19) 1.1111(18) 0.5076(11)
O136 O 0.046(4) 1.005(3) 0.405(3)
H65 H -0.1299 1.0508 0.5021
H66 H -0.2147 1.0033 0.4998
H67 H -0.1781 0.9065 0.4910
H68 H -0.0657 0.8921 0.4875
H69 H -0.0011 1.1046 0.3930
H70 H -0.0621 1.1966 0.3964
H71 H -0.1067 1.1951 0.4874
H72 H -0.0726 1.0982 0.5437
N33A N 0.0748(14) 1.025(2) 0.5054(16)
C49A C 0.128(2) 0.9856(14) 0.5010(18)
N34A N 0.1776(14) 1.0117(18) 0.5022(17)
C50A C 0.155(2) 1.0671(17) 0.5073(17)
C51A C 0.0917(19) 1.0753(16) 0.5093(19)
N35A N 0.0260(16) 0.9205(12) 0.5253(15)
C52A C 0.0224(16) 0.8853(16) 0.5776(13)
N36A N 0.0571(17) 0.8320(13) 0.5769(14)
C53A C 0.0821(17) 0.8342(16) 0.5242(17)
C54A C 0.0628(19) 0.8889(18) 0.4924(11)
O136A O -0.046(4) 0.995(3) 0.595(3)
H65A H 0.1299 0.9492 0.4979
H66A H 0.2147 0.9967 0.5002
H67A H 0.1781 1.0935 0.5090
H68A H 0.0657 1.1079 0.5125
H69A H 0.0011 0.8954 0.6070
H70A H 0.0621 0.8034 0.6036
H71A H 0.1067 0.8049 0.5126
H72A H 0.0726 0.9018 0.4563
Cu11 Cu 0.0000 0.5000 0.5000
N37 N -0.0316(19) 0.5820(12) 0.4789(14)
C55 C -0.0939(16) 0.6009(18) 0.4787(17)
N38 N -0.0978(16) 0.6607(18) 0.4511(17)
C56 C -0.038(2) 0.6787(13) 0.4342(15)
C57 C 0.0030(14) 0.6300(17) 0.4514(15)
C58 C -0.017(2) 0.5407(13) 0.3881(17)
C59 C -0.0235(19) 0.5207(18) 0.3484(12)
N39 N -0.0227(18) 0.4598(18) 0.3681(15)
C60 C -0.0159(18) 0.4422(13) 0.4199(15)
N40 N -0.0126(16) 0.4922(17) 0.4322(12)
O137 O 0.116(3) 0.531(3) 0.449(2)
H73 H -0.1264 0.5781 0.4940
H74 H -0.1306 0.6822 0.4456
H75 H -0.0273 0.7158 0.4153
H76 H 0.0450 0.6297 0.4456
H77 H -0.0164 0.5789 0.3856
H78 H -0.0274 0.5435 0.3154
H79 H -0.0257 0.4375 0.3515
H80 H -0.0140 0.4045 0.4418
N37A N 0.0316(19) 0.4180(12) 0.5211(14)
C55A C 0.0939(16) 0.3991(18) 0.5213(17)
N38A N 0.0978(16) 0.3393(18) 0.5489(17)
C56A C 0.038(2) 0.3213(13) 0.5658(15)
C57A C -0.0030(14) 0.3700(17) 0.5486(15)
C58A C 0.017(2) 0.4593(13) 0.6119(17)
C59A C 0.0235(19) 0.4793(18) 0.6516(12)
N39A N 0.0227(18) 0.5402(18) 0.6319(15)
C60A C 0.0159(18) 0.5578(13) 0.5801(15)
N40A N 0.0126(16) 0.5078(17) 0.5678(12)
O137A O -0.116(3) 0.469(3) 0.551(2)
H73A H 0.1264 0.4219 0.5060
H74A H 0.1306 0.3178 0.5544
H75A H 0.0273 0.2842 0.5847
H76A H -0.0450 0.3703 0.5544
H77A H 0.0164 0.4211 0.6144
H78A H 0.0274 0.4565 0.6846
H79A H 0.0257 0.5625 0.6485
H80A H 0.0140 0.5955 0.5582
Cu12 Cu 0.5000 0.0000 1.0000
N41 N 0.459(2) -0.0504(17) 1.0669(13)
C61 C 0.4870(16) -0.0984(18) 1.1001(17)
N42 N 0.443(2) -0.1182(16) 1.1476(14)
C62 C 0.3877(17) -0.082(2) 1.1437(18)
C63 C 0.397(2) -0.0405(18) 1.094(2)
N43 N 0.526(2) 0.0479(16) 1.0330(17)
C64 C 0.5709(17) 0.0880(19) 1.0124(14)
N44 N 0.567(2) 0.1157(17) 1.050(2)
C65 C 0.519(2) 0.0926(19) 1.0937(15)
C66 C 0.4943(17) 0.0507(18) 1.0832(16)
O138 O 0.605(3) -0.066(3) 1.013(3)
H81 H 0.5271 -0.1142 1.0922
H82 H 0.4491 -0.1469 1.1741
H83 H 0.3515 -0.0859 1.1693
H84 H 0.3685 -0.0117 1.0811
H85 H 0.5982 0.0950 0.9801
H86 H 0.5887 0.1418 1.0468
H87 H 0.5067 0.1030 1.1239
H88 H 0.4626 0.0289 1.1053
N41A N 0.541(2) 0.0504(17) 0.9331(13)
C61A C 0.5130(16) 0.0984(18) 0.8999(17)
N42A N 0.557(2) 0.1182(16) 0.8524(14)
C62A C 0.6123(17) 0.082(2) 0.8563(18)
C63A C 0.603(2) 0.0405(18) 0.906(2)
N43A N 0.474(2) -0.0479(16) 0.9670(17)
C64A C 0.4291(17) -0.0880(19) 0.9876(14)
N44A N 0.433(2) -0.1157(17) 0.950(2)
C65A C 0.481(2) -0.0926(19) 0.9063(15)
C66A C 0.5057(17) -0.0507(18) 0.9168(16)
O138A O 0.395(3) 0.066(3) 0.987(3)
H81A H 0.4729 0.1142 0.9078
H82A H 0.5509 0.1469 0.8259
H83A H 0.6485 0.0859 0.8307
H84A H 0.6315 0.0117 0.9189
H85A H 0.4018 -0.0950 1.0199
H86A H 0.4113 -0.1418 0.9532
H87A H 0.4933 -0.1030 0.8761
H88A H 0.5374 -0.0289 0.8947
Na1 Na 0.2769(10) 0.2220(10) 0.7469(9)
Na2 Na 0.5150(11) 0.1265(10) 0.6028(9)
Na3 Na 0.4112(10) 0.3968(9) 0.5249(8)
Na4 Na 0.1822(9) 0.5578(8) 0.9195(8)
Na5 Na 0.0652(10) 0.8249(9) 0.8432(9)
Na6 Na 0.3209(10) 0.7353(9) 0.7031(8)
O139 O 0.120(3) 0.919(3) 1.041(3)
Na7 Na 0.155(3) 0.579(3) 0.506(3)
Na8 Na 0.269(2) 0.582(2) 0.556(2)
Na9 Na -0.126(2) 0.658(2) 0.878(2)
Na10 Na 0.0207(18) 0.5596(16) 1.0153(15)
Na11 Na 0.428(2) 0.9013(19) 0.6195(17)
Na12 Na 0.617(2) 0.4116(19) 0.4135(18)
Na13 Na 0.788(3) 0.259(3) 0.498(3)
Na14 Na 0.245(3) 0.870(3) 0.493(3)
O140 O 0.462(2) 0.457(2) 0.450(2)
O141 O 0.523(2) 0.022(2) 0.6642(19)
O142 O 0.3374(19) 0.4854(18) 0.5330(16)
O143 O 0.049(3) 0.925(3) 0.790(2)
O144 O 0.125(2) 0.5086(18) 1.0056(17)
O145 O 0.256(2) 0.478(2) 0.9102(19)
O146 O 0.186(3) 0.293(3) 0.774(3)
O147 O 0.339(3) 0.828(2) 0.632(2)
O148 O 0.419(3) 0.699(3) 0.659(3)
O149 O 0.223(4) 0.358(3) 0.876(3)
O150 O 0.601(3) 0.107(3) 0.535(3)
O151 O -0.110(2) 0.902(2) 0.832(2)
O152 O -0.186(2) 0.805(2) 0.8305(19)
O153 O -0.023(2) 0.886(2) 1.0596(18)
O154 O 0.053(2) 0.973(2) 0.941(2)
O155 O 0.041(3) 0.732(3) 1.102(3)
O156 O -0.179(3) 0.827(3) 0.941(2)
O157 O 0.474(2) 0.805(2) 0.659(2)
O158 O 0.180(3) 0.745(3) 1.090(2)
O159 O 0.044(2) 0.370(2) 0.737(2)
O160 O 0.3893(19) 0.2084(18) 0.3650(17)
O161 O 0.019(2) 0.257(2) 0.692(2)
O162 O 0.679(3) 0.303(2) 0.455(2)
O163 O 0.575(2) 0.678(2) 0.6991(19)
O164 O 0.128(3) 1.048(3) 0.814(2)
O165 O -0.440(2) 0.764(2) 0.771(2)
O166 O 0.248(3) 0.524(3) 0.511(2)
O167 O 0.097(3) 0.052(3) 0.735(3)
O168 O 0.133(3) 0.698(3) 0.459(3)
O169 O 0.380(3) 0.949(3) 0.556(2)
O170 O 0.018(2) 0.568(2) 1.102(2)
O171 O 0.563(4) -0.065(3) 0.799(3)
O172 O 0.540(4) -0.058(4) 0.583(4)
O173 O 0.274(4) 0.924(3) 0.512(3)
loop_
_geom_bond_atom_site_label_1
_geom_bond_atom_site_label_2
_geom_bond_site_symmetry_1
_geom_bond_site_symmetry_2
W1 O30 1_555 1_555
W2 O5 1_555 1_555
W3 O19 1_555 1_555
W4 O5 1_555 1_555
W5 O18 1_555 1_555
W6 O10 1_555 1_555
W7 O5 1_555 1_555
W8 O3 1_555 1_555
W9 O3 1_555 1_555
W10 O23 1_555 1_555
W11 O21 1_555 1_555
W12 O13 1_555 1_555
W13 O4 1_555 1_555
W14 O23 1_555 1_555
W15 O49 1_555 1_555
W16 O12 1_555 1_555
W17 O41 1_555 1_555
W18 O58 1_555 1_555
W19 O17 1_555 1_555
W20 O29 1_555 1_555
W21 O20 1_555 1_555
W22 O3 1_555 1_555
W23 O16 1_555 1_555
W24 O9 1_555 1_555
W25 O7 1_555 1_555
W26 O34 1_555 1_555
W27 O16 1_555 1_555
W28 O2 1_555 1_555
W29 O1 1_555 1_555
W30 O9 1_555 1_555
W31 O41 1_555 1_555
W32 O29 1_555 1_555
W33 O7 1_555 1_555
W34 O2 1_555 1_555
W35 O6 1_555 1_555
W36 O6 1_555 1_555
Sb1 O7 1_555 1_555
Sb2 O41 1_555 1_555
Sb3 O3 1_555 1_555
Sb4 O5 1_555 1_555
Cu1 O8 1_555 1_555
Cu2 O36 1_555 1_555
Cu3 O15 1_555 1_555
Cu4 O35 1_555 1_555
Cu5 O61 1_555 1_555
Cu6 O12 1_555 1_555
Cu7 N1 1_555 1_555
Cu8 N5 1_555 1_555
N1 C1 1_555 1_555
C1 N2 1_555 1_555
N2 C2 1_555 1_555
C2 C3 1_555 1_555
C3 N1 1_555 1_555
N3 Cu7 1_555 1_555
C4 N3 1_555 1_555
N4 C4 1_555 1_555
C5 N4 1_555 1_555
C6 N3 1_555 1_555
N5 C7 1_555 1_555
C7 N6 1_555 1_555
N6 C8 1_555 1_555
C8 C9 1_555 1_555
C9 N5 1_555 1_555
O7 W13 1_555 1_555
O8 W9 1_555 1_555
O10 W36 1_555 1_555
O11 W7 1_555 1_555
O13 W28 1_555 1_555
O14 W13 1_555 1_555
O15 W12 1_555 1_555
O17 W24 1_555 1_555
O18 W6 1_555 1_555
O20 W34 1_555 1_555
O21 W29 1_555 1_555
O22 W12 1_555 1_555
O24 W4 1_555 1_555
O25 W27 1_555 1_555
O26 W2 1_555 1_555
O27 W9 1_555 1_555
O28 W36 1_555 1_555
O30 W35 1_555 1_555
O31 W8 1_555 1_555
O32 W4 1_555 1_555
O33 W19 1_555 1_555
O34 W27 1_555 1_555
O35 W4 1_555 1_555
O36 W21 1_555 1_555
O37 W32 1_555 1_555
O38 W19 1_555 1_555
O39 W21 1_555 1_555
O40 W9 1_555 1_555
O41 W12 1_555 1_555
O42 W11 1_555 1_555
O43 W16 1_555 1_555
O44 W11 1_555 1_555
O45 W21 1_555 1_555
O46 W2 1_555 1_555
O47 W35 1_555 1_555
O48 W6 1_555 1_555
O49 W10 1_555 1_555
O50 W8 1_555 1_555
O51 W31 1_555 1_555
O52 W24 1_555 1_555
O53 W22 1_555 1_555
O54 W8 1_555 1_555
O55 W10 1_555 1_555
O56 W16 1_555 1_555
O57 W14 1_555 1_555
O58 W20 1_555 1_555
O59 W31 1_555 1_555
O60 W22 1_555 1_555
O61 W10 1_555 1_555
O62 W3 1_555 1_555
O63 W28 1_555 1_555
O64 W20 1_555 1_555
O65 W29 1_555 1_555
O66 W14 1_555 1_555
O67 W24 1_555 1_555
O68 W18 1_555 1_555
O69 W28 1_555 1_555
O70 W11 1_555 1_555
O71 W2 1_555 1_555
O72 W2 1_555 1_555
O73 W26 1_555 1_555
O74 W23 1_555 1_555
O75 W8 1_555 1_555
O76 W17 1_555 1_555
O77 W8 1_555 1_555
O78 W1 1_555 1_555
O79 W14 1_555 1_555
O80 W12 1_555 1_555
O81 W12 1_555 1_555
O82 W5 1_555 1_555
O83 W3 1_555 1_555
O84 W1 1_555 1_555
O85 W34 1_555 1_555
O86 W10 1_555 1_555
O87 W17 1_555 1_555
O88 W5 1_555 1_555
O89 W19 1_555 1_555
O90 W13 1_555 1_555
O91 W6 1_555 1_555
O92 W9 1_555 1_555
O93 W18 1_555 1_555
O94 W25 1_555 1_555
O95 W23 1_555 1_555
O96 W1 1_555 1_555
O97 W17 1_555 1_555
O98 W23 1_555 1_555
O99 W33 1_555 1_555
O100 W15 1_555 1_555
O101 W14 1_555 1_555
O102 W13 1_555 1_555
O103 W31 1_555 1_555
O104 W32 1_555 1_555
O105 W7 1_555 1_555
O106 W18 1_555 1_555
O107 W26 1_555 1_555
O108 W10 1_555 1_555
O109 W1 1_555 1_555
O110 W19 1_555 1_555
O111 W11 1_555 1_555
O112 W21 1_555 1_555
O113 W1 1_555 1_555
O114 W19 1_555 1_555
O115 W30 1_555 1_555
O116 W7 1_555 1_555
O117 W17 1_555 1_555
O118 W20 1_555 1_555
O119 W3 1_555 1_555
O120 W20 1_555 1_555
O121 Cu8 1_555 1_555
O122 W5 1_555 1_555
O123 W16 1_555 1_555
O124 W27 1_555 1_555
O125 W5 1_555 1_555
O126 W25 1_555 1_555
O127 W18 1_555 1_555
O128 W2 1_555 1_555
O129 W15 1_555 1_555
O130 W23 1_555 1_555
O131 W11 1_555 1_555
O132 W25 1_555 1_555
N7 Cu4 1_555 1_555
C10 N7 1_555 1_555
N8 C10 1_555 1_555
C11 N8 1_555 1_555
C12 N7 1_555 1_555
N9 Cu8 1_555 1_555
C13 N9 1_555 1_555
N10 C13 1_555 1_555
C14 N10 1_555 1_555
C15 N9 1_555 1_555
C16 C17 1_555 1_555
C17 N11 1_555 1_555
N11 C18 1_555 1_555
C18 N12 1_555 1_555
N12 Cu2 1_555 1_555
N13 Cu1 1_555 1_555
C19 N13 1_555 1_555
N14 C19 1_555 1_555
C20 N14 1_555 1_555
C21 N13 1_555 1_555
N15 Cu7 1_555 1_555
C22 N15 1_555 1_555
N16 C22 1_555 1_555
C23 N16 1_555 1_555
C24 N15 1_555 1_555
O133 Cu6 1_555 1_555
N17 Cu7 1_555 1_555
C25 N17 1_555 1_555
N18 C25 1_555 1_555
C26 N18 1_555 1_555
C27 N17 1_555 1_555
N19 Cu5 1_555 1_555
C28 N19 1_555 1_555
N20 C28 1_555 1_555
C29 N20 1_555 1_555
C30 N19 1_555 1_555
O134 Cu3 1_555 1_555
N21 Cu8 1_555 1_555
C31 N21 1_555 1_555
N22 C31 1_555 1_555
C32 N22 1_555 1_555
C33 N21 1_555 1_555
N23 Cu8 1_555 1_555
C34 N23 1_555 1_555
N24 C34 1_555 1_555
C35 N24 1_555 1_555
C36 N23 1_555 1_555
H1 C1 1_555 1_555
H2 N2 1_555 1_555
H3 C2 1_555 1_555
H4 C3 1_555 1_555
H5 C4 1_555 1_555
H6 N4 1_555 1_555
H7 C5 1_555 1_555
H8 C6 1_555 1_555
H9 C7 1_555 1_555
H10 N6 1_555 1_555
H11 C8 1_555 1_555
H12 C9 1_555 1_555
H13 C10 1_555 1_555
H14 N8 1_555 1_555
H15 C11 1_555 1_555
H16 C12 1_555 1_555
H17 C13 1_555 1_555
H18 N10 1_555 1_555
H19 C14 1_555 1_555
H20 C15 1_555 1_555
H21 C16 1_555 1_555
H22 C17 1_555 1_555
H23 N11 1_555 1_555
H24 C18 1_555 1_555
H25 C19 1_555 1_555
H26 N14 1_555 1_555
H27 C20 1_555 1_555
H28 C21 1_555 1_555
H29 C22 1_555 1_555
H30 N16 1_555 1_555
H31 C23 1_555 1_555
H32 C24 1_555 1_555
H33 C25 1_555 1_555
H34 N18 1_555 1_555
H35 C26 1_555 1_555
H36 C27 1_555 1_555
H37 C28 1_555 1_555
H38 N20 1_555 1_555
H39 C29 1_555 1_555
H40 C30 1_555 1_555
H41 C31 1_555 1_555
H42 N22 1_555 1_555
H43 C32 1_555 1_555
H44 C33 1_555 1_555
H45 C34 1_555 1_555
H46 N24 1_555 1_555
H47 C35 1_555 1_555
H48 C36 1_555 1_555
N25 C37 1_555 1_555
C37 N26 1_555 1_555
N26 C38 1_555 1_555
C38 C39 1_555 1_555
C39 N25 1_555 1_555
Cu9 N25 1_555 1_555
N27 Cu9 1_555 1_555
C40 N27 1_555 1_555
N28 C40 1_555 1_555
C41 N28 1_555 1_555
C42 N27 1_555 1_555
N29 Cu9 1_555 1_555
C43 N29 1_555 1_555
N30 C43 1_555 1_555
C44 N30 1_555 1_555
C45 N29 1_555 1_555
O135 Cu9 1_555 1_555
N31 Cu9 1_555 1_555
C46 N31 1_555 1_555
N32 C46 1_555 1_555
C47 N32 1_555 1_555
C48 N31 1_555 1_555
H49 C37 1_555 1_555
H50 N26 1_555 1_555
H51 C38 1_555 1_555
H52 C39 1_555 1_555
H53 C40 1_555 1_555
H54 N28 1_555 1_555
H55 C41 1_555 1_555
H56 C42 1_555 1_555
H57 C43 1_555 1_555
H58 N30 1_555 1_555
H59 C44 1_555 1_555
H60 C45 1_555 1_555
H61 C46 1_555 1_555
H62 N32 1_555 1_555
H63 C47 1_555 1_555
H64 C48 1_555 1_555
Cu10 N33 1_555 1_555
N33 C49 1_555 1_555
C49 N34 1_555 1_555
N34 C50 1_555 1_555
C50 C51 1_555 1_555
C51 N33 1_555 1_555
N35 Cu10 1_555 1_555
C52 N35 1_555 1_555
N36 C52 1_555 1_555
C53 N36 1_555 1_555
C54 N35 1_555 1_555
O136 Cu10 1_555 1_555
H65 C49 1_555 1_555
H66 N34 1_555 1_555
H67 C50 1_555 1_555
H68 C51 1_555 1_555
H69 C52 1_555 1_555
H70 N36 1_555 1_555
H71 C53 1_555 1_555
H72 C54 1_555 1_555
Cu11 N37 1_555 1_555
N37 C55 1_555 1_555
C55 N38 1_555 1_555
N38 C56 1_555 1_555
C56 C57 1_555 1_555
C57 N37 1_555 1_555
C58 C59 1_555 1_555
C59 N39 1_555 1_555
N39 C60 1_555 1_555
C60 N40 1_555 1_555
N40 Cu11 1_555 1_555
O137 Cu11 1_555 1_555
H73 C55 1_555 1_555
H74 N38 1_555 1_555
H75 C56 1_555 1_555
H76 C57 1_555 1_555
H77 C58 1_555 1_555
H78 C59 1_555 1_555
H79 N39 1_555 1_555
H80 C60 1_555 1_555
Cu12 N41 1_555 1_555
N41 C61 1_555 1_555
C61 N42 1_555 1_555
N42 C62 1_555 1_555
C62 C63 1_555 1_555
C63 N41 1_555 1_555
N43 Cu12 1_555 1_555
C64 N43 1_555 1_555
N44 C64 1_555 1_555
C65 N44 1_555 1_555
C66 N43 1_555 1_555
O138 Cu12 1_555 1_555
H81 C61 1_555 1_555
H82 N42 1_555 1_555
H83 C62 1_555 1_555
H84 C63 1_555 1_555
H85 C64 1_555 1_555
H86 N44 1_555 1_555
H87 C65 1_555 1_555
H88 C66 1_555 1_555
W22_2 O121 1_555 1_555
O121_2 W22 1_555 1_555
N33A Cu10 1_555 1_555
C49A N33A 1_555 1_555
N34A C49A 1_555 1_555
C50A N34A 1_555 1_555
C51A N33A 1_555 1_555
N35A Cu10 1_555 1_555
C52A N35A 1_555 1_555
N36A C52A 1_555 1_555
C53A N36A 1_555 1_555
C54A N35A 1_555 1_555
O136A Cu10 1_555 1_555
H65A C49A 1_555 1_555
H66A N34A 1_555 1_555
H67A C50A 1_555 1_555
H68A C51A 1_555 1_555
H69A C52A 1_555 1_555
H70A N36A 1_555 1_555
H71A C53A 1_555 1_555
H72A C54A 1_555 1_555
N37A Cu11 1_555 1_555
C55A N37A 1_555 1_555
N38A C55A 1_555 1_555
C56A N38A 1_555 1_555
C57A N37A 1_555 1_555
C58A C59A 1_555 1_555
C59A N39A 1_555 1_555
N39A C60A 1_555 1_555
C60A N40A 1_555 1_555
N40A Cu11 1_555 1_555
O137A Cu11 1_555 1_555
H73A C55A 1_555 1_555
H74A N38A 1_555 1_555
H75A C56A 1_555 1_555
H76A C57A 1_555 1_555
H77A C58A 1_555 1_555
H78A C59A 1_555 1_555
H79A N39A 1_555 1_555
H80A C60A 1_555 1_555
N41A Cu12 1_555 1_555
C61A N41A 1_555 1_555
N42A C61A 1_555 1_555
C62A N42A 1_555 1_555
C63A N41A 1_555 1_555
N43A Cu12 1_555 1_555
C64A N43A 1_555 1_555
N44A C64A 1_555 1_555
C65A N44A 1_555 1_555
C66A N43A 1_555 1_555
O138A Cu12 1_555 1_555
H81A C61A 1_555 1_555
H82A N42A 1_555 1_555
H83A C62A 1_555 1_555
H84A C63A 1_555 1_555
H85A C64A 1_555 1_555
H86A N44A 1_555 1_555
H87A C65A 1_555 1_555
H88A C66A 1_555 1_555
W3 O78 1_555 1_555
W3 O113 1_555 1_555
W4 O46 1_555 1_555
W4 O62 1_555 1_555
W5 O84 1_555 1_555
W6 O26 1_555 1_555
W6 O82 1_555 1_555
W7 O24 1_555 1_555
W7 O71 1_555 1_555
W9 O31 1_555 1_555
W13 O55 1_555 1_555
W14 O49 1_555 1_555
W15 O66 1_555 1_555
W15 O70 1_555 1_555
W15 O108 1_555 1_555
W16 O42 1_555 1_555
W16 O131 1_555 1_555
W17 O80 1_555 1_555
W18 O117 1_555 1_555
W20 O106 1_555 1_555
W21 O64 1_555 1_555
W22 O27 1_555 1_555
W22 O75 1_555 1_555
W23 O114 1_555 1_555
W24 O33 1_555 1_555
W24 O54 1_555 1_555
W25 O56 1_555 1_555
W25 O90 1_555 1_555
W26 O40 1_555 1_555
W26 O95 1_555 1_555
W26 O98 1_555 1_555
W27 O53 1_555 1_555
W27 O98 1_555 1_555
W28 O39 1_555 1_555
W28 O45 1_555 1_555
W29 O42 1_555 1_555
W29 O43 1_555 1_555
W29 O79 1_555 1_555
W30 O25 1_555 1_555
W30 O33 1_555 1_555
W30 O38 1_555 1_555
W30 O60 1_555 1_555
W31 O76 1_555 1_555
W31 O81 1_555 1_555
W32 O59 1_555 1_555
W32 O93 1_555 1_555
W32 O106 1_555 1_555
W33 O14 1_555 1_555
W33 O65 1_555 1_555
W33 O101 1_555 1_555
W33 O126 1_555 1_555
W34 O37 1_555 1_555
W34 O45 1_555 1_555
W34 O51 1_555 1_555
W35 O78 1_555 1_555
W35 O105 1_555 1_555
W35 O119 1_555 1_555
W36 O18 1_555 1_555
W36 O88 1_555 1_555
W36 O116 1_555 1_555
Sb1 O42 1_555 1_555
Sb1 O49 1_555 1_555
Sb2 O45 1_555 1_555
Sb2 O106 1_555 1_555
Sb3 O33 1_555 1_555
Sb3 O98 1_555 1_555
Sb4 O18 1_555 1_555
Sb4 O78 1_555 1_555
Cu1 O68 1_555 1_555
Cu1 O73 1_555 1_555
Cu1 O87 1_555 1_555
Cu2 O89 1_555 1_555
Cu2 O120 1_555 1_555
Cu2 O130 1_555 1_555
Cu3 O67 1_555 1_555
Cu3 O69 1_555 1_555
Cu3 O77 1_555 1_555
Cu4 O44 1_555 1_555
Cu4 O83 1_555 1_555
Cu4 O129 1_555 1_555
Cu5 O96 1_555 1_555
Cu5 O102 1_555 1_555
Cu5 O122 1_555 1_555
Cu6 O48 1_555 1_555
Cu6 O94 1_555 1_555
Cu6 O128 1_555 1_555
Cu7 O11 1_555 1_555
Cu7 O104 1_555 1_555
Cu8 O99 1_555 1_555
C5 C6 1_555 1_555
C11 C12 1_555 1_555
C14 C15 1_555 1_555
C16 N12 1_555 1_555
C20 C21 1_555 1_555
C23 C24 1_555 1_555
C26 C27 1_555 1_555
C29 C30 1_555 1_555
C32 C33 1_555 1_555
C35 C36 1_555 1_555
C41 C42 1_555 1_555
C44 C45 1_555 1_555
C47 C48 1_555 1_555
C53 C54 1_555 1_555
C58 N40 1_555 1_555
C65 C66 1_555 1_555
C50A C51A 1_555 1_555
C53A C54A 1_555 1_555
C56A C57A 1_555 1_555
C58A N40A 1_555 1_555
C62A C63A 1_555 1_555
C65A C66A 1_555 1_555

#END
