
#######################################################################
#
#                 Cambridge Crystallographic Data Centre
#                                CCDC 
#
#######################################################################
#
# If this CIF has been generated from an entry in the Cambridge 
# Structural Database, then it will include bibliographic, chemical, 
# crystal, experimental, refinement or atomic coordinate data resulting 
# from the CCDC's data processing and validation procedures.
#
#######################################################################

data_VOKLIS
_symmetry_cell_setting           triclinic
_symmetry_space_group_name_H-M   'P -1'
_symmetry_Int_Tables_number      2
_space_group_name_Hall           '-P 1'
loop_
_symmetry_equiv_pos_site_id
_symmetry_equiv_pos_as_xyz
1 x,y,z
2 -x,-y,-z
_cell_length_a                   11.3127(18)
_cell_length_b                   14.687(2)
_cell_length_c                   14.766(2)
_cell_angle_alpha                85.881(8)
_cell_angle_beta                 79.811(8)
_cell_angle_gamma                70.300(8)
_cell_volume                     2273.15
loop_
_atom_site_label
_atom_site_type_symbol
_atom_site_fract_x
_atom_site_fract_y
_atom_site_fract_z
Pt1 Pt 0.25720(2) 0.75276(2) 0.50498(2)
Pt2 Pt 0.33002(2) 0.75755(2) 0.00565(2)
Se1 Se 1.08101(7) 0.63685(6) 0.09421(5)
Se2 Se -0.00083(9) 0.37894(8) 0.39289(7)
Fe1 Fe 0.54180(8) 0.50671(6) 0.25200(5)
Fe2 Fe 0.10576(9) 1.02126(6) 0.25236(6)
N1 N 0.7094(5) 0.5539(4) 0.1992(4)
N2 N 0.9493(6) 0.8674(4) -0.1405(4)
N3 N 0.3752(6) 0.4572(4) 0.3021(4)
N4 N 0.0714(10) 0.1712(7) 0.6492(7)
N5 N 0.4637(6) 0.6156(4) 0.3581(4)
N6 N 0.3528(6) 0.5938(4) 0.6542(4)
N7 N 0.0402(6) 0.8835(4) 0.6508(4)
N8 N 0.1668(7) 0.9156(4) 0.3575(4)
N9 N 0.2404(6) 0.9229(4) 0.1512(4)
N10 N 0.2338(9) 0.9181(6) -0.1421(6)
N11 N 0.3992(6) 0.5992(4) -0.1460(4)
N12 N 0.4374(6) 0.6064(4) 0.1575(4)
O1 O 0.2470(7) 1.0809(5) 0.2744(5)
O2 O -0.0298(5) 0.9624(4) 0.2214(4)
C1 C 0.7415(8) 0.5708(6) 0.1092(5)
H1 H 0.6896 0.5652 0.0681
C2 C 0.8494(8) 0.5966(6) 0.0743(5)
H2 H 0.8698 0.6073 0.0108
C3 C 0.9267(7) 0.6064(5) 0.1351(5)
C4 C 0.8923(8) 0.5895(6) 0.2268(5)
H3 H 0.9416 0.5956 0.2696
C5 C 0.7837(7) 0.5634(6) 0.2566(5)
H4 H 0.7618 0.5519 0.3198
C6 C 1.0225(6) 0.7294(5) -0.0010(4)
C7 C 0.9658(8) 0.8251(6) 0.0196(5)
H5 H 0.9515 0.8458 0.0805
C8 C 0.9295(8) 0.8918(5) -0.0510(5)
H6 H 0.8889 0.9572 -0.0356
C9 C 1.0087(8) 0.7730(5) -0.1601(5)
H7 H 1.0250 0.7539 -0.2218
C10 C 1.0469(8) 0.7023(5) -0.0930(5)
H8 H 1.0886 0.6372 -0.1095
C11 C 0.3388(7) 0.4369(6) 0.3909(5)
H9 H 0.3894 0.4405 0.4337
C12 C 0.2314(8) 0.4109(6) 0.4237(5)
H10 H 0.2102 0.3977 0.4865
C13 C 0.1560(7) 0.4048(5) 0.3603(5)
C14 C 0.1949(8) 0.4234(6) 0.2670(6)
H11 H 0.1478 0.4183 0.2222
C15 C 0.3014(8) 0.4489(6) 0.2421(6)
H12 H 0.3253 0.4615 0.1795
C16 C 0.0341(9) 0.2996(6) 0.5005(7)
C17 C -0.0408(11) 0.3223(7) 0.5828(6)
H13 H -0.1054 0.3827 0.5914
C18 C -0.0218(13) 0.2551(8) 0.6556(7)
H14 H -0.0780 0.2705 0.7116
C19 C 0.1434(13) 0.1455(9) 0.5645(10)
H15 H 0.2053 0.0837 0.5575
C20 C 0.1288(12) 0.2069(9) 0.4884(10)
H16 H 0.1797 0.1878 0.4309
C21 C 0.3902(6) 0.6678(4) 0.4112(4)
C22 C 0.3133(6) 0.6516(4) 0.6015(4)
C23 C 0.1198(6) 0.8364(4) 0.5979(4)
C24 C 0.2013(6) 0.8560(5) 0.4101(4)
C25 C 0.2767(7) 0.8610(4) 0.0990(4)
C26 C 0.2671(8) 0.8582(5) -0.0885(5)
C27 C 0.3743(6) 0.6560(4) -0.0892(4)
C28 C 0.3969(6) 0.6606(4) 0.1006(4)
Fe1A Fe 0.45820(8) 0.49329(6) -0.25200(5)
Fe1A_2 Fe 0.45820(8) 0.49329(6) 0.74800(5)
Fe2A Fe -0.10576(9) 0.97874(6) 0.74764(6)
Fe2A_2 Fe 0.89424(9) 0.97874(6) -0.25236(6)
N2A N 0.0507(6) 1.1326(4) 0.1405(4)
N6A N 0.6472(6) 0.4062(4) 0.3458(4)
N7A N -0.0402(6) 1.1165(4) 0.3492(4)
N11A N 0.6008(6) 0.4008(4) 0.1460(4)
O3 O 0.4621(14) 0.9530(11) 0.3318(10)
C29 C 0.5220(15) 0.8536(12) 0.2830(11)
H17 H 0.5474 0.8024 0.3290
H18 H 0.4580 0.8411 0.2535
C30 C 0.6331(15) 0.8506(12) 0.2135(11)
H19 H 0.6070 0.8667 0.1535
H20 H 0.6954 0.7861 0.2122
H21 H 0.6703 0.8969 0.2287
O4 O 0.337(2) 1.1981(14) 0.1791(13)
H22 H 0.2960 1.1620 0.2002
C31 C 0.3537(17) 1.1996(12) 0.0775(11)
H23 H 0.2706 1.2243 0.0571
H24 H 0.4033 1.2414 0.0516
C32 C 0.4201(16) 1.1008(11) 0.0473(11)
H25 H 0.5053 1.0795 0.0627
H26 H 0.4253 1.0979 -0.0187
H27 H 0.3742 1.0591 0.0779
C33 C 0.6269(15) 1.0544(11) 0.3173(10)
H28 H 0.7176 1.0433 0.3029
H29 H 0.5981 1.0371 0.2649
H30 H 0.6095 1.0151 0.3702
C34 C 0.5566(17) 1.1611(12) 0.3391(11)
H31 H 0.6157 1.1977 0.3340
H32 H 0.4936 1.1906 0.2985
O5 O 0.4956(10) 1.1556(8) 0.4341(7)
H33 H 0.4658 1.1106 0.4397
loop_
_geom_bond_atom_site_label_1
_geom_bond_atom_site_label_2
_geom_bond_site_symmetry_1
_geom_bond_site_symmetry_2
Pt1 C21 1_555 1_555
Pt2 C25 1_555 1_555
Se1 C3 1_555 1_555
Se2 C13 1_555 1_555
Fe1 N1 1_555 1_555
Fe2 N8 1_555 1_555
N1 C1 1_555 1_555
N2 C8 1_555 1_555
N3 Fe1 1_555 1_555
N4 C18 1_555 1_555
N5 Fe1 1_555 1_555
N6 C22 1_555 1_555
N7 C23 1_555 1_555
N8 C24 1_555 1_555
N9 Fe2 1_555 1_555
N10 C26 1_555 1_555
N11 C27 1_555 1_555
N12 Fe1 1_555 1_555
O1 Fe2 1_555 1_555
O2 Fe2 1_555 1_555
C1 H1 1_555 1_555
C2 C1 1_555 1_555
H2 C2 1_555 1_555
C3 C2 1_555 1_555
C4 C3 1_555 1_555
H3 C4 1_555 1_555
C5 N1 1_555 1_555
H4 C5 1_555 1_555
C6 Se1 1_555 1_555
C7 C6 1_555 1_555
H5 C7 1_555 1_555
C8 C7 1_555 1_555
H6 C8 1_555 1_555
C9 N2 1_555 1_555
H7 C9 1_555 1_555
C10 C6 1_555 1_555
H8 C10 1_555 1_555
C11 N3 1_555 1_555
H9 C11 1_555 1_555
C12 C11 1_555 1_555
H10 C12 1_555 1_555
C13 C12 1_555 1_555
C14 C13 1_555 1_555
H11 C14 1_555 1_555
C15 N3 1_555 1_555
H12 C15 1_555 1_555
C16 Se2 1_555 1_555
C17 C16 1_555 1_555
H13 C17 1_555 1_555
C18 C17 1_555 1_555
H14 C18 1_555 1_555
C19 N4 1_555 1_555
H15 C19 1_555 1_555
C20 C16 1_555 1_555
H16 C20 1_555 1_555
C21 N5 1_555 1_555
C22 Pt1 1_555 1_555
C23 Pt1 1_555 1_555
C24 Pt1 1_555 1_555
C25 N9 1_555 1_555
C26 Pt2 1_555 1_555
C27 Pt2 1_555 1_555
C28 Pt2 1_555 1_555
O3 C29 1_555 1_555
C29 H17 1_555 1_555
H18 C29 1_555 1_555
C30 C29 1_555 1_555
H19 C30 1_555 1_555
H20 C30 1_555 1_555
H21 C30 1_555 1_555
O4 H22 1_555 1_555
C31 O4 1_555 1_555
H23 C31 1_555 1_555
H24 C31 1_555 1_555
C32 C31 1_555 1_555
H25 C32 1_555 1_555
H26 C32 1_555 1_555
H27 C32 1_555 1_555
C33 H28 1_555 1_555
H29 C33 1_555 1_555
H30 C33 1_555 1_555
C34 C33 1_555 1_555
H31 C34 1_555 1_555
H32 C34 1_555 1_555
O5 C34 1_555 1_555
H33 O5 1_555 1_555
Fe1A N11 1_555 1_555
Fe1A_2 N6 1_555 1_555
Fe2A N7 1_555 1_555
Fe2A_2 N2 1_555 1_555
N2A Fe2 1_555 1_555
N6A Fe1 1_555 1_555
N7A Fe2 1_555 1_555
N11A Fe1 1_555 1_555
N12 C28 1_555 1_555
C4 C5 1_555 1_555
C9 C10 1_555 1_555
C14 C15 1_555 1_555
C19 C20 1_555 1_555

#END
