
#######################################################################
#
#                 Cambridge Crystallographic Data Centre
#                                CCDC 
#
#######################################################################
#
# If this CIF has been generated from an entry in the Cambridge 
# Structural Database, then it will include bibliographic, chemical, 
# crystal, experimental, refinement or atomic coordinate data resulting 
# from the CCDC's data processing and validation procedures.
#
#######################################################################

data_VOKLIS01
_symmetry_cell_setting           triclinic
_symmetry_space_group_name_H-M   'P -1'
_symmetry_Int_Tables_number      2
_space_group_name_Hall           '-P 1'
loop_
_symmetry_equiv_pos_site_id
_symmetry_equiv_pos_as_xyz
1 x,y,z
2 -x,-y,-z
_cell_length_a                   10.9555(11)
_cell_length_b                   14.7173(14)
_cell_length_c                   14.4397(15)
_cell_angle_alpha                85.062(5)
_cell_angle_beta                 78.378(5)
_cell_angle_gamma                69.983(5)
_cell_volume                     2142.33
loop_
_atom_site_label
_atom_site_type_symbol
_atom_site_fract_x
_atom_site_fract_y
_atom_site_fract_z
Pt1 Pt 0.26684(3) 0.74616(2) 0.50737(2)
Pt2 Pt 0.33494(3) 0.74723(2) 0.00326(2)
Se1 Se 1.07710(7) 0.63278(5) 0.10032(5)
Se2 Se -0.01123(8) 0.37798(6) 0.38748(5)
Fe1 Fe 0.53309(10) 0.50532(7) 0.25057(7)
Fe2 Fe 0.10906(11) 1.01654(7) 0.24906(7)
O1 O 0.2570(7) 1.0729(5) 0.2700(5)
O2 O -0.0323(5) 0.9613(4) 0.2176(4)
N1 N 0.6907(6) 0.5479(4) 0.2049(4)
N2 N 0.9429(6) 0.8703(4) -0.1355(4)
N3 N 0.3750(6) 0.4632(4) 0.2942(4)
N4 N 0.0839(8) 0.1639(6) 0.6437(6)
N5 N 0.4598(6) 0.6017(4) 0.3500(4)
N6 N 0.3726(6) 0.5894(4) 0.6618(4)
N7 N 0.0464(6) 0.8860(4) 0.6530(4)
N8 N 0.1695(7) 0.9089(4) 0.3566(4)
N9 N 0.2495(6) 0.9167(4) 0.1456(4)
N10 N 0.2506(9) 0.9064(6) -0.1538(6)
N11 N 0.4050(6) 0.5897(4) -0.1514(4)
N12 N 0.4410(6) 0.5988(4) 0.1625(4)
C1 C 0.7340(7) 0.5611(5) 0.1121(5)
H1 H 0.6857 0.5519 0.0681
C2 C 0.8451(7) 0.5875(5) 0.0772(5)
H2 H 0.8717 0.5951 0.0110
C3 C 0.9172(7) 0.6029(5) 0.1400(5)
C4 C 0.8724(7) 0.5897(5) 0.2370(5)
H3 H 0.9185 0.5992 0.2824
C5 C 0.7608(7) 0.5629(5) 0.2663(5)
H4 H 0.7321 0.5546 0.3321
C6 C 1.0203(7) 0.7279(5) 0.0030(5)
C7 C 0.9634(8) 0.8259(5) 0.0275(5)
H5 H 0.9505 0.8454 0.0908
C8 C 0.9267(8) 0.8932(5) -0.0446(5)
H6 H 0.8878 0.9595 -0.0285
C9 C 0.9996(8) 0.7763(5) -0.1566(5)
H7 H 1.0131 0.7586 -0.2206
C10 C 1.0396(8) 0.7034(5) -0.0904(5)
H8 H 1.0795 0.6378 -0.1090
C11 C 0.3335(7) 0.4426(5) 0.3860(5)
H9 H 0.3833 0.4471 0.4311
C12 C 0.2239(7) 0.4155(5) 0.4176(5)
H10 H 0.1994 0.4016 0.4828
C13 C 0.1491(7) 0.4088(5) 0.3530(5)
C14 C 0.1921(7) 0.4267(5) 0.2576(5)
H11 H 0.1455 0.4201 0.2112
C15 C 0.3030(7) 0.4540(5) 0.2314(5)
H12 H 0.3302 0.4670 0.1664
C16 C 0.0342(8) 0.2931(6) 0.4939(6)
C17 C -0.0385(10) 0.3191(6) 0.5832(6)
H13 H -0.1053 0.3805 0.5945
C18 C -0.0091(11) 0.2509(7) 0.6560(6)
H14 H -0.0581 0.2675 0.7180
C19 C 0.1521(10) 0.1392(8) 0.5567(8)
H15 H 0.2186 0.0775 0.5477
C20 C 0.1287(9) 0.2016(7) 0.4779(7)
H16 H 0.1756 0.1820 0.4161
C21 C 0.3941(7) 0.6569(5) 0.4076(5)
C22 C 0.3287(7) 0.6468(5) 0.6072(5)
C23 C 0.1300(7) 0.8350(5) 0.6021(5)
C24 C 0.2072(7) 0.8485(5) 0.4094(5)
C25 C 0.2854(7) 0.8533(5) 0.0949(5)
C26 C 0.2804(9) 0.8474(5) -0.0969(6)
C27 C 0.3794(7) 0.6451(5) -0.0923(5)
C28 C 0.3976(7) 0.6518(5) 0.1043(5)
Fe1A Fe 0.46691(10) 0.49468(7) -0.25057(7)
Fe1A_2 Fe 0.46691(10) 0.49468(7) 0.74943(7)
Fe2A Fe -0.10906(11) 0.98346(7) 0.75094(7)
Fe2A_2 Fe 0.89094(11) 0.98346(7) -0.24906(7)
N2A N 0.0571(6) 1.1297(4) 0.1355(4)
N6A N 0.6274(6) 0.4106(4) 0.3382(4)
N7A N -0.0464(6) 1.1140(4) 0.3470(4)
N11A N 0.5950(6) 0.4103(4) 0.1514(4)
O3 O 0.4679(11) 0.9460(9) 0.3363(8)
H17 H 0.4225 0.9831 0.2991
C29 C 0.5348(18) 0.8468(13) 0.2938(12)
H18 H 0.5881 0.8033 0.3379
H19 H 0.4667 0.8198 0.2851
C30 C 0.6196(17) 0.8505(13) 0.2034(11)
H20 H 0.5660 0.8895 0.1581
H21 H 0.6654 0.7848 0.1796
H22 H 0.6848 0.8798 0.2113
O4 O 0.3352(14) 1.2072(10) 0.1672(9)
H23 H 0.2888 1.1737 0.1934
C31 C 0.3576(19) 1.1983(13) 0.0648(11)
H24 H 0.4117 1.2376 0.0328
H25 H 0.2725 1.2202 0.0421
C32 C 0.4293(18) 1.0928(12) 0.0453(12)
H26 H 0.5247 1.0809 0.0304
H27 H 0.4010 1.0745 -0.0084
H28 H 0.4088 1.0542 0.1013
C33 C 0.6108(17) 1.0628(11) 0.3470(11)
H29 H 0.7022 1.0626 0.3316
H30 H 0.5888 1.0405 0.2925
H31 H 0.6014 1.0194 0.4014
C34 C 0.5169(18) 1.1660(12) 0.3713(11)
H32 H 0.5627 1.2141 0.3532
H33 H 0.4393 1.1834 0.3399
O5 O 0.4786(11) 1.1591(8) 0.4734(8)
H34 H 0.4500 1.1126 0.4874
loop_
_geom_bond_atom_site_label_1
_geom_bond_atom_site_label_2
_geom_bond_site_symmetry_1
_geom_bond_site_symmetry_2
Pt1 C21 1_555 1_555
Pt2 C25 1_555 1_555
Se1 C3 1_555 1_555
Se2 C13 1_555 1_555
Fe1 N1 1_555 1_555
Fe2 O1 1_555 1_555
O2 Fe2 1_555 1_555
N1 C1 1_555 1_555
N2 C8 1_555 1_555
N3 Fe1 1_555 1_555
N4 C18 1_555 1_555
N5 Fe1 1_555 1_555
N6 C22 1_555 1_555
N7 C23 1_555 1_555
N8 Fe2 1_555 1_555
N9 Fe2 1_555 1_555
N10 C26 1_555 1_555
N11 C27 1_555 1_555
N12 Fe1 1_555 1_555
C1 H1 1_555 1_555
C2 C1 1_555 1_555
H2 C2 1_555 1_555
C3 C2 1_555 1_555
C4 C3 1_555 1_555
H3 C4 1_555 1_555
C5 N1 1_555 1_555
H4 C5 1_555 1_555
C6 Se1 1_555 1_555
C7 C6 1_555 1_555
H5 C7 1_555 1_555
C8 C7 1_555 1_555
H6 C8 1_555 1_555
C9 N2 1_555 1_555
H7 C9 1_555 1_555
C10 C6 1_555 1_555
H8 C10 1_555 1_555
C11 N3 1_555 1_555
H9 C11 1_555 1_555
C12 C11 1_555 1_555
H10 C12 1_555 1_555
C13 C12 1_555 1_555
C14 C13 1_555 1_555
H11 C14 1_555 1_555
C15 N3 1_555 1_555
H12 C15 1_555 1_555
C16 Se2 1_555 1_555
C17 C16 1_555 1_555
H13 C17 1_555 1_555
C18 C17 1_555 1_555
H14 C18 1_555 1_555
C19 N4 1_555 1_555
H15 C19 1_555 1_555
C20 C16 1_555 1_555
H16 C20 1_555 1_555
C21 N5 1_555 1_555
C22 Pt1 1_555 1_555
C23 Pt1 1_555 1_555
C24 Pt1 1_555 1_555
C25 N9 1_555 1_555
C26 Pt2 1_555 1_555
C27 Pt2 1_555 1_555
C28 Pt2 1_555 1_555
O3 H17 1_555 1_555
C29 O3 1_555 1_555
H18 C29 1_555 1_555
H19 C29 1_555 1_555
C30 C29 1_555 1_555
H20 C30 1_555 1_555
H21 C30 1_555 1_555
H22 C30 1_555 1_555
O4 H23 1_555 1_555
C31 O4 1_555 1_555
H24 C31 1_555 1_555
H25 C31 1_555 1_555
C32 C31 1_555 1_555
H26 C32 1_555 1_555
H27 C32 1_555 1_555
H28 C32 1_555 1_555
C33 H29 1_555 1_555
H30 C33 1_555 1_555
H31 C33 1_555 1_555
C34 C33 1_555 1_555
H32 C34 1_555 1_555
H33 C34 1_555 1_555
O5 C34 1_555 1_555
H34 O5 1_555 1_555
Fe1A N11 1_555 1_555
Fe1A_2 N6 1_555 1_555
Fe2A N7 1_555 1_555
Fe2A_2 N2 1_555 1_555
N2A Fe2 1_555 1_555
N6A Fe1 1_555 1_555
N7A Fe2 1_555 1_555
N11A Fe1 1_555 1_555
N8 C24 1_555 1_555
N12 C28 1_555 1_555
C4 C5 1_555 1_555
C9 C10 1_555 1_555
C14 C15 1_555 1_555
C19 C20 1_555 1_555

#END
