
#######################################################################
#
#                 Cambridge Crystallographic Data Centre
#                                CCDC 
#
#######################################################################
#
# If this CIF has been generated from an entry in the Cambridge 
# Structural Database, then it will include bibliographic, chemical, 
# crystal, experimental, refinement or atomic coordinate data resulting 
# from the CCDC's data processing and validation procedures.
#
#######################################################################

data_VOPCIO
_symmetry_cell_setting           monoclinic
_symmetry_space_group_name_H-M   'C 2/c'
_symmetry_Int_Tables_number      15
_space_group_name_Hall           '-C 2yn'
loop_
_symmetry_equiv_pos_site_id
_symmetry_equiv_pos_as_xyz
1 x,y,z
2 -x,y,1/2-z
3 1/2+x,1/2+y,z
4 1/2-x,1/2+y,1/2-z
5 -x,-y,-z
6 x,-y,1/2+z
7 1/2-x,1/2-y,-z
8 1/2+x,1/2-y,1/2+z
_cell_length_a                   52.533(4)
_cell_length_b                   28.740(2)
_cell_length_c                   16.9133(14)
_cell_angle_alpha                90
_cell_angle_beta                 98.4720(10)
_cell_angle_gamma                90
_cell_volume                     25257
loop_
_atom_site_label
_atom_site_type_symbol
_atom_site_fract_x
_atom_site_fract_y
_atom_site_fract_z
Ce1 Ce 0.50273(2) 0.21667(2) 0.88153(3)
O1 O 0.46232(12) 0.2614(3) 0.8600(4)
O2 O 0.47234(11) 0.1796(2) 0.7767(4)
O3 O 0.52260(13) 0.2926(3) 0.9128(4)
O4 O 0.52887(12) 0.2143(3) 1.0142(4)
O5 O 0.47301(12) 0.1743(2) 0.9628(4)
O6 O 0.5000 0.2677(3) 0.7500
O7 O 0.51497(14) 0.1334(3) 0.8862(5)
O8 O 0.54601(13) 0.2106(3) 0.8388(4)
C1 C 0.45893(17) 0.2834(4) 0.9227(6)
C2 C 0.45275(16) 0.1906(4) 0.7263(6)
C3 C 0.53607(17) 0.3129(4) 0.9683(6)
C4 C 0.54486(17) 0.2135(4) 1.0786(6)
C5 C 0.46811(18) 0.1793(4) 1.0330(6)
H1 H 0.4874 0.3024 0.7436
H2 H 0.5030 0.1038 0.8694
H3 H 0.5100 0.1274 0.9383
C6 C 0.43536(18) 0.3112(4) 0.9188(6)
O9 O 0.47508(12) 0.2809(3) 0.9867(4)
C7 C 0.42646(18) 0.1764(5) 0.7431(6)
C8 C 0.56143(18) 0.3333(4) 0.9517(6)
O10 O 0.53005(12) 0.3190(2) 1.0388(4)
C9 C 0.5700(2) 0.1885(5) 1.0810(7)
O11 O 0.54047(13) 0.2324(3) 1.1411(4)
C10 C 0.44364(19) 0.1581(4) 1.0523(6)
O12 O 0.48124(13) 0.2001(2) 1.0880(4)
C11 C 0.4170(2) 0.3094(6) 0.8525(8)
C12 C 0.43174(18) 0.3403(4) 0.9823(6)
Ce2 Ce 0.49970(2) 0.27623(2) 1.11927(3)
C13 C 0.4065(2) 0.1738(6) 0.6819(7)
C14 C 0.4226(2) 0.1641(5) 0.8188(7)
C15 C 0.5737(2) 0.3140(4) 0.8931(7)
C16 C 0.57335(19) 0.3703(4) 0.9943(6)
C17 C 0.5868(2) 0.1850(6) 1.1489(8)
C18 C 0.5750(3) 0.1656(6) 1.0139(8)
C19 C 0.4315(2) 0.1762(5) 1.1113(7)
C20 C 0.43147(19) 0.1197(4) 1.0111(6)
H4 H 0.4196 0.2907 0.8081
C21 C 0.3950(2) 0.3342(6) 0.8503(8)
H5 H 0.4447 0.3421 1.0277
N1 N 0.41030(17) 0.3658(4) 0.9800(6)
O13 O 0.45519(13) 0.2826(3) 1.1553(4)
O14 O 0.5000 0.2244(3) 1.2500
O15 O 0.48766(13) 0.3594(3) 1.1120(5)
O16 O 0.52777(12) 0.3134(2) 1.2276(4)
H6 H 0.4093 0.1846 0.6307
N2 N 0.38300(18) 0.1566(5) 0.6901(6)
C22 C 0.3987(2) 0.1482(5) 0.8302(7)
H7 H 0.4361 0.1664 0.8625
H8 H 0.5658 0.2895 0.8606
C23 C 0.5975(2) 0.3304(5) 0.8819(7)
H9 H 0.5649 0.3839 1.0346
N3 N 0.59625(16) 0.3884(3) 0.9825(5)
H10 H 0.5821 0.1964 1.1975
C24 C 0.6103(3) 0.1655(6) 1.1492(8)
H11 H 0.5624 0.1653 0.9675
N4 N 0.5976(2) 0.1434(6) 1.0133(7)
H12 H 0.4392 0.2012 1.1432
C25 C 0.4080(2) 0.1585(5) 1.1252(7)
H13 H 0.4397 0.1055 0.9708
N5 N 0.40892(16) 0.1020(3) 1.0252(5)
H14 H 0.3822 0.3335 0.8043
C26 C 0.3916(2) 0.3604(5) 0.9155(7)
C27 C 0.45370(18) 0.3038(3) 1.2187(6)
H15 H 0.4899 0.1885 1.2516
C28 C 0.5023(3) 0.3894(5) 1.1266(9)
C29 C 0.3798(2) 0.1426(6) 0.7648(7)
H16 H 0.3952 0.1412 0.8824
H17 H 0.6065 0.3162 0.8437
C30 C 0.60825(19) 0.3679(4) 0.9268(6)
H18 H 0.6230 0.1663 1.1955
C31 C 0.6151(3) 0.1441(6) 1.0784(8)
H19 H 0.3993 0.1720 1.1649
C32 C 0.3976(2) 0.1219(4) 1.0816(7)
C33 C 0.3670(2) 0.3849(5) 0.9177(7)
C34 C 0.42769(19) 0.3220(4) 1.2302(6)
N6 N 0.5054(3) 0.4216(5) 1.0650(9)
H20 H 0.5119 0.3924 1.1784
C35 C 0.3545(2) 0.1214(6) 0.7709(7)
C36 C 0.6342(2) 0.3866(4) 0.9172(6)
C37 C 0.6404(3) 0.1208(7) 1.0738(8)
C38 C 0.3717(2) 0.1040(5) 1.0926(7)
C39 C 0.3649(2) 0.4154(5) 0.9776(7)
N7 N 0.3471(2) 0.3749(5) 0.8593(6)
C40 C 0.4238(2) 0.3428(5) 1.3001(7)
C41 C 0.40782(19) 0.3210(4) 1.1693(6)
C42 C 0.4919(5) 0.4151(8) 0.9834(14)
C43 C 0.5219(5) 0.4629(8) 1.0868(15)
C44 C 0.3417(2) 0.0957(6) 0.7091(8)
N8 N 0.3469(2) 0.1239(5) 0.8418(6)
C45 C 0.6467(2) 0.4184(4) 0.9679(7)
N9 N 0.64453(18) 0.3685(4) 0.8557(6)
C46 C 0.6439(3) 0.1002(7) 1.0045(8)
N10 N 0.6566(2) 0.1173(6) 1.1397(7)
C47 C 0.3586(2) 0.0727(5) 1.0386(8)
N11 N 0.36141(19) 0.1213(4) 1.1544(6)
C48 C 0.3407(2) 0.4333(5) 0.9820(8)
H21 H 0.3794 0.4241 1.0151
C49 C 0.3244(2) 0.3925(6) 0.8657(8)
H22 H 0.4371 0.3433 1.3447
C50 C 0.4000(2) 0.3631(5) 1.3051(7)
H23 H 0.4103 0.3051 1.1218
N12 N 0.38471(16) 0.3412(4) 1.1716(5)
H24 H 0.5042 0.4173 0.9454
H25 H 0.4787 0.4393 0.9713
H26 H 0.4837 0.3844 0.9788
H27 H 0.5274 0.4760 1.0386
H28 H 0.5370 0.4536 1.1243
H29 H 0.5121 0.4863 1.1119
H30 H 0.3479 0.0947 0.6591
C51 C 0.3195(3) 0.0708(6) 0.7198(8)
C52 C 0.3245(2) 0.1019(6) 0.8506(7)
C53 C 0.6711(2) 0.4339(4) 0.9580(7)
H31 H 0.6387 0.4302 1.0106
C54 C 0.6679(2) 0.3842(5) 0.8457(7)
H32 H 0.6309 0.1003 0.9592
C55 C 0.6676(3) 0.0789(7) 1.0022(8)
C56 C 0.6789(3) 0.0956(7) 1.1368(8)
H33 H 0.3666 0.0598 0.9969
C57 C 0.3336(2) 0.0604(5) 1.0465(7)
C58 C 0.3373(2) 0.1077(5) 1.1612(7)
C59 C 0.3202(2) 0.4219(5) 0.9259(7)
H34 H 0.3383 0.4538 1.0244
H35 H 0.3102 0.3843 0.8266
H36 H 0.3968 0.3771 1.3534
C60 C 0.3814(2) 0.3626(5) 1.2389(7)
H37 H 0.3106 0.0523 0.6780
C61 C 0.3110(2) 0.0740(6) 0.7926(7)
H38 H 0.3178 0.1060 0.8994
C62 C 0.6823(2) 0.4165(4) 0.8924(7)
H39 H 0.6800 0.4556 0.9942
H40 H 0.6752 0.3718 0.8020
H41 H 0.6715 0.0666 0.9532
C63 C 0.6854(2) 0.0756(6) 1.0700(7)
H42 H 0.6910 0.0940 1.1845
H43 H 0.3239 0.0406 1.0083
C64 C 0.3230(2) 0.0770(5) 1.1094(7)
H44 H 0.3297 0.1199 1.2043
C65 C 0.29366(19) 0.4375(4) 0.9332(7)
C66 C 0.3566(2) 0.3884(5) 1.2382(7)
C67 C 0.28725(19) 0.0480(5) 0.8087(7)
C68 C 0.7082(2) 0.4318(4) 0.8786(6)
C69 C 0.7104(2) 0.0515(5) 1.0671(7)
C70 C 0.2952(2) 0.0671(5) 1.1184(7)
O17 O 0.27533(14) 0.4252(3) 0.8832(5)
O18 O 0.29170(13) 0.4633(3) 0.9939(5)
C71 C 0.3395(2) 0.3919(5) 1.1705(7)
N13 N 0.3531(2) 0.4105(5) 1.3052(6)
O19 O 0.27630(14) 0.0243(3) 0.7524(5)
O20 O 0.28175(13) 0.0521(3) 0.8779(4)
O21 O 0.71474(15) 0.4230(3) 0.8112(5)
O22 O 0.72201(13) 0.4512(3) 0.9360(5)
O23 O 0.72596(14) 0.0485(3) 1.1292(5)
O24 O 0.71312(16) 0.0320(4) 1.0036(5)
O25 O 0.28918(15) 0.0662(4) 1.1868(5)
O26 O 0.28054(15) 0.0601(4) 1.0578(5)
Ce3 Ce 0.25085(2) 0.45506(2) 0.76294(4)
Ce4 Ce 0.25016(2) 0.47900(2) 1.04046(3)
H45 H 0.3425 0.3761 1.1235
C72 C 0.3177(2) 0.4182(5) 1.1697(7)
C73 C 0.3320(2) 0.4362(5) 1.3038(8)
O27 O 0.25179(14) 0.5177(4) 0.9003(5)
O28 O 0.27434(12) 0.4766(2) 1.1779(4)
O29 O 0.25891(18) 0.3928(3) 1.0565(6)
H46 H 0.3054 0.4200 1.1228
C74 C 0.31396(19) 0.4420(4) 1.2370(7)
H47 H 0.3293 0.4515 1.3517
C75 C 0.29093(18) 0.4722(4) 1.2391(6)
H48 H 0.2755 0.3864 1.0359
H49 H 0.2598 0.3836 1.1078
O30 O 0.28947(13) 0.4938(3) 1.3039(4)
O31 O 0.2444(2) 0.6302(3) 1.2478(7)
H50 H 0.2590 0.6503 1.2603
H51 H 0.2332 0.6556 1.2600
H1A H 0.5126 0.3024 0.7564
Ce1A Ce 0.49727(2) 0.21667(2) 0.61847(3)
C2A C 0.54725(16) 0.1906(4) 0.7737(6)
O8A O 0.45399(13) 0.2106(3) 0.6612(4)
O1A O 0.53768(12) 0.2614(3) 0.6400(4)
O2A O 0.52766(11) 0.1796(2) 0.7233(4)
O3A O 0.47740(13) 0.2926(3) 0.5872(4)
O4A O 0.47113(12) 0.2143(3) 0.4858(4)
O5A O 0.52699(12) 0.1743(2) 0.5372(4)
O7A O 0.48503(14) 0.1334(3) 0.6138(5)
C7A C 0.57354(18) 0.1764(5) 0.7569(6)
C1A C 0.54107(17) 0.2834(4) 0.5773(6)
C3A C 0.46393(17) 0.3129(4) 0.5317(6)
C4A C 0.45514(17) 0.2135(4) 0.4214(6)
C5A C 0.53189(18) 0.1793(4) 0.4670(6)
H2A H 0.4970 0.1038 0.6306
H3A H 0.4900 0.1274 0.5617
C13A C 0.5935(2) 0.1738(6) 0.8181(7)
C14A C 0.5774(2) 0.1641(5) 0.6812(7)
C6A C 0.56464(18) 0.3112(4) 0.5812(6)
O9A O 0.52492(12) 0.2809(3) 0.5133(4)
C8A C 0.43857(18) 0.3333(4) 0.5483(6)
O10A O 0.46995(12) 0.3190(2) 0.4612(4)
C9A C 0.4300(2) 0.1885(5) 0.4190(7)
O11A O 0.45953(13) 0.2324(3) 0.3589(4)
C10A C 0.55636(19) 0.1581(4) 0.4477(6)
O12A O 0.51876(13) 0.2001(2) 0.4120(4)
H6A H 0.5907 0.1846 0.8693
N2A N 0.61700(18) 0.1566(5) 0.8099(6)
C22A C 0.6013(2) 0.1482(5) 0.6698(7)
H7A H 0.5639 0.1664 0.6375
H15A H 0.5101 0.1885 1.2484
Ce2A Ce 0.50030(2) 0.27623(2) 1.38073(3)
C11A C 0.5830(2) 0.3094(6) 0.6475(8)
C12A C 0.56826(18) 0.3403(4) 0.5177(6)
Ce2A_2 Ce 0.50030(2) 0.27623(2) 0.38073(3)
C15A C 0.4263(2) 0.3140(4) 0.6069(7)
C16A C 0.42665(19) 0.3703(4) 0.5057(6)
C17A C 0.4132(2) 0.1850(6) 0.3511(8)
C18A C 0.4250(3) 0.1656(6) 0.4861(8)
C19A C 0.5685(2) 0.1762(5) 0.3887(7)
C20A C 0.56853(19) 0.1197(4) 0.4889(6)
C29A C 0.6202(2) 0.1426(6) 0.7352(7)
H16A H 0.6048 0.1412 0.6176
O16A O 0.47223(12) 0.3134(2) 1.2724(4)
H4A H 0.5804 0.2907 0.6919
C21A C 0.6050(2) 0.3342(6) 0.6497(8)
H5A H 0.5553 0.3421 0.4723
N1A N 0.58970(17) 0.3658(4) 0.5200(6)
O13A O 0.54481(13) 0.2826(3) 0.3447(4)
O15A O 0.51234(13) 0.3594(3) 0.3880(5)
O16A_2 O 0.47223(12) 0.3134(2) 0.2724(4)
O14_2 O 0.5000 0.2244(3) 0.2500
H8A H 0.4342 0.2895 0.6394
C23A C 0.4025(2) 0.3304(5) 0.6181(7)
H9A H 0.4351 0.3839 0.4654
N3A N 0.40375(16) 0.3884(3) 0.5175(5)
H10A H 0.4179 0.1964 0.3025
C24A C 0.3897(3) 0.1655(6) 0.3508(8)
H11A H 0.4376 0.1653 0.5325
N4A N 0.4024(2) 0.1434(6) 0.4867(7)
H12A H 0.5608 0.2012 0.3568
C25A C 0.5920(2) 0.1585(5) 0.3748(7)
H13A H 0.5603 0.1055 0.5292
N5A N 0.59108(16) 0.1020(3) 0.4748(5)
C35A C 0.6455(2) 0.1214(6) 0.7291(7)
H14A H 0.6178 0.3335 0.6957
C26A C 0.6084(2) 0.3604(5) 0.5845(7)
C27A C 0.54630(18) 0.3038(3) 0.2813(6)
C28A C 0.4977(3) 0.3894(5) 0.3734(9)
Ce2_2 Ce 0.49970(2) 0.27623(2) 0.11927(3)
H17A H 0.3935 0.3162 0.6563
C30A C 0.39175(19) 0.3679(4) 0.5732(6)
H18A H 0.3770 0.1663 0.3045
C31A C 0.3849(3) 0.1441(6) 0.4216(8)
H19A H 0.6007 0.1720 0.3351
C32A C 0.6024(2) 0.1219(4) 0.4184(7)
C44A C 0.6583(2) 0.0957(6) 0.7909(8)
N8A N 0.6531(2) 0.1239(5) 0.6582(6)
C33A C 0.6330(2) 0.3849(5) 0.5823(7)
C34A C 0.57231(19) 0.3220(4) 0.2698(6)
O16_2 O 0.52777(12) 0.3134(2) 0.2276(4)
N6A N 0.4946(3) 0.4216(5) 0.4350(9)
H20A H 0.4881 0.3924 0.3216
C36A C 0.3658(2) 0.3866(4) 0.5828(6)
C37A C 0.3596(3) 0.1208(7) 0.4262(8)
C38A C 0.6283(2) 0.1040(5) 0.4074(7)
H30A H 0.6521 0.0947 0.8409
C51A C 0.6805(3) 0.0708(6) 0.7802(8)
C52A C 0.6755(2) 0.1019(6) 0.6494(7)
C39A C 0.6351(2) 0.4154(5) 0.5224(7)
N7A N 0.6529(2) 0.3749(5) 0.6407(6)
C40A C 0.5762(2) 0.3428(5) 0.1999(7)
C41A C 0.59218(19) 0.3210(4) 0.3307(6)
C42A C 0.5081(5) 0.4151(8) 0.5166(14)
C43A C 0.4781(5) 0.4629(8) 0.4132(15)
C45A C 0.3533(2) 0.4184(4) 0.5321(7)
N9A N 0.35547(18) 0.3685(4) 0.6443(6)
C46A C 0.3561(3) 0.1002(7) 0.4955(8)
N10A N 0.3434(2) 0.1173(6) 0.3603(7)
C47A C 0.6414(2) 0.0727(5) 0.4614(8)
N11A N 0.63859(19) 0.1213(4) 0.3456(6)
H37A H 0.6894 0.0523 0.8220
C61A C 0.6890(2) 0.0740(6) 0.7074(7)
H38A H 0.6822 0.1060 0.6006
C48A C 0.6593(2) 0.4333(5) 0.5180(8)
H21A H 0.6206 0.4241 0.4849
C49A C 0.6756(2) 0.3925(6) 0.6343(8)
H22A H 0.5629 0.3433 0.1553
C50A C 0.6000(2) 0.3631(5) 0.1949(7)
H23A H 0.5897 0.3051 0.3782
N12A N 0.61529(16) 0.3412(4) 0.3284(5)
H24A H 0.4958 0.4173 0.5546
H25A H 0.5213 0.4393 0.5287
H26A H 0.5163 0.3844 0.5212
H27A H 0.4726 0.4760 0.4614
H28A H 0.4630 0.4536 0.3757
H29A H 0.4879 0.4863 0.3881
C53A C 0.3289(2) 0.4339(4) 0.5420(7)
H31A H 0.3613 0.4302 0.4894
C54A C 0.3321(2) 0.3842(5) 0.6543(7)
H32A H 0.3691 0.1003 0.5408
C55A C 0.3324(3) 0.0789(7) 0.4978(8)
C56A C 0.3211(3) 0.0956(7) 0.3632(8)
H33A H 0.6334 0.0598 0.5031
C57A C 0.6664(2) 0.0604(5) 0.4535(7)
C58A C 0.6627(2) 0.1077(5) 0.3388(7)
C67A C 0.71275(19) 0.0480(5) 0.6913(7)
C59A C 0.6798(2) 0.4219(5) 0.5741(7)
H34A H 0.6617 0.4538 0.4756
H35A H 0.6898 0.3843 0.6734
H36A H 0.6032 0.3771 0.1466
C60A C 0.6186(2) 0.3626(5) 0.2611(7)
C62A C 0.3177(2) 0.4165(4) 0.6076(7)
H39A H 0.3200 0.4556 0.5058
H40A H 0.3248 0.3718 0.6980
H41A H 0.3285 0.0666 0.5468
C63A C 0.3146(2) 0.0756(6) 0.4300(7)
H42A H 0.3090 0.0940 0.3155
H43A H 0.6761 0.0406 0.4917
C64A C 0.6770(2) 0.0770(5) 0.3906(7)
H44A H 0.6703 0.1199 0.2957
O19A O 0.72370(14) 0.0243(3) 0.7476(5)
O20A O 0.71825(13) 0.0521(3) 0.6221(4)
Ce3C Ce 0.24915(2) -0.04494(2) 0.73706(4)
Ce4F Ce 0.24984(2) 0.02100(2) 0.95954(3)
Ce3A Ce 0.74915(2) 0.45506(2) 0.73706(4)
Ce4D Ce 0.74984(2) 0.52100(2) 0.95954(3)
Ce3G Ce 0.75085(2) 0.04494(2) 1.26294(4)
Ce4B Ce 0.75016(2) -0.02100(2) 1.04046(3)
Ce3F Ce 0.24915(2) 0.04494(2) 1.23706(4)
C65A C 0.70634(19) 0.4375(4) 0.5668(7)
C66A C 0.6434(2) 0.3884(5) 0.2618(7)
C68A C 0.2918(2) 0.4318(4) 0.6214(6)
C69A C 0.2896(2) 0.0515(5) 0.4329(7)
C70A C 0.7048(2) 0.0671(5) 0.3816(7)
Ce3B Ce 0.75085(2) -0.04494(2) 0.76294(4)
Ce4G Ce 0.75016(2) 0.02100(2) 0.54046(3)
O21A O 0.28526(15) 0.4230(3) 0.6888(5)
O20F O 0.21825(13) 0.4479(3) 1.1221(4)
O22D O 0.27799(13) 0.5488(3) 1.0640(5)
O23B O 0.22596(14) 0.5485(3) 1.1292(5)
O24B O 0.21312(16) 0.5320(4) 1.0036(5)
O26F O 0.21946(15) 0.4399(4) 0.9422(5)
O17A O 0.72467(14) 0.4252(3) 0.6168(5)
O27A O 0.74821(14) 0.5177(4) 0.5997(5)
O18A O 0.70830(13) 0.4633(3) 0.5061(5)
C71A C 0.6605(2) 0.3919(5) 0.3295(7)
N13A N 0.6469(2) 0.4105(5) 0.1948(6)
O22A O 0.27799(13) 0.4512(3) 0.5640(5)
O23A O 0.27404(14) 0.0485(3) 0.3708(5)
O24A O 0.28688(16) 0.0320(4) 0.4964(5)
O25A O 0.71082(15) 0.0662(4) 0.3132(5)
O26A O 0.71946(15) 0.0601(4) 0.4422(5)
Ce3E Ce 0.25085(2) 0.54494(2) 1.26294(4)
Ce4A Ce 0.74984(2) 0.47900(2) 0.45954(3)
H45A H 0.6575 0.3761 0.3765
C72A C 0.6823(2) 0.4182(5) 0.3303(7)
C73A C 0.6680(2) 0.4362(5) 0.1962(8)
Ce4E Ce 0.25016(2) 0.52100(2) 0.54046(3)
Ce3F_2 Ce 0.24915(2) 0.04494(2) 0.23706(4)
Ce4C Ce 0.24984(2) -0.02100(2) 0.45954(3)
Ce3G_2 Ce 0.75085(2) 0.04494(2) 0.26294(4)
O17E O 0.27533(14) 0.5748(3) 1.3832(5)
O19F O 0.22370(14) 0.4757(3) 1.2476(5)
O21D O 0.28526(15) 0.5770(3) 1.1888(5)
O25C O 0.21082(15) 0.5662(4) 1.3132(5)
O27E O 0.25179(14) 0.4823(4) 1.4003(5)
O28A O 0.72566(12) 0.4766(2) 0.3221(4)
O29A O 0.74109(18) 0.3928(3) 0.4435(6)
O20G O 0.78175(13) 0.4479(3) 0.3779(4)
O22E O 0.72201(13) 0.5488(3) 0.4360(5)
O23C O 0.77404(14) 0.5485(3) 0.3708(5)
O24C O 0.78688(16) 0.5320(4) 0.4964(5)
O26G O 0.78054(15) 0.4399(4) 0.5578(5)
H46A H 0.6946 0.4200 0.3772
C74A C 0.68604(19) 0.4420(4) 0.2630(7)
H47A H 0.6707 0.4515 0.1483
Ce3D Ce 0.74915(2) 0.54494(2) 0.23706(4)
C75A C 0.70907(18) 0.4722(4) 0.2609(6)
H48A H 0.7245 0.3864 0.4641
H49A H 0.7402 0.3836 0.3922
O30A O 0.71053(13) 0.4938(3) 0.1961(4)
O31A O 0.7556(2) 0.6302(3) 0.2522(7)
O17D O 0.72467(14) 0.5748(3) 0.1168(5)
O19G O 0.77630(14) 0.4757(3) 0.2524(5)
O21E O 0.71474(15) 0.5770(3) 0.3112(5)
O25B O 0.78918(15) 0.5662(4) 0.1868(5)
O27D O 0.74821(14) 0.4823(4) 0.0997(5)
H50A H 0.7410 0.6503 0.2397
H51A H 0.7668 0.6556 0.2400
loop_
_geom_bond_atom_site_label_1
_geom_bond_atom_site_label_2
_geom_bond_site_symmetry_1
_geom_bond_site_symmetry_2
Ce1 O1 1_555 1_555
O1 C1 1_555 1_555
O2 Ce1 1_555 1_555
O3 Ce1 1_555 1_555
O4 Ce1 1_555 1_555
O5 Ce1 1_555 1_555
O6 Ce1 1_555 1_555
O7 Ce1 1_555 1_555
O8 Ce1 1_555 1_555
C1 C6 1_555 1_555
C2 O2 1_555 1_555
C3 O3 1_555 1_555
C4 O4 1_555 1_555
C5 O5 1_555 1_555
H1 O6 1_555 1_555
H2 O7 1_555 1_555
H3 O7 1_555 1_555
C6 C11 1_555 1_555
O9 C1 1_555 1_555
C7 C2 1_555 1_555
C8 C3 1_555 1_555
O10 C3 1_555 1_555
C9 C4 1_555 1_555
O11 C4 1_555 1_555
C10 C5 1_555 1_555
O12 C5 1_555 1_555
C11 H4 1_555 1_555
C12 C6 1_555 1_555
Ce2 O9 1_555 1_555
C13 C7 1_555 1_555
C14 C7 1_555 1_555
C15 C8 1_555 1_555
C16 C8 1_555 1_555
C17 C9 1_555 1_555
C18 C9 1_555 1_555
C19 C10 1_555 1_555
C20 C10 1_555 1_555
C21 C11 1_555 1_555
H5 C12 1_555 1_555
N1 C12 1_555 1_555
O13 Ce2 1_555 1_555
O14 Ce2 1_555 1_555
O15 Ce2 1_555 1_555
O16 Ce2 1_555 1_555
H6 C13 1_555 1_555
N2 C13 1_555 1_555
C22 C14 1_555 1_555
H7 C14 1_555 1_555
H8 C15 1_555 1_555
C23 C15 1_555 1_555
H9 C16 1_555 1_555
N3 C16 1_555 1_555
H10 C17 1_555 1_555
C24 C17 1_555 1_555
H11 C18 1_555 1_555
N4 C18 1_555 1_555
H12 C19 1_555 1_555
C25 C19 1_555 1_555
H13 C20 1_555 1_555
N5 C20 1_555 1_555
H14 C21 1_555 1_555
C26 C21 1_555 1_555
C27 O13 1_555 1_555
H15 O14 1_555 1_555
C28 O15 1_555 1_555
C29 N2 1_555 1_555
H16 C22 1_555 1_555
H17 C23 1_555 1_555
C30 C23 1_555 1_555
H18 C24 1_555 1_555
C31 C24 1_555 1_555
H19 C25 1_555 1_555
C32 C25 1_555 1_555
C33 C26 1_555 1_555
C34 C27 1_555 1_555
N6 C28 1_555 1_555
H20 C28 1_555 1_555
C35 C29 1_555 1_555
C36 C30 1_555 1_555
C37 C31 1_555 1_555
C38 C32 1_555 1_555
C39 C33 1_555 1_555
N7 C33 1_555 1_555
C40 C34 1_555 1_555
C41 C34 1_555 1_555
C42 N6 1_555 1_555
C43 N6 1_555 1_555
C44 C35 1_555 1_555
N8 C35 1_555 1_555
C45 C36 1_555 1_555
N9 C36 1_555 1_555
C46 C37 1_555 1_555
N10 C37 1_555 1_555
C47 C38 1_555 1_555
N11 C38 1_555 1_555
C48 C39 1_555 1_555
H21 C39 1_555 1_555
C49 N7 1_555 1_555
H22 C40 1_555 1_555
C50 C40 1_555 1_555
H23 C41 1_555 1_555
N12 C41 1_555 1_555
H24 C42 1_555 1_555
H25 C42 1_555 1_555
H26 C42 1_555 1_555
H27 C43 1_555 1_555
H28 C43 1_555 1_555
H29 C43 1_555 1_555
H30 C44 1_555 1_555
C51 C44 1_555 1_555
C52 N8 1_555 1_555
C53 C45 1_555 1_555
H31 C45 1_555 1_555
C54 N9 1_555 1_555
H32 C46 1_555 1_555
C55 C46 1_555 1_555
C56 N10 1_555 1_555
H33 C47 1_555 1_555
C57 C47 1_555 1_555
C58 N11 1_555 1_555
C59 C48 1_555 1_555
H34 C48 1_555 1_555
H35 C49 1_555 1_555
H36 C50 1_555 1_555
C60 C50 1_555 1_555
H37 C51 1_555 1_555
C61 C51 1_555 1_555
H38 C52 1_555 1_555
C62 C53 1_555 1_555
H39 C53 1_555 1_555
H40 C54 1_555 1_555
H41 C55 1_555 1_555
C63 C55 1_555 1_555
H42 C56 1_555 1_555
H43 C57 1_555 1_555
C64 C57 1_555 1_555
H44 C58 1_555 1_555
C65 C59 1_555 1_555
C66 C60 1_555 1_555
C67 C61 1_555 1_555
C68 C62 1_555 1_555
C69 C63 1_555 1_555
C70 C64 1_555 1_555
O17 C65 1_555 1_555
O18 C65 1_555 1_555
C71 C66 1_555 1_555
N13 C66 1_555 1_555
O19 C67 1_555 1_555
O20 C67 1_555 1_555
O21 C68 1_555 1_555
O22 C68 1_555 1_555
O23 C69 1_555 1_555
O24 C69 1_555 1_555
O25 C70 1_555 1_555
O26 C70 1_555 1_555
Ce3 O17 1_555 1_555
Ce4 O18 1_555 1_555
H45 C71 1_555 1_555
C72 C71 1_555 1_555
C73 N13 1_555 1_555
O27 Ce3 1_555 1_555
O28 Ce4 1_555 1_555
O29 Ce4 1_555 1_555
H46 C72 1_555 1_555
C74 C72 1_555 1_555
H47 C73 1_555 1_555
C75 O28 1_555 1_555
H48 O29 1_555 1_555
H49 O29 1_555 1_555
O30 C75 1_555 1_555
O31 H50 1_555 1_555
H51 O31 1_555 1_555
H1A O6 1_555 1_555
Ce1A O6 1_555 1_555
C2A O8 1_555 1_555
O8A C2 1_555 1_555
O1A Ce1A 1_555 1_555
O2A Ce1A 1_555 1_555
O3A Ce1A 1_555 1_555
O4A Ce1A 1_555 1_555
O5A Ce1A 1_555 1_555
O7A Ce1A 1_555 1_555
C7A C2A 1_555 1_555
C1A O1A 1_555 1_555
C3A O3A 1_555 1_555
C4A O4A 1_555 1_555
C5A O5A 1_555 1_555
H2A O7A 1_555 1_555
H3A O7A 1_555 1_555
C13A C7A 1_555 1_555
C14A C7A 1_555 1_555
C6A C1A 1_555 1_555
O9A C1A 1_555 1_555
C8A C3A 1_555 1_555
O10A C3A 1_555 1_555
C9A C4A 1_555 1_555
O11A C4A 1_555 1_555
C10A C5A 1_555 1_555
O12A C5A 1_555 1_555
H6A C13A 1_555 1_555
N2A C13A 1_555 1_555
C22A C14A 1_555 1_555
H7A C14A 1_555 1_555
H15A O14 1_555 1_555
Ce2A O14 1_555 1_555
C11A C6A 1_555 1_555
C12A C6A 1_555 1_555
Ce2A_2 O9A 1_555 1_555
C15A C8A 1_555 1_555
C16A C8A 1_555 1_555
C17A C9A 1_555 1_555
C18A C9A 1_555 1_555
C19A C10A 1_555 1_555
C20A C10A 1_555 1_555
C29A N2A 1_555 1_555
H16A C22A 1_555 1_555
O16A C27 1_555 1_555
H4A C11A 1_555 1_555
C21A C11A 1_555 1_555
H5A C12A 1_555 1_555
N1A C12A 1_555 1_555
O13A Ce2A_2 1_555 1_555
O15A Ce2A_2 1_555 1_555
O16A_2 Ce2A_2 1_555 1_555
O14_2 Ce2A_2 1_555 1_555
H8A C15A 1_555 1_555
C23A C15A 1_555 1_555
H9A C16A 1_555 1_555
N3A C16A 1_555 1_555
H10A C17A 1_555 1_555
C24A C17A 1_555 1_555
H11A C18A 1_555 1_555
N4A C18A 1_555 1_555
H12A C19A 1_555 1_555
C25A C19A 1_555 1_555
H13A C20A 1_555 1_555
N5A C20A 1_555 1_555
C35A C29A 1_555 1_555
H14A C21A 1_555 1_555
C26A C21A 1_555 1_555
C27A O13A 1_555 1_555
C28A O15A 1_555 1_555
Ce2_2 O14_2 1_555 1_555
H17A C23A 1_555 1_555
C30A C23A 1_555 1_555
H18A C24A 1_555 1_555
C31A C24A 1_555 1_555
H19A C25A 1_555 1_555
C32A C25A 1_555 1_555
C44A C35A 1_555 1_555
N8A C35A 1_555 1_555
C33A C26A 1_555 1_555
C34A C27A 1_555 1_555
O16_2 C27A 1_555 1_555
N6A C28A 1_555 1_555
H20A C28A 1_555 1_555
C36A C30A 1_555 1_555
C37A C31A 1_555 1_555
C38A C32A 1_555 1_555
H30A C44A 1_555 1_555
C51A C44A 1_555 1_555
C52A N8A 1_555 1_555
C39A C33A 1_555 1_555
N7A C33A 1_555 1_555
C40A C34A 1_555 1_555
C41A C34A 1_555 1_555
C42A N6A 1_555 1_555
C43A N6A 1_555 1_555
C45A C36A 1_555 1_555
N9A C36A 1_555 1_555
C46A C37A 1_555 1_555
N10A C37A 1_555 1_555
C47A C38A 1_555 1_555
N11A C38A 1_555 1_555
H37A C51A 1_555 1_555
C61A C51A 1_555 1_555
H38A C52A 1_555 1_555
C48A C39A 1_555 1_555
H21A C39A 1_555 1_555
C49A N7A 1_555 1_555
H22A C40A 1_555 1_555
C50A C40A 1_555 1_555
H23A C41A 1_555 1_555
N12A C41A 1_555 1_555
H24A C42A 1_555 1_555
H25A C42A 1_555 1_555
H26A C42A 1_555 1_555
H27A C43A 1_555 1_555
H28A C43A 1_555 1_555
H29A C43A 1_555 1_555
C53A C45A 1_555 1_555
H31A C45A 1_555 1_555
C54A N9A 1_555 1_555
H32A C46A 1_555 1_555
C55A C46A 1_555 1_555
C56A N10A 1_555 1_555
H33A C47A 1_555 1_555
C57A C47A 1_555 1_555
C58A N11A 1_555 1_555
C67A C61A 1_555 1_555
C59A C48A 1_555 1_555
H34A C48A 1_555 1_555
H35A C49A 1_555 1_555
H36A C50A 1_555 1_555
C60A C50A 1_555 1_555
C62A C53A 1_555 1_555
H39A C53A 1_555 1_555
H40A C54A 1_555 1_555
H41A C55A 1_555 1_555
C63A C55A 1_555 1_555
H42A C56A 1_555 1_555
H43A C57A 1_555 1_555
C64A C57A 1_555 1_555
H44A C58A 1_555 1_555
O19A C67A 1_555 1_555
O20A C67A 1_555 1_555
Ce3C O19 1_555 1_555
Ce4F O20 1_555 1_555
Ce3A O21 1_555 1_555
Ce4D O22 1_555 1_555
Ce3G O23 1_555 1_555
Ce4B O23 1_555 1_555
Ce3F O25 1_555 1_555
C65A C59A 1_555 1_555
C66A C60A 1_555 1_555
C68A C62A 1_555 1_555
C69A C63A 1_555 1_555
C70A C64A 1_555 1_555
Ce3B O19A 1_555 1_555
Ce4G O20A 1_555 1_555
O21A Ce3 1_555 1_555
O20F Ce4 1_555 1_555
O22D Ce4 1_555 1_555
O23B Ce4 1_555 1_555
O24B Ce4 1_555 1_555
O26F Ce4 1_555 1_555
O17A Ce3A 1_555 1_555
O27A Ce3A 1_555 1_555
O18A C65A 1_555 1_555
C71A C66A 1_555 1_555
N13A C66A 1_555 1_555
O22A C68A 1_555 1_555
O23A C69A 1_555 1_555
O24A C69A 1_555 1_555
O25A C70A 1_555 1_555
O26A C70A 1_555 1_555
Ce3E O28 1_555 1_555
Ce4A O27A 1_555 1_555
H45A C71A 1_555 1_555
C72A C71A 1_555 1_555
C73A N13A 1_555 1_555
Ce4E O22A 1_555 1_555
Ce3F_2 O23A 1_555 1_555
Ce4C O23A 1_555 1_555
Ce3G_2 O25A 1_555 1_555
O17E Ce3E 1_555 1_555
O19F Ce3E 1_555 1_555
O21D Ce3E 1_555 1_555
O25C Ce3E 1_555 1_555
O27E Ce3E 1_555 1_555
O28A Ce4A 1_555 1_555
O29A Ce4A 1_555 1_555
O20G Ce4A 1_555 1_555
O22E Ce4A 1_555 1_555
O23C Ce4A 1_555 1_555
O24C Ce4A 1_555 1_555
O26G Ce4A 1_555 1_555
H46A C72A 1_555 1_555
C74A C72A 1_555 1_555
H47A C73A 1_555 1_555
Ce3D O28A 1_555 1_555
C75A O28A 1_555 1_555
H48A O29A 1_555 1_555
H49A O29A 1_555 1_555
O30A Ce3D 1_555 1_555
O31A Ce3D 1_555 1_555
O17D Ce3D 1_555 1_555
O19G Ce3D 1_555 1_555
O21E Ce3D 1_555 1_555
O25B Ce3D 1_555 1_555
O27D Ce3D 1_555 1_555
H50A O31A 1_555 1_555
H51A O31A 1_555 1_555
O10 Ce2 1_555 1_555
O11 Ce2 1_555 1_555
O12 Ce2 1_555 1_555
N1 C26 1_555 1_555
C22 C29 1_555 1_555
N3 C30 1_555 1_555
N4 C31 1_555 1_555
N5 C32 1_555 1_555
C49 C59 1_555 1_555
N12 C60 1_555 1_555
C52 C61 1_555 1_555
C54 C62 1_555 1_555
C56 C63 1_555 1_555
C58 C64 1_555 1_555
O24 Ce4B 1_555 1_555
O26 Ce4F 1_555 1_555
Ce4 O27 1_555 1_555
C73 C74 1_555 1_555
C74 C75 1_555 1_555
O30 Ce3E 1_555 1_555
O31 Ce3E 1_555 1_555
Ce1A O8A 1_555 1_555
C2A O2A 1_555 1_555
O10A Ce2A_2 1_555 1_555
O11A Ce2A_2 1_555 1_555
O12A Ce2A_2 1_555 1_555
C22A C29A 1_555 1_555
Ce2A O16A 1_555 1_555
N1A C26A 1_555 1_555
N3A C30A 1_555 1_555
N4A C31A 1_555 1_555
N5A C32A 1_555 1_555
Ce2_2 O16_2 1_555 1_555
C52A C61A 1_555 1_555
C49A C59A 1_555 1_555
N12A C60A 1_555 1_555
C54A C62A 1_555 1_555
C56A C63A 1_555 1_555
C58A C64A 1_555 1_555
C65A O17A 1_555 1_555
C68A O21A 1_555 1_555
Ce4G O26A 1_555 1_555
O23B Ce3E 1_555 1_555
O18A Ce4A 1_555 1_555
O24A Ce4C 1_555 1_555
C73A C74A 1_555 1_555
O23C Ce3D 1_555 1_555
C74A C75A 1_555 1_555
C75A O30A 1_555 1_555

#END
