
#######################################################################
#
#                 Cambridge Crystallographic Data Centre
#                                CCDC 
#
#######################################################################
#
# If this CIF has been generated from an entry in the Cambridge 
# Structural Database, then it will include bibliographic, chemical, 
# crystal, experimental, refinement or atomic coordinate data resulting 
# from the CCDC's data processing and validation procedures.
#
#######################################################################

data_VUHJAK
_symmetry_cell_setting           hexagonal
_symmetry_space_group_name_H-M   'P 65 2 2'
_symmetry_Int_Tables_number      179
_space_group_name_Hall           "P 65 2' (0,0,1)"
loop_
_symmetry_equiv_pos_site_id
_symmetry_equiv_pos_as_xyz
1 x,y,z
2 x-y,x,5/6+z
3 -y,-x,1/6-z
4 -y,x-y,2/3+z
5 x-y,-y,-z
6 -x,-y,1/2+z
7 x,x-y,5/6-z
8 -x+y,-x,1/3+z
9 y,x,2/3-z
10 y,-x+y,1/6+z
11 -x+y,y,1/2-z
12 -x,-x+y,1/3-z
_cell_length_a                   14.656(3)
_cell_length_b                   14.656(3)
_cell_length_c                   16.905(2)
_cell_angle_alpha                90
_cell_angle_beta                 90
_cell_angle_gamma                120
_cell_volume                     3144.68
loop_
_atom_site_label
_atom_site_type_symbol
_atom_site_fract_x
_atom_site_fract_y
_atom_site_fract_z
Cu1 Cu -0.11674(6) 0.32270(6) 0.14169(4)
Cu2 Cu 0.00000 0.16385(7) 0.166667
P1 P -0.08062(10) 0.23500(11) -0.00577(8)
O1 O -0.0465(3) 0.2553(3) 0.0825(2)
O2 O -0.1882(3) 0.2264(3) -0.0190(3)
O3 O -0.0789(3) 0.1381(3) -0.0365(2)
O4 O -0.0467(3) 0.5011(3) -0.2442(2)
O5 O 0.1280(3) 0.6009(3) -0.2699(2)
O6 O -0.2903(4) 0.2902(8) 0.08333
O9 O -0.0338(6) 0.0338(6) 0.083333
C1 C 0.0206(4) 0.3428(4) -0.0646(3)
C2 C -0.0046(4) 0.3925(3) -0.1249(3)
C3 C 0.0749(4) 0.4700(4) -0.1709(3)
C4 C 0.1809(5) 0.4978(4) -0.1573(3)
C5 C 0.2052(5) 0.4506(5) -0.0973(4)
C6 C 0.1257(5) 0.3729(5) -0.0502(4)
C7 C 0.0500(4) 0.5276(4) -0.2339(3)
H1 H -0.0645(3) 0.3778 -0.1316(5)
H2 H 0.226(4) 0.542(4) -0.179(3)
H3 H 0.264(5) 0.477(4) -0.077(4)
H4 H 0.141(5) 0.352(5) -0.011(4)
Cu1K Cu 0.11674(6) 0.43944(8) 0.19164(4)
Cu1B Cu -0.32270(6) 0.11674(6) 0.02498(4)
Cu1F Cu -0.11674(6) 0.56056(8) -0.30836(4)
Cu1E Cu 0.11674(6) 0.67730(6) -0.35831(4)
Cu1I Cu 0.32270(6) 0.43944(8) 0.30836(4)
Cu1E_2 Cu 0.11674(6) 0.67730(6) 0.64169(4)
Cu1F_2 Cu -0.11674(6) 0.56056(8) 0.69164(4)
Cu2A Cu -0.16385(7) 0.00000 0.000000
Cu2J Cu 0.16385(7) 0.16385(7) 0.333333
P1K P 0.08062(10) 0.31562(15) 0.33910(8)
O1K O 0.0465(3) 0.3018(4) 0.2508(2)
O2K O 0.1882(3) 0.4146(4) 0.3523(3)
O2B O -0.2264(3) 0.1882(3) 0.1857(3)
O2I O 0.2264(3) 0.4146(4) 0.1477(3)
O3K O 0.0789(3) 0.2170(4) 0.3698(2)
O3I O 0.1381(3) 0.2170(4) 0.1302(2)
O3B O -0.1381(3) 0.0789(3) 0.2032(2)
O4K O 0.0467(3) 0.5478(4) 0.5775(2)
O4F O -0.0467(3) 0.4522(4) 0.0775(2)
O4E O 0.0467(3) 0.4989(3) 0.2558(2)
O5K O -0.1280(3) 0.4729(4) 0.6032(2)
O5E O -0.1280(3) 0.3991(3) 0.2301(2)
O5F O 0.1280(3) 0.5271(4) 0.1032(2)
O6K O 0.2903(4) 0.5805(9) 0.25000
O9I O 0.0338(6) 0.0676(8) 0.250000
C1K C -0.0206(4) 0.3222(6) 0.3979(3)
C2K C 0.0046(4) 0.3971(5) 0.4582(3)
C3K C -0.0749(4) 0.3951(6) 0.5042(3)
C4K C -0.1809(5) 0.3169(6) 0.4906(3)
C5K C -0.2052(5) 0.2454(7) 0.4306(4)
C6K C -0.1257(5) 0.2472(7) 0.3835(4)
C7K C -0.0500(4) 0.4776(6) 0.5672(3)
H1K H 0.0645(3) 0.4423(3) 0.4649(5)
H2K H -0.226(4) 0.316(6) 0.512(3)
H3K H -0.264(5) 0.213(6) 0.410(4)
H4K H -0.141(5) 0.211(7) 0.344(4)
O7 O 0.3693(3) 0.6307(3) 0.083333
O8 O 0.1390(12) 0.1240(11) -0.0151(8)
loop_
_geom_bond_atom_site_label_1
_geom_bond_atom_site_label_2
_geom_bond_site_symmetry_1
_geom_bond_site_symmetry_2
Cu1 O1 1_555 1_555
Cu2 O1 1_555 1_555
P1 O1 1_555 1_555
O2 P1 1_555 1_555
O3 P1 1_555 1_555
O4 C7 1_555 1_555
O5 C7 1_555 1_555
O6 Cu1 1_555 1_555
O9 Cu2 1_555 1_555
C1 P1 1_555 1_555
C2 C1 1_555 1_555
C3 C2 1_555 1_555
C4 C3 1_555 1_555
C5 C4 1_555 1_555
C6 C1 1_555 1_555
C7 C3 1_555 1_555
H1 C2 1_555 1_555
H2 C4 1_555 1_555
H3 C5 1_555 1_555
H4 C6 1_555 1_555
Cu1K O1K 1_555 1_555
Cu1B O2 1_555 1_555
Cu1F O4 1_555 1_555
Cu1E O5 1_555 1_555
Cu1I O2K 1_555 1_555
Cu1E_2 O4K 1_555 1_555
Cu1F_2 O5K 1_555 1_555
Cu2A O3 1_555 1_555
Cu2J O3K 1_555 1_555
P1K O1K 1_555 1_555
O1K Cu2 1_555 1_555
O2K P1K 1_555 1_555
O2B Cu1 1_555 1_555
O2I Cu1K 1_555 1_555
O3K P1K 1_555 1_555
O3I Cu2 1_555 1_555
O3B Cu2 1_555 1_555
O4K C7K 1_555 1_555
O4F Cu1 1_555 1_555
O4E Cu1K 1_555 1_555
O5K C7K 1_555 1_555
O5E Cu1 1_555 1_555
O5F Cu1K 1_555 1_555
O6K Cu1K 1_555 1_555
O9I Cu2 1_555 1_555
C1K P1K 1_555 1_555
C2K C1K 1_555 1_555
C3K C2K 1_555 1_555
C4K C3K 1_555 1_555
C5K C4K 1_555 1_555
C6K C1K 1_555 1_555
C7K C3K 1_555 1_555
H1K C2K 1_555 1_555
H2K C4K 1_555 1_555
H3K C5K 1_555 1_555
H4K C6K 1_555 1_555
O6 Cu1B 1_555 1_555
O9 Cu2A 1_555 1_555
C5 C6 1_555 1_555
Cu1I O6K 1_555 1_555
Cu2J O9I 1_555 1_555
C5K C6K 1_555 1_555

#END
