
#######################################################################
#
#                 Cambridge Crystallographic Data Centre
#                                CCDC 
#
#######################################################################
#
# If this CIF has been generated from an entry in the Cambridge 
# Structural Database, then it will include bibliographic, chemical, 
# crystal, experimental, refinement or atomic coordinate data resulting 
# from the CCDC's data processing and validation procedures.
#
#######################################################################

data_VUKROK
_symmetry_cell_setting           monoclinic
_symmetry_space_group_name_H-M   'P 21/m'
_symmetry_Int_Tables_number      11
_space_group_name_Hall           '-P 2yb'
loop_
_symmetry_equiv_pos_site_id
_symmetry_equiv_pos_as_xyz
1 x,y,z
2 -x,1/2+y,-z
3 -x,-y,-z
4 x,1/2-y,z
_cell_length_a                   20.4051
_cell_length_b                   16.4969
_cell_length_c                   9.3469
_cell_angle_alpha                90
_cell_angle_beta                 94.1221
_cell_angle_gamma                90
_cell_volume                     3138.22
loop_
_atom_site_label
_atom_site_type_symbol
_atom_site_fract_x
_atom_site_fract_y
_atom_site_fract_z
O1 O 0.31153 0.17296 0.40871
O2 O 0.18491 0.16981 0.62729
O3 O 0.18445 0.1709 0.3881
O4 O 0.32059 0.1751 0.64922
C1 C 0.15819 0.14783 0.50369
C2 C 0.10037 0.09762 0.48581
C3 C 0.0668 0.06204 0.59893
H1 H 0.08322 0.07594 0.70853
C4 C 0.39476 0.05575 0.37775
H2 H 0.3544 0.06846 0.30069
C5 C -0.02224 -0.02555 0.68183
H3 H -0.00714 -0.01155 0.79095
C6 C 0.01163 0.00879 0.57092
H4 H 0.33828 0.30293 0.14422
H5 H 0.34104 0.1966 -0.10508
C7 C 0.34182 0.15043 0.52833
C8 C 0.39611 0.09175 0.51464
C9 C 0.45174 0.07328 0.60905
H6 H 0.45697 0.10317 0.71232
C10 C 0.07688 0.07689 0.34568
H7 H 0.1013 0.10046 0.256
C11 C 0.44484 0.00335 0.33706
H8 H 0.44335 -0.0186 0.22909
C12 C 0.50173 0.01785 0.56855
C13 C 0.2111 0.17773 0.08085
H9 H 0.23459 0.12142 0.1247
H10 H 0.15982 0.17498 0.11061
C14 C 0.2121 0.17814 -0.09035
H11 H 0.16082 0.1768 -0.13672
H12 H 0.23456 0.12145 -0.12764
Ni1 Ni 0.25177 0.250 0.63725
Ni2 Ni 0.25009 0.250 0.39237
N1 N 0.2465 0.250 -0.14801
N2 N 0.24362 0.250 0.15064
C15 C 0.31115 0.250 0.09954
C16 C 0.31301 0.250 -0.07159
O1B O 0.68847 -0.17296 0.59129
O4B O 0.67941 -0.1751 0.35078
C4B C 0.60524 -0.05575 0.62225
H2B H 0.6456 -0.06846 0.69931
C7B C 0.65818 -0.15043 0.47167
C8B C 0.60389 -0.09175 0.48536
C9B C 0.54826 -0.07328 0.39095
H6B H 0.54303 -0.10317 0.28768
C11B C 0.55516 -0.00335 0.66294
H8B H 0.55665 0.0186 0.77091
C12B C 0.49827 -0.01785 0.43145
O2B O -0.18491 -0.16981 0.37271
O3B O -0.18445 -0.1709 0.6119
C1B C -0.15819 -0.14783 0.49631
C2B C -0.10037 -0.09762 0.51419
C3B C -0.0668 -0.06204 0.40107
H1B H -0.08322 -0.07594 0.29147
C5B C 0.02224 0.02555 0.31817
H3B H 0.00714 0.01155 0.20905
C6B C -0.01163 -0.00879 0.42908
C10B C -0.07688 -0.07689 0.65432
H7B H -0.1013 -0.10046 0.744
H4C H 0.33828 0.19707 0.14422
H5C H 0.34104 0.3034 -0.10508
C13C C 0.2111 0.32227 0.08085
H9C H 0.23459 0.37858 0.1247
H10C H 0.15982 0.32502 0.11061
C14C C 0.2121 0.32186 -0.09035
H11C H 0.16082 0.3232 -0.13672
H12C H 0.23456 0.37855 -0.12764
O1C O 0.31153 0.32704 0.40871
O2C O 0.18491 0.33019 0.62729
O3C O 0.18445 0.3291 0.3881
O4C O 0.32059 0.3249 0.64922
Ni1_2 Ni 0.25177 0.250 -0.36275
Ni1A Ni -0.25177 -0.250 0.36275
Ni1A_2 Ni 0.74823 -0.250 0.36275
Ni2A Ni -0.25009 -0.250 0.60763
Ni2A_2 Ni 0.74991 -0.250 0.60763
N1_2 N 0.2465 0.250 0.85199
C17 C -1.53185 -0.35473 -0.38991
C18 C -1.4778 -0.33136 -0.31539
H13 H -1.5357 -0.34724 -0.5041
H14 H -1.57293 -0.37887 -0.33675
H15 H -1.43714 -0.30653 -0.36984
H16 H -1.47448 -0.33816 -0.20024
C19 C -0.6635 -0.17006 0.05283
C20 C -0.60227 -0.14924 0.09059
H17 H -0.69579 -0.1862 0.1333
H18 H -0.68083 -0.1721 -0.05888
H19 H -0.58615 -0.14395 0.20275
H20 H -0.56876 -0.13577 0.00912
C21 C -0.88986 0.01416 -0.97829
C22 C -0.8437 -0.04212 -0.95151
H21 H -0.87729 0.0728 -1.01942
H22 H -0.9405 0.00242 -0.95865
H23 H -0.79276 -0.02981 -0.96666
H24 H -0.85669 -0.10134 -0.91332
C23 C -0.57917 0.07992 -0.01326
C24 C -0.61329 0.05482 -0.13009
H25 H -0.59683 0.1297 0.04736
H26 H -0.53316 0.05172 0.01992
H27 H -0.66088 0.08021 -0.16028
H28 H -0.59503 0.00652 -0.1935
C25 C -1.01913 -0.16177 -0.04695
C26 C -0.96748 -0.15817 -0.12403
H29 H -1.01577 -0.14387 0.0649
H30 H -1.06498 -0.18341 -0.09649
H31 H -0.92017 -0.14071 -0.07401
H32 H -0.97217 -0.17618 -0.23576
C27 C -0.32372 0.17251 -0.55889
C28 C -0.265 0.17205 -0.48955
H33 H -0.36636 0.18347 -0.50005
H34 H -0.32865 0.1637 -0.67382
H35 H -0.26032 0.18418 -0.37546
H36 H -0.2214 0.16537 -0.5476
C29 C 1.23878 0.48098 0.28528
C30 C 1.25469 0.50653 0.41703
H37 H 1.2739 0.48634 0.20527
H38 H 1.19155 0.45354 0.25814
H39 H 1.30215 0.53227 0.44288
H40 H 1.22083 0.50076 0.49995
C31 C 1.10242 0.82985 0.41594
C32 C 1.03826 0.83606 0.39013
H41 H 1.13421 0.83992 0.33055
H42 H 1.12242 0.81355 0.52254
H43 H 1.01818 0.85477 0.28597
H44 H 1.00626 0.82392 0.47486
C33 C 1.17129 0.93895 0.74766
C34 C 1.18291 0.86442 0.79393
H45 H 1.13575 0.95047 0.6585
H46 H 1.19791 0.98834 0.80057
H47 H 1.1597 0.81279 0.74105
H48 H 1.21642 0.85531 0.88685
loop_
_geom_bond_atom_site_label_1
_geom_bond_atom_site_label_2
_geom_bond_site_symmetry_1
_geom_bond_site_symmetry_2
O1 C7 1_555 1_555
O2 C1 1_555 1_555
O3 C1 1_555 1_555
O4 C7 1_555 1_555
C1 C2 1_555 1_555
C2 C3 1_555 1_555
C3 H1 1_555 1_555
C4 H2 1_555 1_555
C5 H3 1_555 1_555
C6 C3 1_555 1_555
H4 C15 1_555 1_555
H5 C16 1_555 1_555
C7 C8 1_555 1_555
C8 C4 1_555 1_555
C9 C8 1_555 1_555
H6 C9 1_555 1_555
C10 C2 1_555 1_555
H7 C10 1_555 1_555
C11 C4 1_555 1_555
H8 C11 1_555 1_555
C12 C9 1_555 1_555
C13 H9 1_555 1_555
H10 C13 1_555 1_555
C14 C13 1_555 1_555
H11 C14 1_555 1_555
H12 C14 1_555 1_555
Ni1 O2 1_555 1_555
Ni2 O1 1_555 1_555
N1 C14 1_555 1_555
N2 C13 1_555 1_555
C15 N2 1_555 1_555
C16 N1 1_555 1_555
C17 C18 1_555 1_555
C18 H15 1_555 1_555
H13 C17 1_555 1_555
H14 C17 1_555 1_555
H16 C18 1_555 1_555
C19 C20 1_555 1_555
C20 H19 1_555 1_555
H17 C19 1_555 1_555
H18 C19 1_555 1_555
H20 C20 1_555 1_555
C21 C22 1_555 1_555
C22 H23 1_555 1_555
H21 C21 1_555 1_555
H22 C21 1_555 1_555
H24 C22 1_555 1_555
C23 C24 1_555 1_555
C24 H27 1_555 1_555
H25 C23 1_555 1_555
H26 C23 1_555 1_555
H28 C24 1_555 1_555
C25 C26 1_555 1_555
C26 H31 1_555 1_555
H29 C25 1_555 1_555
H30 C25 1_555 1_555
H32 C26 1_555 1_555
C27 C28 1_555 1_555
C28 H35 1_555 1_555
H33 C27 1_555 1_555
H34 C27 1_555 1_555
H36 C28 1_555 1_555
C29 C30 1_555 1_555
C30 H39 1_555 1_555
H37 C29 1_555 1_555
H38 C29 1_555 1_555
H40 C30 1_555 1_555
C31 C32 1_555 1_555
C32 H43 1_555 1_555
H41 C31 1_555 1_555
H42 C31 1_555 1_555
H44 C32 1_555 1_555
C33 C34 1_555 1_555
C34 H47 1_555 1_555
H45 C33 1_555 1_555
H46 C33 1_555 1_555
H48 C34 1_555 1_555
O1B C7B 1_555 1_555
O4B C7B 1_555 1_555
C4B H2B 1_555 1_555
C7B C8B 1_555 1_555
C8B C4B 1_555 1_555
C9B C8B 1_555 1_555
H6B C9B 1_555 1_555
C11B C12 1_555 1_555
H8B C11B 1_555 1_555
C12B C11 1_555 1_555
O2B C1B 1_555 1_555
O3B C1B 1_555 1_555
C1B C2B 1_555 1_555
C2B C3B 1_555 1_555
C3B H1B 1_555 1_555
C5B C10 1_555 1_555
H3B C5B 1_555 1_555
C6B C6 1_555 1_555
C10B C5 1_555 1_555
H7B C10B 1_555 1_555
H4C C15 1_555 1_555
H5C C16 1_555 1_555
C13C N2 1_555 1_555
H9C C13C 1_555 1_555
H10C C13C 1_555 1_555
C14C N1 1_555 1_555
H11C C14C 1_555 1_555
H12C C14C 1_555 1_555
O1C Ni2 1_555 1_555
O2C Ni1 1_555 1_555
O3C Ni2 1_555 1_555
O4C Ni1 1_555 1_555
Ni1_2 N1 1_555 1_555
Ni1A O2B 1_555 1_555
Ni1A_2 O4B 1_555 1_555
Ni2A O3B 1_555 1_555
Ni2A_2 O1B 1_555 1_555
N1_2 Ni1 1_555 1_555
O3 Ni2 1_555 1_555
O4 Ni1 1_555 1_555
C5 C6 1_555 1_555
C12 C12B 1_555 1_555
Ni2 N2 1_555 1_555
C15 C16 1_555 1_555
C4B C11B 1_555 1_555
C9B C12B 1_555 1_555
C2B C10B 1_555 1_555
C3B C6B 1_555 1_555
C5B C6B 1_555 1_555
C13C C14C 1_555 1_555

#END
