
#######################################################################
#
#                 Cambridge Crystallographic Data Centre
#                                CCDC 
#
#######################################################################
#
# If this CIF has been generated from an entry in the Cambridge 
# Structural Database, then it will include bibliographic, chemical, 
# crystal, experimental, refinement or atomic coordinate data resulting 
# from the CCDC's data processing and validation procedures.
#
#######################################################################

data_VUKSAX
_symmetry_cell_setting           monoclinic
_symmetry_space_group_name_H-M   'P 21/m'
_symmetry_Int_Tables_number      11
_space_group_name_Hall           '-P 2yb'
loop_
_symmetry_equiv_pos_site_id
_symmetry_equiv_pos_as_xyz
1 x,y,z
2 -x,1/2+y,-z
3 -x,-y,-z
4 x,1/2-y,z
_cell_length_a                   18.6569
_cell_length_b                   18.7359
_cell_length_c                   9.4331
_cell_angle_alpha                90
_cell_angle_beta                 94.4243
_cell_angle_gamma                90
_cell_volume                     3287.55
loop_
_atom_site_label
_atom_site_type_symbol
_atom_site_fract_x
_atom_site_fract_y
_atom_site_fract_z
O1 O 0.32222 0.17891 0.39185
O2 O 0.17308 0.17423 0.60421
O3 O 0.18425 0.17502 0.36879
O4 O 0.30364 0.17346 0.62489
C1 C 0.1535 0.15029 0.47794
C2 C 0.09756 0.09838 0.46894
C3 C 0.05618 0.07613 0.58229
H1 H 0.06358 0.10361 0.68356
C4 C 0.4176 0.05685 0.67237
H2 H 0.39318 0.07283 0.76765
C5 C -0.03719 -0.00239 0.67601
H3 H -0.03204 0.02589 0.77625
C6 C 0.0048 0.01872 0.56514
H4 H 0.35023 0.29726 0.10768
H5 H 0.34964 0.20273 -0.13948
C7 C 0.33499 0.14871 0.5158
C8 C 0.39103 0.08547 0.53988
C9 C 0.42587 0.06088 0.4192
H6 H 0.40555 0.07921 0.31534
C10 C 0.08622 0.06015 0.34006
H7 H 0.11609 0.07476 0.25052
C11 C 0.47656 0.00876 0.68593
H8 H 0.49414 -0.01079 0.79079
C12 C 0.48699 0.01308 0.43261
C13 C 0.20885 0.18669 0.04911
H9 H 0.23438 0.13682 0.09233
H10 H 0.15215 0.18492 0.07849
C14 C 0.20782 0.18694 -0.12184
H11 H 0.15061 0.18568 -0.16621
H12 H 0.23222 0.13721 -0.1599
Ni1 Ni 0.23755 0.250 0.61872
Ni2 Ni 0.25551 0.250 0.34987
N1 N 0.24503 0.250 -0.18054
N2 N 0.24617 0.250 0.1185
C15 C 0.31977 0.250 0.06489
C16 C 0.3192 0.250 -0.1058
O1B O 0.67778 -0.17891 0.60815
O4B O 0.69636 -0.17346 0.37511
C4B C 0.5824 -0.05685 0.32763
H2B H 0.60682 -0.07283 0.23235
C7B C 0.66501 -0.14871 0.4842
C8B C 0.60897 -0.08547 0.46012
C9B C 0.57413 -0.06088 0.5808
H6B H 0.59445 -0.07921 0.68466
C11B C 0.52344 -0.00876 0.31407
H8B H 0.50586 0.01079 0.20921
C12B C 0.51301 -0.01308 0.56739
O2B O -0.17308 -0.17423 0.39579
O3B O -0.18425 -0.17502 0.63121
C1B C -0.1535 -0.15029 0.52206
C2B C -0.09756 -0.09838 0.53106
C3B C -0.05618 -0.07613 0.41771
H1B H -0.06358 -0.10361 0.31644
C5B C 0.03719 0.00239 0.32399
H3B H 0.03204 -0.02589 0.22375
C6B C -0.0048 -0.01872 0.43486
C10B C -0.08622 -0.06015 0.65994
H7B H -0.11609 -0.07476 0.74948
H4C H 0.35023 0.20274 0.10768
H5C H 0.34964 0.29727 -0.13948
C13C C 0.20885 0.31331 0.04911
H9C H 0.23438 0.36318 0.09233
H10C H 0.15215 0.31508 0.07849
C14C C 0.20782 0.31306 -0.12184
H11C H 0.15061 0.31432 -0.16621
H12C H 0.23222 0.36279 -0.1599
O1C O 0.32222 0.32109 0.39185
O2C O 0.17308 0.32577 0.60421
O3C O 0.18425 0.32498 0.36879
O4C O 0.30364 0.32654 0.62489
Ni1_2 Ni 0.23755 0.250 -0.38128
Ni1A Ni -0.23755 -0.250 0.38128
Ni1A_2 Ni 0.76245 -0.250 0.38128
Ni2A Ni -0.25551 -0.250 0.65013
Ni2A_2 Ni 0.74449 -0.250 0.65013
N1_2 N 0.24503 0.250 0.81946
N3 N -0.11155 0.14146 -0.13434
N4 N -0.07417 0.1327 -0.03711
N5 N 0.11678 0.58766 0.54982
N6 N 0.11536 0.62674 0.63954
N7 N -0.00276 0.68967 0.58714
N8 N -0.02407 0.68317 0.6945
N9 N 0.23249 0.45727 0.29562
N10 N 0.20397 0.50952 0.30691
N11 N -0.52109 0.65696 -0.2643
N12 N -0.4709 0.65509 -0.19064
N13 N -0.79988 0.67234 -0.06892
N14 N -0.76841 0.6299 -0.00779
N15 N -0.39667 0.18401 -1.17342
N16 N -0.37197 0.18992 -1.06181
N17 N 0.26868 0.46434 -0.43383
N18 N 0.2922 0.5179 -0.45635
N19 N -0.23195 0.04181 -0.75327
N20 N -0.28555 0.02527 -0.80499
N21 N 0.53212 -0.19 0.38955
N22 N 0.53369 -0.18961 0.5087
N23 N -0.38437 0.34861 -0.52023
N24 N -0.38421 0.38025 -0.41925
N25 N 0.09124 0.44608 0.01386
N26 N 0.08125 0.45886 -0.10235
N27 N 0.35407 0.40285 0.10021
N28 N 0.3706 0.38514 -0.0063
N29 N 0.5379 0.44985 -0.04429
N30 N 0.59077 0.46084 0.01681
N31 N 0.75432 0.32294 -0.36615
N32 N 0.74134 0.34845 -0.26351
loop_
_geom_bond_atom_site_label_1
_geom_bond_atom_site_label_2
_geom_bond_site_symmetry_1
_geom_bond_site_symmetry_2
O1 C7 1_555 1_555
O2 C1 1_555 1_555
O3 C1 1_555 1_555
O4 C7 1_555 1_555
C1 C2 1_555 1_555
C2 C3 1_555 1_555
C3 H1 1_555 1_555
C4 H2 1_555 1_555
C5 H3 1_555 1_555
C6 C3 1_555 1_555
H4 C15 1_555 1_555
H5 C16 1_555 1_555
C7 C8 1_555 1_555
C8 C4 1_555 1_555
C9 C8 1_555 1_555
H6 C9 1_555 1_555
C10 C2 1_555 1_555
H7 C10 1_555 1_555
C11 C4 1_555 1_555
H8 C11 1_555 1_555
C12 C9 1_555 1_555
C13 H9 1_555 1_555
H10 C13 1_555 1_555
C14 C13 1_555 1_555
H11 C14 1_555 1_555
H12 C14 1_555 1_555
Ni1 O2 1_555 1_555
Ni2 O1 1_555 1_555
N1 C14 1_555 1_555
N2 C13 1_555 1_555
C15 N2 1_555 1_555
C16 N1 1_555 1_555
N3 N4 1_555 1_555
N5 N6 1_555 1_555
N7 N8 1_555 1_555
N9 N10 1_555 1_555
N11 N12 1_555 1_555
N13 N14 1_555 1_555
N15 N16 1_555 1_555
N17 N18 1_555 1_555
N19 N20 1_555 1_555
N21 N22 1_555 1_555
N23 N24 1_555 1_555
N25 N26 1_555 1_555
N27 N28 1_555 1_555
N29 N30 1_555 1_555
N31 N32 1_555 1_555
O1B C7B 1_555 1_555
O4B C7B 1_555 1_555
C4B H2B 1_555 1_555
C7B C8B 1_555 1_555
C8B C4B 1_555 1_555
C9B C8B 1_555 1_555
H6B C9B 1_555 1_555
C11B C12 1_555 1_555
H8B C11B 1_555 1_555
C12B C11 1_555 1_555
O2B C1B 1_555 1_555
O3B C1B 1_555 1_555
C1B C2B 1_555 1_555
C2B C3B 1_555 1_555
C3B H1B 1_555 1_555
C5B C10 1_555 1_555
H3B C5B 1_555 1_555
C6B C6 1_555 1_555
C10B C5 1_555 1_555
H7B C10B 1_555 1_555
H4C C15 1_555 1_555
H5C C16 1_555 1_555
C13C N2 1_555 1_555
H9C C13C 1_555 1_555
H10C C13C 1_555 1_555
C14C N1 1_555 1_555
H11C C14C 1_555 1_555
H12C C14C 1_555 1_555
O1C Ni2 1_555 1_555
O2C Ni1 1_555 1_555
O3C Ni2 1_555 1_555
O4C Ni1 1_555 1_555
Ni1_2 N1 1_555 1_555
Ni1A O2B 1_555 1_555
Ni1A_2 O4B 1_555 1_555
Ni2A O3B 1_555 1_555
Ni2A_2 O1B 1_555 1_555
N1_2 Ni1 1_555 1_555
O3 Ni2 1_555 1_555
O4 Ni1 1_555 1_555
C5 C6 1_555 1_555
C12 C12B 1_555 1_555
Ni2 N2 1_555 1_555
C15 C16 1_555 1_555
C4B C11B 1_555 1_555
C9B C12B 1_555 1_555
C2B C10B 1_555 1_555
C3B C6B 1_555 1_555
C5B C6B 1_555 1_555
C13C C14C 1_555 1_555

#END
