
#######################################################################
#
#                 Cambridge Crystallographic Data Centre
#                                CCDC 
#
#######################################################################
#
# If this CIF has been generated from an entry in the Cambridge 
# Structural Database, then it will include bibliographic, chemical, 
# crystal, experimental, refinement or atomic coordinate data resulting 
# from the CCDC's data processing and validation procedures.
#
#######################################################################

data_VULRAW
_symmetry_cell_setting           triclinic
_symmetry_space_group_name_H-M   'P -1'
_symmetry_Int_Tables_number      2
_space_group_name_Hall           '-P 1'
loop_
_symmetry_equiv_pos_site_id
_symmetry_equiv_pos_as_xyz
1 x,y,z
2 -x,-y,-z
_cell_length_a                   7.223(3)
_cell_length_b                   15.375(8)
_cell_length_c                   16.003(8)
_cell_angle_alpha                95.349(18)
_cell_angle_beta                 96.740(13)
_cell_angle_gamma                98.175(11)
_cell_volume                     1736.02
loop_
_atom_site_label
_atom_site_type_symbol
_atom_site_fract_x
_atom_site_fract_y
_atom_site_fract_z
Cu1 Cu -0.74550(7) -0.20890(3) -0.28433(3)
Cu2 Cu 0.10402(8) 0.13942(3) 0.21535(3)
Cu3 Cu -0.75371(8) -0.36154(3) -0.14701(3)
Cu4 Cu 0.39892(8) 0.29026(3) 0.35277(3)
N1 N 1.1087(5) 0.6101(2) 0.7387(2)
N2 N 1.0987(5) 0.6737(2) 0.6862(2)
N3 N 0.3149(5) 0.3183(2) 0.2395(2)
N4 N -0.6112(5) -0.2410(2) -0.1156(2)
N5 N 0.1889(5) 0.2592(2) 0.1860(2)
N6 N -0.5950(5) -0.1823(2) -0.1725(2)
C1 C 0.2520(6) 0.0561(3) 0.4427(2)
N7 N 0.3018(5) 0.1731(2) 0.3844(2)
C2 C -0.2408(6) 0.0223(3) -0.0085(3)
H1 H -0.2757 0.0408 -0.0610
N8 N 0.9853(5) 0.6407(2) 0.6143(2)
N9 N 0.2481(5) 0.5555(2) -0.0611(2)
N10 N 0.5726(5) 0.3716(2) 0.4383(2)
C3 C -0.3035(5) -0.0636(3) 0.0076(2)
C4 C -0.4282(6) -0.1270(3) -0.0577(2)
N11 N 0.3352(5) 0.1402(2) 0.4588(2)
C5 C 0.1595(6) 0.4712(3) -0.0787(3)
H2 H 0.0967 0.4528 -0.1329
C6 C 0.3367(6) 0.5801(3) 0.0187(3)
H3 H 0.3989 0.6378 0.0322
C7 C 0.9273(6) 0.5570(3) 0.6262(2)
C8 C 0.7416(6) 0.4075(3) 0.5785(3)
H4 H 0.7771 0.3891 0.6309
N12 N 0.2023(5) 0.1095(2) 0.3269(2)
N13 N -0.0721(5) 0.0569(2) 0.1312(2)
C9 C -0.1344(6) -0.0264(3) 0.1467(3)
H5 H -0.0996 -0.0432 0.2000
N14 N 0.1697(5) 0.0341(2) 0.3626(2)
C10 C 0.8049(5) 0.4933(2) 0.5620(2)
C11 C -0.1265(6) 0.0797(3) 0.0540(2)
H6 H -0.0850 0.1368 0.0424
N15 N 1.0002(5) 0.5351(2) 0.7016(2)
C12 C 0.6254(6) 0.3499(3) 0.5161(3)
H7 H 0.5816 0.2934 0.5286
N16 N -0.5068(5) -0.2064(2) -0.0422(2)
C13 C 0.2505(6) -0.0062(2) 0.5069(2)
N17 N -0.4784(5) -0.1087(2) -0.1371(2)
C14 C 0.3397(6) 0.5242(3) 0.0807(3)
H8 H 0.4018 0.5444 0.1348
C15 C 0.6347(6) 0.4556(3) 0.4225(2)
H9 H 0.5975 0.4726 0.3696
C16 C 0.7495(6) 0.5156(3) 0.4812(3)
H10 H 0.7912 0.5718 0.4674
C17 C 0.1586(6) -0.0934(3) 0.4886(3)
H11 H 0.0954 -0.1133 0.4347
C18 C 0.1579(6) 0.4116(3) -0.0203(3)
H12 H 0.0961 0.3540 -0.0356
C19 C -0.2479(6) -0.0878(3) 0.0864(3)
H13 H -0.2863 -0.1449 0.0990
C20 C 0.3404(6) 0.0191(3) 0.5896(3)
H14 H 0.4017 0.0767 0.6051
N18 N 0.3566(5) 0.3925(2) 0.2018(2)
N19 N 0.1447(5) 0.2943(2) 0.1133(2)
N20 N 0.2484(5) -0.1248(2) 0.6304(2)
C21 C 0.2483(6) 0.4366(2) 0.0620(2)
C22 C 0.3385(6) -0.0412(3) 0.6488(3)
H15 H 0.4017 -0.0232 0.7030
C23 C 0.2502(5) 0.3741(2) 0.1263(2)
C24 C 0.1617(6) -0.1502(3) 0.5513(3)
H16 H 0.1012 -0.2083 0.5378
Cu1_2 Cu 0.25450(7) -0.20890(3) 0.71567(3)
Cu1_3 Cu 1.25450(7) 0.79110(3) 0.71567(3)
Cu3_2 Cu 0.24629(8) 0.63846(3) -0.14701(3)
Cu3_3 Cu 1.24629(8) 0.63846(3) 0.85299(3)
N1_2 N -0.8913(5) -0.3899(2) -0.2613(2)
N2_2 N -0.9013(5) -0.3263(2) -0.3138(2)
N9_2 N -0.7519(5) -0.4445(2) -0.0611(2)
N20_2 N -0.7516(5) -0.1248(2) -0.3696(2)
O1 O -0.825(2) -1.1500(10) 0.2730(9)
H17 H -0.8040 -1.1069 0.3089
C25 C -0.685(2) -1.1421(12) 0.2158(12)
H18 H -0.5606 -1.1454 0.2439
H19 H -0.6825 -1.0876 0.1896
C26 C -0.7628(18) -1.2252(9) 0.1499(9)
H20 H -0.6788 -1.2295 0.1080
H21 H -0.8857 -1.2195 0.1229
H22 H -0.7712 -1.2776 0.1785
C27 C -0.698(5) -0.674(2) -0.271(2)
H23 H -0.6325 -0.6168 -0.2807
H24 H -0.6444 -0.6952 -0.2202
C28 C -0.748(3) -0.7418(14) -0.3489(14)
H25 H -0.6360 -0.7641 -0.3623
H26 H -0.8003 -0.7147 -0.3959
H27 H -0.8385 -0.7897 -0.3374
O2 O -0.853(4) -0.681(2) -0.282(2)
H28 H -0.8882 -0.6416 -0.2525
loop_
_geom_bond_atom_site_label_1
_geom_bond_atom_site_label_2
_geom_bond_site_symmetry_1
_geom_bond_site_symmetry_2
Cu1 N6 1_555 1_555
Cu2 N5 1_555 1_555
Cu3 N4 1_555 1_555
Cu4 N3 1_555 1_555
N1 N2 1_555 1_555
N2 N8 1_555 1_555
N3 N5 1_555 1_555
N4 N6 1_555 1_555
N5 N19 1_555 1_555
N6 N17 1_555 1_555
C1 N11 1_555 1_555
N7 Cu4 1_555 1_555
C2 H1 1_555 1_555
N8 C7 1_555 1_555
N9 C5 1_555 1_555
N10 Cu4 1_555 1_555
C3 C2 1_555 1_555
C4 C3 1_555 1_555
N11 N7 1_555 1_555
C5 H2 1_555 1_555
C6 N9 1_555 1_555
H3 C6 1_555 1_555
C7 C10 1_555 1_555
C8 H4 1_555 1_555
N12 Cu2 1_555 1_555
N13 Cu2 1_555 1_555
C9 N13 1_555 1_555
H5 C9 1_555 1_555
N14 C1 1_555 1_555
C10 C8 1_555 1_555
C11 C2 1_555 1_555
H6 C11 1_555 1_555
N15 N1 1_555 1_555
C12 N10 1_555 1_555
H7 C12 1_555 1_555
N16 N4 1_555 1_555
C13 C1 1_555 1_555
N17 C4 1_555 1_555
C14 C6 1_555 1_555
H8 C14 1_555 1_555
C15 N10 1_555 1_555
H9 C15 1_555 1_555
C16 C10 1_555 1_555
H10 C16 1_555 1_555
C17 C13 1_555 1_555
H11 C17 1_555 1_555
C18 C5 1_555 1_555
H12 C18 1_555 1_555
C19 C3 1_555 1_555
H13 C19 1_555 1_555
C20 C13 1_555 1_555
H14 C20 1_555 1_555
N18 N3 1_555 1_555
N19 C23 1_555 1_555
N20 C22 1_555 1_555
C21 C14 1_555 1_555
C22 C20 1_555 1_555
H15 C22 1_555 1_555
C23 N18 1_555 1_555
C24 C17 1_555 1_555
H16 C24 1_555 1_555
O1 H17 1_555 1_555
C25 O1 1_555 1_555
H18 C25 1_555 1_555
H19 C25 1_555 1_555
C26 C25 1_555 1_555
H20 C26 1_555 1_555
H21 C26 1_555 1_555
H22 C26 1_555 1_555
C27 H23 1_555 1_555
H24 C27 1_555 1_555
C28 C27 1_555 1_555
H25 C28 1_555 1_555
H26 C28 1_555 1_555
H27 C28 1_555 1_555
O2 C27 1_555 1_555
H28 O2 1_555 1_555
Cu1_2 N20 1_555 1_555
Cu1_3 N2 1_555 1_555
Cu3_2 N9 1_555 1_555
Cu3_3 N1 1_555 1_555
N1_2 Cu3 1_555 1_555
N2_2 Cu1 1_555 1_555
N9_2 Cu3 1_555 1_555
N20_2 Cu1 1_555 1_555
N7 N12 1_555 1_555
C4 N16 1_555 1_555
C7 N15 1_555 1_555
C8 C12 1_555 1_555
N12 N14 1_555 1_555
N13 C11 1_555 1_555
C9 C19 1_555 1_555
C15 C16 1_555 1_555
C18 C21 1_555 1_555
N20 C24 1_555 1_555
C21 C23 1_555 1_555
N1_2 N2_2 1_555 1_555

#END
