
#######################################################################
#
#                 Cambridge Crystallographic Data Centre
#                                CCDC 
#
#######################################################################
#
# If this CIF has been generated from an entry in the Cambridge 
# Structural Database, then it will include bibliographic, chemical, 
# crystal, experimental, refinement or atomic coordinate data resulting 
# from the CCDC's data processing and validation procedures.
#
#######################################################################

data_VUNYUZ
_symmetry_cell_setting           cubic
_symmetry_space_group_name_H-M   'P a -3'
_symmetry_Int_Tables_number      205
_space_group_name_Hall           '-P 2ac 2ab 3'
loop_
_symmetry_equiv_pos_site_id
_symmetry_equiv_pos_as_xyz
1 x,y,z
2 1/2-x,-y,1/2+z
3 -x,1/2+y,1/2-z
4 1/2+x,1/2-y,-z
5 z,x,y
6 1/2+z,1/2-x,-y
7 1/2-z,-x,1/2+y
8 -z,1/2+x,1/2-y
9 y,z,x
10 -y,1/2+z,1/2-x
11 1/2+y,1/2-z,-x
12 1/2-y,-z,1/2+x
13 -x,-y,-z
14 1/2+x,y,1/2-z
15 x,1/2-y,1/2+z
16 1/2-x,1/2+y,z
17 -z,-x,-y
18 1/2-z,1/2+x,y
19 1/2+z,x,1/2-y
20 z,1/2-x,1/2+y
21 -y,-z,-x
22 y,1/2-z,1/2+x
23 1/2-y,1/2+z,x
24 1/2+y,z,1/2-x
_cell_length_a                   20.5223(6)
_cell_length_b                   20.5223(6)
_cell_length_c                   20.5223(6)
_cell_angle_alpha                90
_cell_angle_beta                 90
_cell_angle_gamma                90
_cell_volume                     8643.27
loop_
_atom_site_label
_atom_site_type_symbol
_atom_site_fract_x
_atom_site_fract_y
_atom_site_fract_z
Zn1 Zn -0.16283(2) -0.10087(2) 0.35798(2)
Zn2 Zn -0.27718(2) -0.00549(2) 0.43874(2)
C1 C -0.31638(18) -0.20876(18) 0.45842(19)
H1 H -0.3388 -0.1926 0.4973
C2 C -0.36616(17) -0.23550(18) 0.40930(18)
H2 H -0.3781 -0.2001 0.3795
C3 C -0.27830(18) -0.31038(18) 0.41242(18)
H3 H -0.2369 -0.3058 0.3891
C4 C -0.27624(18) -0.26881(18) 0.47525(18)
H4 H -0.3005 -0.2928 0.5086
C5 C -0.27876(18) -0.15341(19) 0.42564(19)
C6 C -0.29074(19) -0.38207(19) 0.42617(19)
C7 C -0.42865(19) -0.2629(2) 0.43889(19)
C8 C -0.20934(18) -0.2534(2) 0.50402(19)
O1 O -0.22765(14) -0.16639(13) 0.39549(14)
O2 O -0.30419(15) -0.09908(14) 0.42940(19)
O3 O -0.24543(14) -0.41045(14) 0.45696(16)
O4 O -0.34190(12) -0.40845(13) 0.40741(13)
O5 O -0.44776(13) -0.31826(14) 0.42039(13)
O6 O -0.45805(16) -0.22745(17) 0.47807(15)
O7 O -0.21053(14) -0.21397(14) 0.55090(14)
O8 O -0.15979(13) -0.28095(14) 0.48147(14)
O9 O -0.33076(12) -0.28392(12) 0.37258(12)
O10 O -0.3747(4) 0.0183(14) 0.4448(14)
H5 H -0.3942 -0.0011 0.4138
H6 H -0.3744 0.0585 0.4348
O11 O -0.17170(13) -0.03358(14) 0.43260(13)
H7 H -0.165(2) 0.007(2) 0.4310(6)
H8 H -0.1670(8) -0.045(2) 0.472(2)
Zn1E Zn -0.14202(2) -0.33717(2) 0.10087(2)
Zn1U Zn -0.10087(2) 0.14202(2) 0.33717(2)
Zn1K Zn -0.39913(2) -0.35798(2) 0.33717(2)
Zn1R Zn -0.14202(2) -0.16283(2) 0.60087(2)
Zn1T Zn 0.10087(2) -0.35798(2) 0.16283(2)
Zn1P Zn -0.35798(2) 0.16283(2) 0.10087(2)
Zn2E Zn -0.06126(2) -0.22282(2) 0.00549(2)
Zn2U Zn -0.00549(2) 0.06126(2) 0.22282(2)
Zn2O Zn -0.22282(2) -0.50549(2) 0.43874(2)
Zn2S Zn -0.56126(2) -0.22282(2) 0.49451(2)
Zn2R Zn -0.06126(2) -0.27718(2) 0.50549(2)
Zn2T Zn 0.00549(2) -0.43874(2) 0.27718(2)
Zn2J Zn -0.50549(2) 0.06126(2) 0.27718(2)
Zn2A Zn -0.22282(2) 0.00549(2) -0.06126(2)
C1E C -0.04158(19) -0.18362(18) 0.20876(18)
C1U C -0.20876(18) 0.04158(19) 0.18362(18)
H1E H -0.0027 -0.1612 0.1926
H1U H -0.1926 0.0027 0.1612
C2E C -0.09070(18) -0.13384(17) 0.23550(18)
C2U C -0.23550(18) 0.09070(18) 0.13384(17)
H2E H -0.1205 -0.1219 0.2001
H2U H -0.2001 0.1205 0.1219
C3E C -0.08758(18) -0.22170(18) 0.31038(18)
C3U C -0.31038(18) 0.08758(18) 0.22170(18)
H3E H -0.1109 -0.2631 0.3058
H3U H -0.3058 0.1109 0.2631
C4E C -0.02475(18) -0.22376(18) 0.26881(18)
C4U C -0.26881(18) 0.02475(18) 0.22376(18)
H4E H 0.0086 -0.1995 0.2928
H4U H -0.2928 -0.0086 0.1995
C5E C -0.07436(19) -0.22124(18) 0.15341(19)
C5U C -0.15341(19) 0.07436(19) 0.22124(18)
C6E C -0.07383(19) -0.20926(19) 0.38207(19)
C6U C -0.38207(19) 0.07383(19) 0.20926(19)
C7E C -0.06111(19) -0.07135(19) 0.2629(2)
C7U C -0.2629(2) 0.06111(19) 0.07135(19)
C8E C 0.00402(19) -0.29066(18) 0.2534(2)
C8U C -0.2534(2) -0.00402(19) 0.29066(18)
O1E O -0.10451(14) -0.27235(14) 0.16639(13)
O1U O -0.16639(13) 0.10451(14) 0.27235(14)
O2E O -0.07060(19) -0.19581(15) 0.09908(14)
O2U O -0.09908(14) 0.07060(19) 0.19581(15)
O3E O -0.04304(16) -0.25457(14) 0.41045(14)
O3U O -0.41045(14) 0.04304(16) 0.25457(14)
O3O O -0.25457(14) 0.08955(14) 0.45696(16)
O3R O -0.04304(16) -0.24543(14) -0.08955(14)
O3J O 0.08955(14) 0.04304(16) 0.24543(14)
O4E O -0.09259(13) -0.15810(12) 0.40845(13)
O4U O -0.40845(13) 0.09259(13) 0.15810(12)
O4K O -0.09155(13) -0.40741(13) 0.15810(12)
O4O O -0.15810(12) 0.09155(13) 0.40741(13)
O5E O -0.07961(13) -0.05224(13) 0.31826(14)
O5U O -0.31826(14) 0.07961(13) 0.05224(13)
O5K O -0.18174(14) -0.42039(13) 0.05224(13)
O5O O -0.05224(13) 0.18174(14) 0.42039(13)
O6E O -0.02193(15) -0.04195(16) 0.22745(17)
O6U O -0.22745(17) 0.02193(15) 0.04195(16)
O6V O -0.27255(17) -0.02193(15) 0.54195(16)
O6M O 0.04195(16) -0.22745(17) 0.02193(15)
O7E O 0.05090(14) -0.28947(14) 0.21397(14)
O7U O -0.21397(14) -0.05090(14) 0.28947(14)
O7N O -0.21053(14) -0.28603(14) 0.05090(14)
O7F O -0.05090(14) 0.21053(14) 0.28603(14)
O8E O -0.01853(14) -0.34021(13) 0.28095(14)
O8U O -0.28095(14) 0.01853(14) 0.34021(13)
O8N O -0.15979(13) -0.21905(14) -0.01853(14)
O8F O 0.01853(14) 0.15979(13) 0.21905(14)
O9E O -0.12742(12) -0.16924(12) 0.28392(12)
O9U O -0.28392(12) 0.12742(12) 0.16924(12)
O9K O -0.21608(12) -0.37258(12) 0.16924(12)
O9O O -0.16924(12) 0.21608(12) 0.37258(12)
O10E O -0.0552(14) -0.1253(4) -0.0183(14)
O10U O 0.0183(14) 0.0552(14) 0.1253(4)
H5E H -0.0862 -0.1058 0.0011
H5U H -0.0011 0.0862 0.1058
H6E H -0.0652 -0.1256 -0.0585
H6U H 0.0585 0.0652 0.1256
O11E O -0.06740(13) -0.32830(13) 0.03358(14)
O11U O -0.03358(14) 0.06740(13) 0.32830(13)
H7E H -0.0690(6) -0.335(2) -0.007(2)
H7U H 0.007(2) 0.0690(6) 0.335(2)
H8E H -0.028(2) -0.3330(8) 0.045(2)
H8U H -0.045(2) 0.028(2) 0.3330(8)
O12 O 0.3678(3) 0.8678(3) 0.6322(3)
H9? H 0.3321 0.8888 0.6330
H10? H 0.3939 0.8657 0.6001
H11? H 0.3964 -0.0318 0.5614
H12? H 0.3815 0.0313 0.5429
O13? O 0.3735(5) -0.0087(15) 0.5358(14)
loop_
_geom_bond_atom_site_label_1
_geom_bond_atom_site_label_2
_geom_bond_site_symmetry_1
_geom_bond_site_symmetry_2
Zn1 O1 1_555 1_555
Zn2 O2 1_555 1_555
C1 H1 1_555 1_555
C2 C1 1_555 1_555
H2 C2 1_555 1_555
C3 H3 1_555 1_555
C4 C1 1_555 1_555
H4 C4 1_555 1_555
C5 C1 1_555 1_555
C6 C3 1_555 1_555
C7 C2 1_555 1_555
C8 C4 1_555 1_555
O1 C5 1_555 1_555
O2 C5 1_555 1_555
O3 C6 1_555 1_555
O4 C6 1_555 1_555
O5 C7 1_555 1_555
O6 C7 1_555 1_555
O7 C8 1_555 1_555
O8 C8 1_555 1_555
O9 C2 1_555 1_555
O10 Zn2 1_555 1_555
H5 O10 1_555 1_555
H6 O10 1_555 1_555
O11 Zn1 1_555 1_555
H7 O11 1_555 1_555
H8 O11 1_555 1_555
Zn1E O1E 1_555 1_555
Zn1U O1U 1_555 1_555
Zn1K O4 1_555 1_555
Zn1R O7 1_555 1_555
Zn1T O7E 1_555 1_555
Zn1P O4U 1_555 1_555
Zn2E O2E 1_555 1_555
Zn2U O2U 1_555 1_555
Zn2O O3 1_555 1_555
Zn2S O6 1_555 1_555
Zn2R O8 1_555 1_555
Zn2T O8E 1_555 1_555
Zn2J O3U 1_555 1_555
Zn2A O6U 1_555 1_555
C1E H1E 1_555 1_555
C1U H1U 1_555 1_555
C2E C1E 1_555 1_555
C2U C1U 1_555 1_555
H2E C2E 1_555 1_555
H2U C2U 1_555 1_555
C3E H3E 1_555 1_555
C3U H3U 1_555 1_555
C4E C1E 1_555 1_555
C4U C1U 1_555 1_555
H4E C4E 1_555 1_555
H4U C4U 1_555 1_555
C5E C1E 1_555 1_555
C5U C1U 1_555 1_555
C6E C3E 1_555 1_555
C6U C3U 1_555 1_555
C7E C2E 1_555 1_555
C7U C2U 1_555 1_555
C8E C4E 1_555 1_555
C8U C4U 1_555 1_555
O1E C5E 1_555 1_555
O1U C5U 1_555 1_555
O2E C5E 1_555 1_555
O2U C5U 1_555 1_555
O3E Zn2R 1_555 1_555
O3U C6U 1_555 1_555
O3O Zn2 1_555 1_555
O3R Zn2E 1_555 1_555
O3J Zn2U 1_555 1_555
O4E Zn1 1_555 1_555
O4U C6U 1_555 1_555
O4K Zn1E 1_555 1_555
O4O Zn1U 1_555 1_555
O5E Zn1 1_555 1_555
O5U Zn1P 1_555 1_555
O5K Zn1E 1_555 1_555
O5O Zn1U 1_555 1_555
O6E Zn2U 1_555 1_555
O6U C7U 1_555 1_555
O6V Zn2 1_555 1_555
O6M Zn2E 1_555 1_555
O7E C8E 1_555 1_555
O7U Zn1 1_555 1_555
O7N Zn1E 1_555 1_555
O7F Zn1U 1_555 1_555
O8E C8E 1_555 1_555
O8U Zn2 1_555 1_555
O8N Zn2E 1_555 1_555
O8F Zn2U 1_555 1_555
O9E Zn1 1_555 1_555
O9U Zn1P 1_555 1_555
O9K Zn1E 1_555 1_555
O9O Zn1U 1_555 1_555
O10E Zn2E 1_555 1_555
O10U Zn2U 1_555 1_555
H5E O10E 1_555 1_555
H5U O10U 1_555 1_555
H6E O10E 1_555 1_555
H6U O10U 1_555 1_555
O11E Zn1E 1_555 1_555
O11U Zn1U 1_555 1_555
H7E O11E 1_555 1_555
H7U O11U 1_555 1_555
H8E O11E 1_555 1_555
H8U O11U 1_555 1_555
Zn2 O11 1_555 1_555
C3 C4 1_555 1_555
C3 O9 1_555 1_555
O5 Zn1K 1_555 1_555
O9 Zn1K 1_555 1_555
Zn2E O11E 1_555 1_555
Zn2U O11U 1_555 1_555
C2E O9E 1_555 1_555
C2U O9U 1_555 1_555
C3E C4E 1_555 1_555
C3E O9E 1_555 1_555
C3U C4U 1_555 1_555
C3U O9U 1_555 1_555
C6E O3E 1_555 1_555
C6E O4E 1_555 1_555
C7E O5E 1_555 1_555
C7E O6E 1_555 1_555
C7U O5U 1_555 1_555
C8U O7U 1_555 1_555
C8U O8U 1_555 1_555

#END
