
#######################################################################
#
#                 Cambridge Crystallographic Data Centre
#                                CCDC 
#
#######################################################################
#
# If this CIF has been generated from an entry in the Cambridge 
# Structural Database, then it will include bibliographic, chemical, 
# crystal, experimental, refinement or atomic coordinate data resulting 
# from the CCDC's data processing and validation procedures.
#
#######################################################################

data_VUQJUN01
_symmetry_cell_setting           triclinic
_symmetry_space_group_name_H-M   'P -1'
_symmetry_Int_Tables_number      2
_space_group_name_Hall           '-P 1'
loop_
_symmetry_equiv_pos_site_id
_symmetry_equiv_pos_as_xyz
1 x,y,z
2 -x,-y,-z
_cell_length_a                   13.819(3)
_cell_length_b                   15.382(3)
_cell_length_c                   24.383(5)
_cell_angle_alpha                100.41(3)
_cell_angle_beta                 95.25(3)
_cell_angle_gamma                101.09(3)
_cell_volume                     4959.46
loop_
_atom_site_label
_atom_site_type_symbol
_atom_site_fract_x
_atom_site_fract_y
_atom_site_fract_z
Mn1 Mn 0.82541(4) 0.35638(3) 0.67658(2)
Mn2 Mn 0.63215(4) 0.44381(3) 0.72615(2)
Mn3 Mn 0.39127(3) 0.34596(3) 0.67525(2)
Mn4 Mn 1.18134(4) 1.30157(4) 0.73739(3)
C1 C 0.8505(3) 0.6331(2) 0.67737(18)
C2 C 0.7753(4) 0.6787(3) 0.6841(3)
H1 H 0.7124 0.6475 0.6880
C3 C 0.7915(4) 0.7713(3) 0.6851(3)
H2 H 0.7393 0.8009 0.6902
C4 C 0.8815(3) 0.8194(3) 0.6789(2)
C5 C 0.9573(3) 0.7733(3) 0.6711(3)
H3 H 1.0196 0.8042 0.6660
C6 C 0.9414(4) 0.6818(3) 0.6707(3)
H4 H 0.9937 0.6523 0.6658
C7 C 0.8989(3) 0.9189(3) 0.6804(2)
C8 C 0.8240(4) 0.9581(3) 0.6628(3)
H5 H 0.7612 0.9224 0.6490
C9 C 0.8409(3) 1.0507(3) 0.6656(3)
H6 H 0.7886 1.0756 0.6535
C10 C 0.9312(3) 1.1066(2) 0.68519(18)
C11 C 1.0044(4) 1.0675(3) 0.7023(3)
H7 H 1.0673 1.1032 0.7158
C12 C 0.9881(4) 0.9747(3) 0.7004(4)
H8 H 1.0403 0.9504 0.7133
C13 C 0.8334(3) 0.5341(2) 0.67716(16)
C14 C 0.9471(3) 1.2075(2) 0.68729(17)
C15 C 0.8692(3) 0.4511(3) 0.86162(16)
C16 C 0.8373(4) 0.5036(5) 0.9055(2)
H9 H 0.7813 0.5274 0.8989
C17 C 0.8878(4) 0.5212(5) 0.9593(2)
H10 H 0.8636 0.5550 0.9885
C18 C 0.9730(4) 0.4901(4) 0.97110(18)
C19 C 1.0063(5) 0.4427(5) 0.9254(2)
H11 H 1.0658 0.4239 0.9309
C20 C 0.9548(4) 0.4226(5) 0.8728(2)
H12 H 0.9789 0.3884 0.8437
C21 C 0.8140(3) 0.4312(3) 0.80316(16)
C22 C 0.5655(2) 0.2068(2) 0.60053(14)
C23 C 0.4871(3) 0.1926(3) 0.55927(16)
H13 H 0.4506 0.2371 0.5573
C24 C 0.4621(3) 0.1115(3) 0.52019(17)
H14 H 0.4086 0.1027 0.4923
C25 C 0.5139(3) 0.0436(2) 0.52136(15)
C26 C 0.5939(3) 0.0606(3) 0.5631(2)
H15 H 0.6314 0.0167 0.5650
C27 C 0.6193(3) 0.1403(3) 0.60192(19)
H16 H 0.6735 0.1497 0.6295
C28 C 0.5917(2) 0.2915(2) 0.64480(13)
C29 C 0.4548(3) 0.4149(3) 0.85235(15)
C30 C 0.3793(3) 0.4264(4) 0.88277(18)
H17 H 0.3143 0.4118 0.8646
C31 C 0.3968(4) 0.4596(5) 0.94033(18)
H18 H 0.3433 0.4672 0.9598
C32 C 0.4901(3) 0.4815(4) 0.96910(17)
C33 C 0.5653(4) 0.4665(6) 0.9376(2)
H19 H 0.6300 0.4773 0.9557
C34 C 0.5483(4) 0.4366(6) 0.8807(2)
H20 H 0.6018 0.4309 0.8609
C35 C 0.4362(3) 0.3812(2) 0.79003(14)
C36 C 0.4513(3) 0.6454(3) 0.7111(2)
C37 C 0.3539(3) 0.6465(3) 0.6951(2)
H21 H 0.3065 0.5926 0.6858
C38 C 0.3257(4) 0.7276(3) 0.6925(3)
H22 H 0.2592 0.7275 0.6820
C39 C 0.3952(4) 0.8089(3) 0.7054(3)
C40 C 0.4936(4) 0.8077(3) 0.7246(4)
H23 H 0.5408 0.8617 0.7352
C41 C 0.5209(4) 0.7267(3) 0.7278(3)
H24 H 0.5861 0.7265 0.7412
C42 C 0.3662(4) 0.8957(3) 0.6996(3)
C43 C 0.2869(4) 0.9225(3) 0.7226(3)
H25 H 0.2465 0.8836 0.7403
C44 C 0.2657(4) 1.0061(3) 0.7201(3)
H26 H 0.2124 1.0232 0.7366
C45 C 0.3234(3) 1.0644(3) 0.6931(2)
C46 C 0.4009(4) 1.0365(3) 0.6693(3)
H27 H 0.4385 1.0735 0.6494
C47 C 0.4243(4) 0.9560(3) 0.6739(3)
H28 H 0.4804 0.9412 0.6595
C48 C 0.4829(3) 0.5567(3) 0.7112(2)
C49 C 0.3055(3) 1.1573(3) 0.69127(18)
C50 C 0.1608(3) 0.4025(3) 0.58039(17)
C51 C 0.1800(6) 0.4182(7) 0.5297(3)
H29 H 0.2366 0.4034 0.5158
C52 C 0.1174(6) 0.4564(8) 0.4969(3)
H30 H 0.1329 0.4666 0.4620
C53 C 0.0328(3) 0.4789(4) 0.51641(19)
C54 C 0.0171(4) 0.4650(4) 0.5687(2)
H31 H -0.0377 0.4817 0.5837
C55 C 0.0791(4) 0.4274(4) 0.6003(2)
H32 H 0.0649 0.4187 0.6357
C56 C 0.2311(3) 0.3643(3) 0.61483(18)
C57 C 0.8044(6) 0.2745(5) 0.5496(2)
H33 H 0.8417 0.2338 0.5591
C58 C 0.6966(10) 0.3070(11) 0.4803(4)
H34 H 0.6646 0.3259 0.5124
H35 H 0.6485 0.2662 0.4516
H36 H 0.7255 0.3589 0.4661
C59 C 0.7823(18) 0.1965(17) 0.4533(5)
H37 H 0.8332 0.2206 0.4325
H38 H 0.7211 0.1728 0.4284
H39 H 0.8018 0.1491 0.4694
C60 C 1.1183(5) 1.4813(5) 0.7761(4)
H40 H 1.0604 1.4595 0.7508
C61 C 1.2195(12) 1.6008(10) 0.8399(7)
H41 H 1.2042 1.5964 0.8771
H42 H 1.2453 1.6630 0.8389
H43 H 1.2683 1.5659 0.8303
C62 C 1.0673(10) 1.6235(8) 0.7913(7)
H44 H 1.0143 1.5900 0.7626
H45 H 1.1019 1.6753 0.7788
H46 H 1.0404 1.6431 0.8251
N1 N 0.7689(7) 0.2645(6) 0.4957(2)
N2 N 1.1339(7) 1.5680(4) 0.8018(4)
O1 O 0.7456(2) 0.49139(18) 0.67726(12)
O2 O 0.9045(2) 0.49520(18) 0.67647(13)
O3 O 0.8727(2) 1.23592(17) 0.67049(12)
O4 O 1.0291(2) 1.25672(19) 0.70540(18)
O5 O 0.7364(2) 0.4619(2) 0.79679(11)
O6 O 0.8509(2) 0.38747(19) 0.76508(10)
O7 O 0.66646(16) 0.30525(15) 0.68169(9)
O8 O 0.53753(16) 0.35040(14) 0.64584(9)
O9 O 0.50923(18) 0.37432(18) 0.76344(10)
O10 O 0.34916(18) 0.36086(19) 0.76569(10)
O11 O 0.4190(2) 0.48734(18) 0.68951(14)
O12 O 0.5702(2) 0.55861(18) 0.73113(15)
O13 O 0.3679(2) 1.20810(17) 0.67144(12)
O14 O 0.22976(19) 1.17793(18) 0.71195(14)
O15 O 0.3075(2) 0.3460(3) 0.59533(13)
O16 O 0.2147(2) 0.3570(2) 0.66452(12)
O17 O 0.7917(2) 0.3320(2) 0.58684(12)
O18 O 1.1667(3) 1.4307(3) 0.78123(19)
O19 O 1.1589(4) 1.2575(3) 0.81717(19)
C63 C 1.2115(10) 1.2383(11) 0.8572(5)
H47 H 1.2741 1.2249 0.8556
C64 C 1.0477(10) 1.2300(12) 0.9009(7)
H48 H 1.0189 1.1830 0.9194
H49 H 1.0223 1.2141 0.8616
H50 H 1.0309 1.2858 0.9174
C65 C 1.2074(11) 1.2804(11) 0.9636(6)
H51 H 1.2155 1.3450 0.9699
H52 H 1.2715 1.2651 0.9670
H53 H 1.1694 1.2574 0.9908
N3 N 1.1558(11) 1.2407(12) 0.9076(6)
Mn1_2 Mn 0.82541(4) -0.64362(3) 0.67658(2)
Mn1_3 Mn 0.82541(4) 1.35638(3) 0.67658(2)
Mn1A Mn 1.17459(4) 0.64362(3) 1.32342(2)
Mn1A_2 Mn 0.17459(4) -0.35638(3) 0.32342(2)
Mn2_2 Mn 0.63215(4) -0.55619(3) 0.72615(2)
Mn2A Mn 1.36785(4) 0.55619(3) 1.27385(2)
Mn2A_2 Mn 0.36785(4) -0.44381(3) 0.27385(2)
Mn2A_3 Mn 0.36785(4) 0.55619(3) 1.27385(2)
Mn3A Mn 0.60873(3) -0.34596(3) 0.32475(2)
Mn3_2 Mn 0.39127(3) 1.34596(3) 0.67525(2)
Mn3A_2 Mn 0.60873(3) 0.65404(3) 1.32475(2)
Mn3A_3 Mn -0.39127(3) 0.65404(3) 0.32475(2)
Mn3_3 Mn 0.39127(3) -0.65404(3) 0.67525(2)
Mn4_2 Mn 1.18134(4) 0.30157(4) 0.73739(3)
Mn4_3 Mn 0.18134(4) 0.30157(4) 0.73739(3)
Mn4_4 Mn 0.18134(4) 1.30157(4) 0.73739(3)
Mn4A Mn 0.81866(4) 0.69843(4) 1.26261(3)
Mn4A_2 Mn -0.18134(4) 0.69843(4) 0.26261(3)
C1_2 C 0.8505(3) -0.3669(2) 0.67737(18)
C2_2 C 0.7753(4) -0.3213(3) 0.6841(3)
H1_2 H 0.7124 -0.3525 0.6880
C3_2 C 0.7915(4) -0.2287(3) 0.6851(3)
H2_2 H 0.7393 -0.1991 0.6902
C4_2 C 0.8815(3) -0.1806(3) 0.6789(2)
C5_2 C 0.9573(3) -0.2267(3) 0.6711(3)
H3_2 H 1.0196 -0.1958 0.6660
C6_2 C 0.9414(4) -0.3182(3) 0.6707(3)
H4_2 H 0.9937 -0.3477 0.6658
C7_2 C 0.8989(3) -0.0811(3) 0.6804(2)
C8_2 C 0.8240(4) -0.0419(3) 0.6628(3)
H5_2 H 0.7612 -0.0776 0.6490
C9_2 C 0.8409(3) 0.0507(3) 0.6656(3)
H6_2 H 0.7886 0.0756 0.6535
C10_2 C 0.9312(3) 0.1066(2) 0.68519(18)
C11_2 C 1.0044(4) 0.0675(3) 0.7023(3)
H7_2 H 1.0673 0.1032 0.7158
C12_2 C 0.9881(4) -0.0253(3) 0.7004(4)
H8_2 H 1.0403 -0.0496 0.7133
C13_2 C 0.8334(3) -0.4659(2) 0.67716(16)
C14_2 C 0.9471(3) 0.2075(2) 0.68729(17)
C15A C 1.1308(3) 0.5489(3) 1.13838(16)
C16A C 1.1627(4) 0.4964(5) 1.0945(2)
H9A H 1.2187 0.4726 1.1011
C17A C 1.1122(4) 0.4788(5) 1.0407(2)
H10A H 1.1364 0.4450 1.0115
C18A C 1.0270(4) 0.5099(4) 1.02890(18)
C19A C 0.9937(5) 0.5573(5) 1.0746(2)
H11A H 0.9342 0.5761 1.0691
C20A C 1.0452(4) 0.5774(5) 1.1272(2)
H12A H 1.0211 0.6116 1.1563
C21A C 1.1860(3) 0.5688(3) 1.19684(16)
C22A C 0.4345(2) -0.2068(2) 0.39947(14)
C23A C 0.5129(3) -0.1926(3) 0.44073(16)
H13A H 0.5494 -0.2371 0.4427
C24A C 0.5379(3) -0.1115(3) 0.47981(17)
H14A H 0.5914 -0.1027 0.5077
C25A C 0.4861(3) -0.0436(2) 0.47864(15)
C26A C 0.4061(3) -0.0606(3) 0.4369(2)
H15A H 0.3686 -0.0167 0.4350
C27A C 0.3807(3) -0.1403(3) 0.39808(19)
H16A H 0.3265 -0.1497 0.3705
C28A C 0.4083(2) -0.2915(2) 0.35520(13)
C29A C 0.5452(3) 0.5851(3) 1.14765(15)
C30A C 0.6207(3) 0.5736(4) 1.11723(18)
H17A H 0.6857 0.5882 1.1354
C31A C 0.6032(4) 0.5404(5) 1.05967(18)
H18A H 0.6567 0.5328 1.0402
C32A C 0.5099(3) 0.5185(4) 1.03090(17)
C33A C 0.4347(4) 0.5335(6) 1.0624(2)
H19A H 0.3700 0.5227 1.0443
C34A C 0.4517(4) 0.5634(6) 1.1193(2)
H20A H 0.3982 0.5691 1.1391
C35A C 0.5638(3) 0.6188(2) 1.20997(14)
C36_2 C 0.4513(3) -0.3546(3) 0.7111(2)
C37_2 C 0.3539(3) -0.3535(3) 0.6951(2)
H21_2 H 0.3065 -0.4074 0.6858
C38_2 C 0.3257(4) -0.2724(3) 0.6925(3)
H22_2 H 0.2592 -0.2725 0.6820
C39_2 C 0.3952(4) -0.1911(3) 0.7054(3)
C40_2 C 0.4936(4) -0.1923(3) 0.7246(4)
H23_2 H 0.5408 -0.1383 0.7352
C41_2 C 0.5209(4) -0.2733(3) 0.7278(3)
H24_2 H 0.5861 -0.2735 0.7412
C42_2 C 0.3662(4) -0.1043(3) 0.6996(3)
C43_2 C 0.2869(4) -0.0775(3) 0.7226(3)
H25_2 H 0.2465 -0.1164 0.7403
C44_2 C 0.2657(4) 0.0061(3) 0.7201(3)
H26_2 H 0.2124 0.0232 0.7366
C45_2 C 0.3234(3) 0.0644(3) 0.6931(2)
C46_2 C 0.4009(4) 0.0365(3) 0.6693(3)
H27_2 H 0.4385 0.0735 0.6494
C47_2 C 0.4243(4) -0.0440(3) 0.6739(3)
H28_2 H 0.4804 -0.0588 0.6595
C48_2 C 0.4829(3) -0.4433(3) 0.7112(2)
C49_2 C 0.3055(3) 0.1573(3) 0.69127(18)
C50A C -0.1608(3) 0.5975(3) 0.41961(17)
C51A C -0.1800(6) 0.5818(7) 0.4703(3)
H29A H -0.2366 0.5966 0.4842
C52A C -0.1174(6) 0.5436(8) 0.5031(3)
H30A H -0.1329 0.5334 0.5380
C53A C -0.0328(3) 0.5211(4) 0.48359(19)
C54A C -0.0171(4) 0.5350(4) 0.4313(2)
H31A H 0.0377 0.5183 0.4163
C55A C -0.0791(4) 0.5726(4) 0.3997(2)
H32A H -0.0649 0.5813 0.3643
C56A C -0.2311(3) 0.6357(3) 0.38517(18)
C57_2 C 0.8044(6) -0.7255(5) 0.5496(2)
H33_2 H 0.8417 -0.7662 0.5591
C58_2 C 0.6966(10) -0.6930(11) 0.4803(4)
H34_2 H 0.6646 -0.6741 0.5124
H35_2 H 0.6485 -0.7338 0.4516
H36_2 H 0.7255 -0.6411 0.4661
C59_2 C 0.7823(18) -0.8035(17) 0.4533(5)
H37_2 H 0.8332 -0.7794 0.4325
H38_2 H 0.7211 -0.8272 0.4284
H39_2 H 0.8018 -0.8509 0.4694
C60_2 C 1.1183(5) 0.4813(5) 0.7761(4)
H40_2 H 1.0604 0.4595 0.7508
C61_2 C 1.2195(12) 0.6008(10) 0.8399(7)
H41_2 H 1.2042 0.5964 0.8771
H42_2 H 1.2453 0.6630 0.8389
H43_2 H 1.2683 0.5659 0.8303
C62_2 C 1.0673(10) 0.6235(8) 0.7913(7)
H44_2 H 1.0143 0.5900 0.7626
H45_2 H 1.1019 0.6753 0.7788
H46_2 H 1.0404 0.6431 0.8251
N1_2 N 0.7689(7) -0.7355(6) 0.4957(2)
N2_2 N 1.1339(7) 0.5680(4) 0.8018(4)
O1_2 O 0.7456(2) -0.50861(18) 0.67726(12)
O2_2 O 0.9045(2) -0.50480(18) 0.67647(13)
O3_2 O 0.8727(2) 0.23592(17) 0.67049(12)
O3_3 O 0.8727(2) -0.76408(17) 0.67049(12)
O4_2 O 1.0291(2) 0.25672(19) 0.70540(18)
O5A O 1.2636(2) 0.5381(2) 1.20321(11)
O5_2 O 0.7364(2) -0.5381(2) 0.79679(11)
O6A O 1.1491(2) 0.61253(19) 1.23492(10)
O6_2 O 0.8509(2) -0.61253(19) 0.76508(10)
O7A O 0.33354(16) -0.30525(15) 0.31831(9)
O7_2 O 0.66646(16) -0.69475(15) 0.68169(9)
O8A O 0.46247(16) -0.35040(14) 0.35416(9)
O8_2 O 0.53753(16) -0.64960(14) 0.64584(9)
O9A O 0.49077(18) 0.62568(18) 1.23656(10)
O9_2 O 0.50923(18) -0.62568(18) 0.76344(10)
O9A_2 O 0.49077(18) -0.37432(18) 0.23656(10)
O10A O 0.65084(18) 0.63914(19) 1.23431(10)
O10_2 O 1.34916(18) 1.36086(19) 0.76569(10)
O10A_2 O 0.65084(18) -0.36086(19) 0.23431(10)
O10_3 O 1.34916(18) 0.36086(19) 0.76569(10)
O11_2 O 0.4190(2) -0.51266(18) 0.68951(14)
O11A O 0.5810(2) -0.48734(18) 0.31049(14)
O12_2 O 0.5702(2) -0.44139(18) 0.73113(15)
O13_2 O 0.3679(2) 0.20810(17) 0.67144(12)
O13A O 0.6321(2) -0.20810(17) 0.32856(12)
O14_2 O 0.22976(19) 0.17793(18) 0.71195(14)
O14_3 O 1.22976(19) 1.17793(18) 0.71195(14)
O14_4 O 1.22976(19) 0.17793(18) 0.71195(14)
O15A O -0.3075(2) 0.6540(3) 0.40467(13)
O15A_2 O 0.6925(2) -0.3460(3) 0.40467(13)
O16A O -0.2147(2) 0.6430(2) 0.33548(12)
O16_2 O 1.2147(2) 1.3570(2) 0.66452(12)
O16A_2 O 0.7853(2) -0.3570(2) 0.33548(12)
O16_3 O 1.2147(2) 0.3570(2) 0.66452(12)
O17_2 O 0.7917(2) -0.6680(2) 0.58684(12)
O18_2 O 1.1667(3) 0.4307(3) 0.78123(19)
O19_2 O 1.1589(4) 0.2575(3) 0.81717(19)
C63_2 C 1.2115(10) 0.2383(11) 0.8572(5)
H47_2 H 1.2741 0.2249 0.8556
C64_2 C 1.0477(10) 0.2300(12) 0.9009(7)
H48_2 H 1.0189 0.1830 0.9194
H49_2 H 1.0223 0.2141 0.8616
H50_2 H 1.0309 0.2858 0.9174
C65_2 C 1.2074(11) 0.2804(11) 0.9636(6)
H51_2 H 1.2155 0.3450 0.9699
H52_2 H 1.2715 0.2651 0.9670
H53_2 H 1.1694 0.2574 0.9908
N3_2 N 1.1558(11) 0.2407(12) 0.9076(6)
loop_
_geom_bond_atom_site_label_1
_geom_bond_atom_site_label_2
_geom_bond_site_symmetry_1
_geom_bond_site_symmetry_2
Mn1 O1 1_555 1_555
Mn2 O1 1_555 1_555
Mn3 O8 1_555 1_555
Mn4 O4 1_555 1_555
C1 C2 1_555 1_555
C2 H1 1_555 1_555
C3 C2 1_555 1_555
H2 C3 1_555 1_555
C4 C3 1_555 1_555
C5 C4 1_555 1_555
H3 C5 1_555 1_555
C6 C1 1_555 1_555
H4 C6 1_555 1_555
C7 C4 1_555 1_555
C8 C7 1_555 1_555
H5 C8 1_555 1_555
C9 C8 1_555 1_555
H6 C9 1_555 1_555
C10 C9 1_555 1_555
C11 C10 1_555 1_555
H7 C11 1_555 1_555
C12 C7 1_555 1_555
H8 C12 1_555 1_555
C13 C1 1_555 1_555
C14 C10 1_555 1_555
C15 C16 1_555 1_555
C16 H9 1_555 1_555
C17 C16 1_555 1_555
H10 C17 1_555 1_555
C18 C17 1_555 1_555
C19 C18 1_555 1_555
H11 C19 1_555 1_555
C20 C15 1_555 1_555
H12 C20 1_555 1_555
C21 C15 1_555 1_555
C22 C23 1_555 1_555
C23 H13 1_555 1_555
C24 C23 1_555 1_555
H14 C24 1_555 1_555
C25 C24 1_555 1_555
C26 C25 1_555 1_555
H15 C26 1_555 1_555
C27 C22 1_555 1_555
H16 C27 1_555 1_555
C28 C22 1_555 1_555
C29 C30 1_555 1_555
C30 H17 1_555 1_555
C31 C30 1_555 1_555
H18 C31 1_555 1_555
C32 C31 1_555 1_555
C33 C32 1_555 1_555
H19 C33 1_555 1_555
C34 C29 1_555 1_555
H20 C34 1_555 1_555
C35 C29 1_555 1_555
C36 C37 1_555 1_555
C37 H21 1_555 1_555
C38 C37 1_555 1_555
H22 C38 1_555 1_555
C39 C38 1_555 1_555
C40 C39 1_555 1_555
H23 C40 1_555 1_555
C41 C36 1_555 1_555
H24 C41 1_555 1_555
C42 C39 1_555 1_555
C43 C42 1_555 1_555
H25 C43 1_555 1_555
C44 C43 1_555 1_555
H26 C44 1_555 1_555
C45 C44 1_555 1_555
C46 C45 1_555 1_555
H27 C46 1_555 1_555
C47 C42 1_555 1_555
H28 C47 1_555 1_555
C48 C36 1_555 1_555
C49 C45 1_555 1_555
C50 C51 1_555 1_555
C51 H29 1_555 1_555
C52 C51 1_555 1_555
H30 C52 1_555 1_555
C53 C52 1_555 1_555
C54 C53 1_555 1_555
H31 C54 1_555 1_555
C55 C50 1_555 1_555
H32 C55 1_555 1_555
C56 C50 1_555 1_555
C57 H33 1_555 1_555
C58 H34 1_555 1_555
H35 C58 1_555 1_555
H36 C58 1_555 1_555
C59 H37 1_555 1_555
H38 C59 1_555 1_555
H39 C59 1_555 1_555
C60 H40 1_555 1_555
C61 H41 1_555 1_555
H42 C61 1_555 1_555
H43 C61 1_555 1_555
C62 H44 1_555 1_555
H45 C62 1_555 1_555
H46 C62 1_555 1_555
N1 C57 1_555 1_555
N2 C60 1_555 1_555
O1 C13 1_555 1_555
O2 Mn1 1_555 1_555
O3 C14 1_555 1_555
O4 C14 1_555 1_555
O5 Mn2 1_555 1_555
O6 Mn1 1_555 1_555
O7 Mn1 1_555 1_555
O8 Mn2 1_555 1_555
O9 Mn2 1_555 1_555
O10 Mn3 1_555 1_555
O11 Mn3 1_555 1_555
O12 Mn2 1_555 1_555
O13 C49 1_555 1_555
O14 C49 1_555 1_555
O15 Mn3 1_555 1_555
O16 Mn3 1_555 1_555
O17 Mn1 1_555 1_555
O18 Mn4 1_555 1_555
O19 Mn4 1_555 1_555
C63 O19 1_555 1_555
H47 C63 1_555 1_555
C64 H48 1_555 1_555
H49 C64 1_555 1_555
H50 C64 1_555 1_555
C65 H51 1_555 1_555
H52 C65 1_555 1_555
H53 C65 1_555 1_555
N3 C63 1_555 1_555
Mn1_2 O1_2 1_555 1_555
Mn1_3 O3 1_555 1_555
Mn1A O6A 1_555 1_555
Mn1A_2 O7A 1_555 1_555
Mn2_2 O1_2 1_555 1_555
Mn2A O5A 1_555 1_555
Mn2A_2 O7A 1_555 1_555
Mn2A_3 O9A 1_555 1_555
Mn3A O8A 1_555 1_555
Mn3_2 O13 1_555 1_555
Mn3A_2 O9A 1_555 1_555
Mn3A_3 O15A 1_555 1_555
Mn3_3 O8_2 1_555 1_555
Mn4_2 O4_2 1_555 1_555
Mn4_3 O10 1_555 1_555
Mn4_4 O14 1_555 1_555
Mn4A O10A 1_555 1_555
Mn4A_2 O16A 1_555 1_555
C1_2 C2_2 1_555 1_555
C2_2 H1_2 1_555 1_555
C3_2 C2_2 1_555 1_555
H2_2 C3_2 1_555 1_555
C4_2 C3_2 1_555 1_555
C5_2 C4_2 1_555 1_555
H3_2 C5_2 1_555 1_555
C6_2 C1_2 1_555 1_555
H4_2 C6_2 1_555 1_555
C7_2 C4_2 1_555 1_555
C8_2 C7_2 1_555 1_555
H5_2 C8_2 1_555 1_555
C9_2 C8_2 1_555 1_555
H6_2 C9_2 1_555 1_555
C10_2 C9_2 1_555 1_555
C11_2 C10_2 1_555 1_555
H7_2 C11_2 1_555 1_555
C12_2 C7_2 1_555 1_555
H8_2 C12_2 1_555 1_555
C13_2 C1_2 1_555 1_555
C14_2 C10_2 1_555 1_555
C15A C16A 1_555 1_555
C16A H9A 1_555 1_555
C17A C16A 1_555 1_555
H10A C17A 1_555 1_555
C18A C18 1_555 1_555
C19A C18A 1_555 1_555
H11A C19A 1_555 1_555
C20A C15A 1_555 1_555
H12A C20A 1_555 1_555
C21A C15A 1_555 1_555
C22A C23A 1_555 1_555
C23A H13A 1_555 1_555
C24A C23A 1_555 1_555
H14A C24A 1_555 1_555
C25A C25 1_555 1_555
C26A C25A 1_555 1_555
H15A C26A 1_555 1_555
C27A C22A 1_555 1_555
H16A C27A 1_555 1_555
C28A C22A 1_555 1_555
C29A C30A 1_555 1_555
C30A H17A 1_555 1_555
C31A C30A 1_555 1_555
H18A C31A 1_555 1_555
C32A C32 1_555 1_555
C33A C32A 1_555 1_555
H19A C33A 1_555 1_555
C34A C29A 1_555 1_555
H20A C34A 1_555 1_555
C35A C29A 1_555 1_555
C36_2 C37_2 1_555 1_555
C37_2 H21_2 1_555 1_555
C38_2 C37_2 1_555 1_555
H22_2 C38_2 1_555 1_555
C39_2 C38_2 1_555 1_555
C40_2 C39_2 1_555 1_555
H23_2 C40_2 1_555 1_555
C41_2 C36_2 1_555 1_555
H24_2 C41_2 1_555 1_555
C42_2 C39_2 1_555 1_555
C43_2 C42_2 1_555 1_555
H25_2 C43_2 1_555 1_555
C44_2 C43_2 1_555 1_555
H26_2 C44_2 1_555 1_555
C45_2 C44_2 1_555 1_555
C46_2 C45_2 1_555 1_555
H27_2 C46_2 1_555 1_555
C47_2 C42_2 1_555 1_555
H28_2 C47_2 1_555 1_555
C48_2 C36_2 1_555 1_555
C49_2 C45_2 1_555 1_555
C50A C51A 1_555 1_555
C51A H29A 1_555 1_555
C52A C51A 1_555 1_555
H30A C52A 1_555 1_555
C53A C53 1_555 1_555
C54A C53A 1_555 1_555
H31A C54A 1_555 1_555
C55A C50A 1_555 1_555
H32A C55A 1_555 1_555
C56A C50A 1_555 1_555
C57_2 H33_2 1_555 1_555
C58_2 H34_2 1_555 1_555
H35_2 C58_2 1_555 1_555
H36_2 C58_2 1_555 1_555
C59_2 H37_2 1_555 1_555
H38_2 C59_2 1_555 1_555
H39_2 C59_2 1_555 1_555
C60_2 H40_2 1_555 1_555
C61_2 H41_2 1_555 1_555
H42_2 C61_2 1_555 1_555
H43_2 C61_2 1_555 1_555
C62_2 H44_2 1_555 1_555
H45_2 C62_2 1_555 1_555
H46_2 C62_2 1_555 1_555
N1_2 C57_2 1_555 1_555
N2_2 C60_2 1_555 1_555
O1_2 C13_2 1_555 1_555
O2_2 Mn1_2 1_555 1_555
O3_2 Mn1 1_555 1_555
O3_3 Mn1_2 1_555 1_555
O4_2 C14_2 1_555 1_555
O5A C21A 1_555 1_555
O5_2 Mn2_2 1_555 1_555
O6A C21A 1_555 1_555
O6_2 Mn1_2 1_555 1_555
O7A C28A 1_555 1_555
O7_2 Mn1_2 1_555 1_555
O8A Mn2A_2 1_555 1_555
O8_2 Mn2_2 1_555 1_555
O9A C35A 1_555 1_555
O9_2 Mn2_2 1_555 1_555
O9A_2 Mn2A_2 1_555 1_555
O10A Mn3A_2 1_555 1_555
O10_2 Mn4 1_555 1_555
O10A_2 Mn3A 1_555 1_555
O10_3 Mn4_2 1_555 1_555
O11_2 Mn3_3 1_555 1_555
O11A Mn3A 1_555 1_555
O12_2 Mn2_2 1_555 1_555
O13_2 Mn3 1_555 1_555
O13A Mn3A 1_555 1_555
O14_2 Mn4_3 1_555 1_555
O14_3 Mn4 1_555 1_555
O14_4 Mn4_2 1_555 1_555
O15A C56A 1_555 1_555
O15A_2 Mn3A 1_555 1_555
O16A Mn3A_3 1_555 1_555
O16_2 Mn4 1_555 1_555
O16A_2 Mn3A 1_555 1_555
O16_3 Mn4_2 1_555 1_555
O17_2 Mn1_2 1_555 1_555
O18_2 Mn4_2 1_555 1_555
O19_2 Mn4_2 1_555 1_555
C63_2 O19_2 1_555 1_555
H47_2 C63_2 1_555 1_555
C64_2 H48_2 1_555 1_555
H49_2 C64_2 1_555 1_555
H50_2 C64_2 1_555 1_555
C65_2 H51_2 1_555 1_555
H52_2 C65_2 1_555 1_555
H53_2 C65_2 1_555 1_555
N3_2 C63_2 1_555 1_555
Mn2 O7 1_555 1_555
Mn3 O9 1_555 1_555
C5 C6 1_555 1_555
C11 C12 1_555 1_555
C13 O2 1_555 1_555
C19 C20 1_555 1_555
C21 O5 1_555 1_555
C21 O6 1_555 1_555
C26 C27 1_555 1_555
C28 O7 1_555 1_555
C28 O8 1_555 1_555
C33 C34 1_555 1_555
C35 O9 1_555 1_555
C35 O10 1_555 1_555
C40 C41 1_555 1_555
C46 C47 1_555 1_555
C48 O11 1_555 1_555
C48 O12 1_555 1_555
C54 C55 1_555 1_555
C56 O15 1_555 1_555
C56 O16 1_555 1_555
C57 O17 1_555 1_555
C58 N1 1_555 1_555
C59 N1 1_555 1_555
C60 O18 1_555 1_555
C61 N2 1_555 1_555
C62 N2 1_555 1_555
O16 Mn4_3 1_555 1_555
C64 N3 1_555 1_555
C65 N3 1_555 1_555
Mn2_2 O7_2 1_555 1_555
Mn3A O9A_2 1_555 1_555
Mn3_3 O9_2 1_555 1_555
C5_2 C6_2 1_555 1_555
C11_2 C12_2 1_555 1_555
C13_2 O2_2 1_555 1_555
C14_2 O3_2 1_555 1_555
C17A C18A 1_555 1_555
C19A C20A 1_555 1_555
C24A C25A 1_555 1_555
C26A C27A 1_555 1_555
C28A O8A 1_555 1_555
C31A C32A 1_555 1_555
C33A C34A 1_555 1_555
C35A O10A 1_555 1_555
C40_2 C41_2 1_555 1_555
C46_2 C47_2 1_555 1_555
C48_2 O11_2 1_555 1_555
C48_2 O12_2 1_555 1_555
C49_2 O13_2 1_555 1_555
C49_2 O14_2 1_555 1_555
C52A C53A 1_555 1_555
C54A C55A 1_555 1_555
C56A O16A 1_555 1_555
C57_2 O17_2 1_555 1_555
C58_2 N1_2 1_555 1_555
C59_2 N1_2 1_555 1_555
C60_2 O18_2 1_555 1_555
C61_2 N2_2 1_555 1_555
C62_2 N2_2 1_555 1_555
C64_2 N3_2 1_555 1_555
C65_2 N3_2 1_555 1_555

#END
