
#######################################################################
#
#                 Cambridge Crystallographic Data Centre
#                                CCDC 
#
#######################################################################
#
# If this CIF has been generated from an entry in the Cambridge 
# Structural Database, then it will include bibliographic, chemical, 
# crystal, experimental, refinement or atomic coordinate data resulting 
# from the CCDC's data processing and validation procedures.
#
#######################################################################

data_VUQKOI
_symmetry_cell_setting           triclinic
_symmetry_space_group_name_H-M   'P -1'
_symmetry_Int_Tables_number      2
_space_group_name_Hall           '-P 1'
loop_
_symmetry_equiv_pos_site_id
_symmetry_equiv_pos_as_xyz
1 x,y,z
2 -x,-y,-z
_cell_length_a                   14.196(5)
_cell_length_b                   15.367(5)
_cell_length_c                   16.615(5)
_cell_angle_alpha                76.167(5)
_cell_angle_beta                 87.919(5)
_cell_angle_gamma                64.595(5)
_cell_volume                     3170.01
loop_
_atom_site_label
_atom_site_type_symbol
_atom_site_fract_x
_atom_site_fract_y
_atom_site_fract_z
Cd1 Cd 0.50034(4) 0.55956(3) 0.67841(3)
Cd2 Cd 0.34554(4) 0.56286(4) 0.49053(3)
Cd3 Cd 0.54314(4) 0.43134(3) 0.91202(3)
Cl1 Cl 0.33746(17) 0.68460(14) 0.57748(11)
Cl2 Cl 0.49053(14) 0.42764(12) 0.60377(10)
Cl3 Cl 0.38282(13) 0.53067(12) 0.79887(10)
Cl4 Cl 0.65481(13) 0.43122(12) 0.78339(10)
Cl5 Cl 0.64606(17) 0.57158(14) 0.57771(11)
Cl6 Cl 0.44319(14) 0.42149(12) 1.04694(10)
P1 P 0.5530(2) 0.97352(15) 0.80079(12)
P2 P -0.01430(15) 1.00451(14) 0.17103(12)
O1 O 0.5250(6) 1.0250(4) 0.8768(3)
O2 O 0.5079(5) 0.8959(4) 0.8437(3)
O3 O 0.1101(4) 0.9439(4) 0.1838(3)
O4 O -0.0112(4) 1.1000(4) 0.1097(3)
O5 O 0.1970(5) 0.5554(6) 0.5496(5)
N1 N 0.4865(6) 1.0450(5) 0.7162(4)
N2 N 0.6471(6) 1.0037(5) 0.6477(5)
N3 N 0.6740(6) 0.9218(5) 0.7937(4)
N4 N 0.4924(7) 1.1213(5) 0.5823(5)
N5 N 0.8089(7) 0.8920(7) 0.7086(6)
N6 N 0.5360(5) 1.2846(4) 0.8969(4)
N7 N 0.5010(5) 0.6885(4) 0.7282(4)
N8 N 0.2511(5) 0.7000(5) 0.3831(4)
N9 N -0.0628(5) 1.0258(5) 0.2553(4)
N10 N -0.1753(6) 0.9495(6) 0.2382(5)
N11 N -0.0660(5) 0.9549(5) 0.1247(4)
N12 N -0.1784(6) 1.0111(6) 0.3508(5)
N13 N -0.1874(7) 0.8944(7) 0.1233(6)
N14 N -0.2939(5) 1.3143(4) -0.0144(3)
C1 C 0.7065(8) 0.9419(7) 0.7165(6)
C2 C 0.5448(7) 1.0527(6) 0.6517(5)
C3 C 0.8791(10) 0.8164(9) 0.7839(9)
H1 H 0.8461 0.8305 0.8337
H2 H 0.9449 0.8202 0.7841
H3 H 0.8907 0.7509 0.7814
C4 C 0.8542(11) 0.9076(11) 0.6253(9)
H4 H 0.8445 0.8673 0.5933
H5 H 0.9275 0.8890 0.6339
H6 H 0.8191 0.9763 0.5960
C5 C 0.5450(10) 1.1344(8) 0.5039(6)
H7 H 0.5079 1.2013 0.4708
H8 H 0.5451 1.0887 0.4733
H9 H 0.6157 1.1217 0.5171
C6 C 0.3791(9) 1.1832(9) 0.5759(8)
H10 H 0.3463 1.1699 0.5338
H11 H 0.3654 1.2521 0.5613
H12 H 0.3516 1.1681 0.6283
C7 C 0.5337(7) 1.1108(5) 0.8788(5)
C8 C 0.5293(8) 1.1838(6) 0.8095(5)
H13 H 0.5261 1.1757 0.7561
C9 C 0.5299(7) 1.2690(5) 0.8226(5)
H14 H 0.5257 1.3188 0.7762
C10 C 0.5407(7) 1.2132(6) 0.9624(5)
H15 H 0.5451 1.2228 1.0151
C11 C 0.5393(7) 1.1258(6) 0.9566(4)
H16 H 0.5421 1.0780 1.0041
C12 C 0.5085(7) 0.8268(5) 0.8020(4)
C13 C 0.5999(7) 0.7547(6) 0.7866(5)
H17 H 0.6643 0.7514 0.8006
C14 C 0.5920(7) 0.6866(6) 0.7490(5)
H18 H 0.6533 0.6368 0.7376
C15 C 0.4139(7) 0.7594(5) 0.7451(5)
H19 H 0.3502 0.7612 0.7310
C16 C 0.4131(7) 0.8296(6) 0.7822(5)
H20 H 0.3507 0.8779 0.7939
C17 C 0.2776(7) 0.7730(6) 0.3664(5)
H21 H 0.3309 0.7693 0.3999
C18 C 0.2305(7) 0.8556(6) 0.3015(5)
H22 H 0.2505 0.9072 0.2925
C19 C 0.1541(6) 0.8609(5) 0.2504(4)
C20 C 0.1261(6) 0.7842(6) 0.2653(5)
H23 H 0.0750 0.7848 0.2314
C21 C 0.1772(6) 0.7053(6) 0.3331(5)
H24 H 0.1585 0.6529 0.3443
C22 C -0.1078(6) 1.1725(5) 0.0684(4)
C23 C -0.1748(6) 1.2430(6) 0.1073(5)
H25 H -0.1580 1.2439 0.1606
C24 C -0.1303(6) 1.1739(6) -0.0112(5)
H26 H -0.0840 1.1275 -0.0378
C25 C -0.1366(6) 0.9931(6) 0.2787(5)
C26 C -0.1408(6) 0.9336(6) 0.1644(6)
C27 C -0.1440(8) 1.0601(7) 0.3991(6)
H27 H -0.0911 1.0111 0.4412
H28 H -0.2022 1.1012 0.4249
H29 H -0.1158 1.1006 0.3633
C28 C -0.2505(10) 0.9692(10) 0.3866(7)
H30 H -0.2857 0.9606 0.3429
H31 H -0.3011 1.0135 0.4154
H32 H -0.2119 0.9059 0.4248
C29 C -0.1544(9) 0.8761(10) 0.0426(7)
H33 H -0.1182 0.9153 0.0187
H34 H -0.2146 0.8940 0.0066
H35 H -0.1085 0.8069 0.0494
C30 C -0.2612(11) 0.8568(13) 0.1635(9)
H36 H -0.2235 0.7881 0.1924
H37 H -0.3106 0.8629 0.1221
H38 H -0.2978 0.8947 0.2024
C31 C -0.2247(6) 1.2469(5) -0.0505(4)
H39 H -0.2410 1.2492 -0.1049
C32 C -0.2685(6) 1.3126(5) 0.0630(4)
H40 H -0.3157 1.3602 0.0882
Cd2A Cd 0.65446(4) 0.43714(4) 0.50947(3)
Cd3A Cd 0.45686(4) 0.56866(3) 1.08798(3)
Cd3_2 Cd 0.54314(4) 1.43134(3) 0.91202(3)
Cd3_3 Cd -0.45686(4) 1.43134(3) -0.08798(3)
Cl2A Cl 0.50947(14) 0.57236(12) 0.39623(10)
Cl5A Cl 0.35394(17) 0.42842(14) 0.42229(11)
Cl6A Cl 0.55681(14) 0.57851(12) 0.95306(10)
N6_2 N 0.5360(5) 0.2846(4) 0.8969(4)
N14_2 N 0.7061(5) 0.3143(4) 0.9856(3)
loop_
_geom_bond_atom_site_label_1
_geom_bond_atom_site_label_2
_geom_bond_site_symmetry_1
_geom_bond_site_symmetry_2
Cd1 Cl1 1_555 1_555
Cd2 Cl1 1_555 1_555
Cd3 Cl3 1_555 1_555
Cl2 Cd1 1_555 1_555
Cl3 Cd1 1_555 1_555
Cl4 Cd1 1_555 1_555
Cl5 Cd1 1_555 1_555
Cl6 Cd3 1_555 1_555
P1 O1 1_555 1_555
P2 O3 1_555 1_555
O1 C7 1_555 1_555
O2 P1 1_555 1_555
O3 C19 1_555 1_555
O4 P2 1_555 1_555
O5 Cd2 1_555 1_555
N1 P1 1_555 1_555
N2 C1 1_555 1_555
N3 P1 1_555 1_555
N4 C2 1_555 1_555
N5 C1 1_555 1_555
N6 C9 1_555 1_555
N7 Cd1 1_555 1_555
N8 Cd2 1_555 1_555
N9 P2 1_555 1_555
N10 C25 1_555 1_555
N11 P2 1_555 1_555
N12 C25 1_555 1_555
N13 C26 1_555 1_555
N14 C31 1_555 1_555
C1 N3 1_555 1_555
C2 N1 1_555 1_555
C3 N5 1_555 1_555
H1 C3 1_555 1_555
H2 C3 1_555 1_555
H3 C3 1_555 1_555
C4 N5 1_555 1_555
H4 C4 1_555 1_555
H5 C4 1_555 1_555
H6 C4 1_555 1_555
C5 N4 1_555 1_555
H7 C5 1_555 1_555
H8 C5 1_555 1_555
H9 C5 1_555 1_555
C6 N4 1_555 1_555
H10 C6 1_555 1_555
H11 C6 1_555 1_555
H12 C6 1_555 1_555
C7 C8 1_555 1_555
C8 H13 1_555 1_555
C9 C8 1_555 1_555
H14 C9 1_555 1_555
C10 N6 1_555 1_555
H15 C10 1_555 1_555
C11 C7 1_555 1_555
H16 C11 1_555 1_555
C12 O2 1_555 1_555
C13 C12 1_555 1_555
H17 C13 1_555 1_555
C14 N7 1_555 1_555
H18 C14 1_555 1_555
C15 N7 1_555 1_555
H19 C15 1_555 1_555
C16 C12 1_555 1_555
H20 C16 1_555 1_555
C17 N8 1_555 1_555
H21 C17 1_555 1_555
C18 C17 1_555 1_555
H22 C18 1_555 1_555
C19 C18 1_555 1_555
C20 C19 1_555 1_555
H23 C20 1_555 1_555
C21 N8 1_555 1_555
H24 C21 1_555 1_555
C22 O4 1_555 1_555
C23 C22 1_555 1_555
H25 C23 1_555 1_555
C24 C22 1_555 1_555
H26 C24 1_555 1_555
C25 N9 1_555 1_555
C26 N10 1_555 1_555
C27 N12 1_555 1_555
H27 C27 1_555 1_555
H28 C27 1_555 1_555
H29 C27 1_555 1_555
C28 N12 1_555 1_555
H30 C28 1_555 1_555
H31 C28 1_555 1_555
H32 C28 1_555 1_555
C29 N13 1_555 1_555
H33 C29 1_555 1_555
H34 C29 1_555 1_555
H35 C29 1_555 1_555
C30 N13 1_555 1_555
H36 C30 1_555 1_555
H37 C30 1_555 1_555
H38 C30 1_555 1_555
C31 C24 1_555 1_555
H39 C31 1_555 1_555
C32 N14 1_555 1_555
H40 C32 1_555 1_555
Cd2A Cl2 1_555 1_555
Cd3A Cl6 1_555 1_555
Cd3_2 N6 1_555 1_555
Cd3_3 N14 1_555 1_555
Cl2A Cd2 1_555 1_555
Cl5A Cd2 1_555 1_555
Cl6A Cd3 1_555 1_555
N6_2 Cd3 1_555 1_555
N14_2 Cd3 1_555 1_555
Cd2 Cl2 1_555 1_555
Cd3 Cl4 1_555 1_555
Cl5 Cd2A 1_555 1_555
N2 C2 1_555 1_555
N11 C26 1_555 1_555
C10 C11 1_555 1_555
C13 C14 1_555 1_555
C15 C16 1_555 1_555
C20 C21 1_555 1_555
C23 C32 1_555 1_555
Cd2A Cl2A 1_555 1_555
Cd3A Cl6A 1_555 1_555

#END
