
#######################################################################
#
#                 Cambridge Crystallographic Data Centre
#                                CCDC 
#
#######################################################################
#
# If this CIF has been generated from an entry in the Cambridge 
# Structural Database, then it will include bibliographic, chemical, 
# crystal, experimental, refinement or atomic coordinate data resulting 
# from the CCDC's data processing and validation procedures.
#
#######################################################################

data_VUSKAW
_symmetry_cell_setting           monoclinic
_symmetry_space_group_name_H-M   'C 2/m'
_symmetry_Int_Tables_number      12
_space_group_name_Hall           '-C 2y'
loop_
_symmetry_equiv_pos_site_id
_symmetry_equiv_pos_as_xyz
1 x,y,z
2 -x,y,-z
3 1/2+x,1/2+y,z
4 1/2-x,1/2+y,-z
5 -x,-y,-z
6 x,-y,z
7 1/2-x,1/2-y,-z
8 1/2+x,1/2-y,z
_cell_length_a                   31.6131(7)
_cell_length_b                   18.252
_cell_length_c                   18.252
_cell_angle_alpha                90
_cell_angle_beta                 125.26
_cell_angle_gamma                90
_cell_volume                     8599.36
loop_
_atom_site_label
_atom_site_type_symbol
_atom_site_fract_x
_atom_site_fract_y
_atom_site_fract_z
Zn1 Zn 0.29367(13) 0.0000 0.3808(2)
Zn2 Zn 0.29355(13) 0.0000 0.2061(2)
Zn3 Zn 0.20630(9) 0.08718(12) 0.20631(15)
O1 O 0.2501(6) 0.0000 0.2502(9)
O2 O 0.3667(7) 0.0000 0.4289(13)
O3 O 0.3683(7) 0.0000 0.3084(17)
C1 C 0.3899(15) 0.0000 0.393(3)
C2 C 0.4460(12) 0.0000 0.446(2)
C3 C 0.4726(14) 0.0000 0.409(3)
H1 H 0.4549 0.0000 0.3470
C4 C 0.4750(15) 0.0000 0.538(3)
H2 H 0.4576 0.0000 0.5655
O4 O 0.2816(6) -0.0865(8) 0.4299(10)
O5 O 0.2173(6) -0.1484(8) 0.3037(11)
C5 C 0.2488(10) -0.1394(14) 0.3864(19)
C6 C 0.2497(8) -0.1973(12) 0.4468(15)
C7 C 0.2179(11) -0.2552(17) 0.410(2)
H3 H 0.1962 -0.2600 0.3477
C8 C 0.2825(12) -0.1924(18) 0.536(2)
H4 H 0.3058 -0.1535 0.5616
O6 O 0.2823(7) -0.0861(8) 0.1351(10)
O7 O 0.2183(6) -0.1479(8) 0.1323(10)
C9 C 0.2492(10) -0.1386(15) 0.1098(16)
C10 C 0.2493(9) -0.1944(13) 0.0529(15)
C11 C 0.2177(10) -0.2538(15) 0.0277(17)
H5 H 0.1954 -0.2572 0.0452
C12 C 0.2817(10) -0.1902(16) 0.0243(18)
H6 H 0.3033 -0.1498 0.0399
O8 O 0.1338(5) 0.0627(8) 0.1346(10)
C13 C 0.1135(13) 0.0000 0.115(2)
C14 C 0.0533(12) 0.0000 0.053(2)
C15 C 0.0271(9) 0.0637(16) 0.0275(17)
H7 H 0.0450 0.1079 0.0470
Zn1C Zn 0.20633(13) -0.5000 0.6192(2)
Zn1A Zn 0.70633(13) 0.0000 0.6192(2)
Zn1C_2 Zn 0.20633(13) 0.5000 0.6192(2)
Zn2A Zn 0.70645(13) 0.0000 0.7939(2)
Zn2C Zn 0.20645(13) -0.5000 -0.2061(2)
Zn2C_2 Zn 0.20645(13) 0.5000 -0.2061(2)
Zn2C_3 Zn 0.20645(13) -0.5000 0.7939(2)
Zn3E Zn 0.20630(9) -0.08718(12) 0.20631(15)
Zn3C Zn 0.29370(9) -0.41282(12) 0.79369(15)
Zn3F Zn 0.29370(9) 0.41282(12) 0.79369(15)
Zn3C_2 Zn 0.29370(9) -0.41282(12) -0.20631(15)
Zn3A Zn -0.20630(9) 0.08718(12) -0.20631(15)
Zn3D Zn -0.20630(9) -0.08718(12) -0.20631(15)
Zn3F_2 Zn 0.29370(9) 0.41282(12) -0.20631(15)
Zn3F_3 Zn 0.29370(9) -0.58718(12) 0.79369(15)
O1C O 0.2499(6) -0.5000 0.7498(9)
O1A O 0.7499(6) 0.0000 0.7498(9)
O1C_2 O 0.2499(6) 0.5000 0.7498(9)
O2A O 0.6333(7) 0.0000 0.5711(13)
O2C O 0.1333(7) -0.5000 0.5711(13)
O3A O 0.6317(7) 0.0000 0.6916(17)
C1A C 0.6101(15) 0.0000 0.607(3)
C2A C 0.5540(12) 0.0000 0.554(2)
C3A C 0.5274(14) 0.0000 0.591(3)
H1A H 0.5451 0.0000 0.6530
C4A C 0.5250(15) 0.0000 0.462(3)
H2A H 0.5424 0.0000 0.4345
O4F O 0.2184(6) -0.4135(8) 0.5701(10)
O4E O 0.2816(6) 0.0865(8) 0.4299(10)
O4C O 0.2184(6) 0.4135(8) 0.5701(10)
O4C_2 O 0.2184(6) -0.5865(8) 0.5701(10)
O5F O 0.2827(6) -0.3516(8) 0.6963(11)
O5E O 0.2173(6) 0.1484(8) 0.3037(11)
O5C O 0.2827(6) 0.3516(8) 0.6963(11)
C5F C 0.2512(10) -0.3606(14) 0.6136(19)
C5E C 0.2488(10) 0.1394(14) 0.3864(19)
C5C C 0.2512(10) 0.3606(14) 0.6136(19)
C6F C 0.2503(8) -0.3027(12) 0.5532(15)
C6E C 0.2497(8) 0.1973(12) 0.4468(15)
C6C C 0.2503(8) 0.3027(12) 0.5532(15)
C7F C 0.2821(11) -0.2448(17) 0.590(2)
C7E C 0.2179(11) 0.2552(17) 0.410(2)
C7C C 0.2821(11) 0.2448(17) 0.590(2)
H3F H 0.3038 -0.2400 0.6523
H3E H 0.1962 0.2600 0.3477
H3C H 0.3038 0.2400 0.6523
C8F C 0.2175(12) -0.3076(18) 0.464(2)
C8E C 0.2825(12) 0.1924(18) 0.536(2)
C8C C 0.2175(12) 0.3076(18) 0.464(2)
H4F H 0.1942 -0.3465 0.4384
H4E H 0.3058 0.1535 0.5616
H4C H 0.1942 0.3465 0.4384
O6F O 0.2177(7) -0.4139(8) -0.1351(10)
O6E O 0.2823(7) 0.0861(8) 0.1351(10)
O6C O 0.2177(7) 0.4139(8) -0.1351(10)
O6A O 0.7177(7) -0.0861(8) 0.8649(10)
O6D O 0.7177(7) 0.0861(8) 0.8649(10)
O7F O 0.2817(6) -0.3521(8) -0.1323(10)
O7E O 0.2183(6) 0.1479(8) 0.1323(10)
O7C O 0.2817(6) 0.3521(8) -0.1323(10)
O7F_2 O 0.2817(6) -0.3521(8) 0.8677(10)
O7C_2 O 0.2817(6) 0.3521(8) 0.8677(10)
C9F C 0.2508(10) -0.3614(15) -0.1098(16)
C9E C 0.2492(10) 0.1386(15) 0.1098(16)
C9C C 0.2508(10) 0.3614(15) -0.1098(16)
C10F C 0.2507(9) -0.3056(13) -0.0529(15)
C10E C 0.2493(9) 0.1944(13) 0.0529(15)
C10C C 0.2507(9) 0.3056(13) -0.0529(15)
C11F C 0.2823(10) -0.2462(15) -0.0277(17)
C11E C 0.2177(10) 0.2538(15) 0.0277(17)
C11C C 0.2823(10) 0.2462(15) -0.0277(17)
H5F H 0.3046 -0.2428 -0.0452
H5E H 0.1954 0.2572 0.0452
H5C H 0.3046 0.2428 -0.0452
C12F C 0.2183(10) -0.3098(16) -0.0243(18)
C12E C 0.2817(10) 0.1902(16) 0.0243(18)
C12C C 0.2183(10) 0.3098(16) -0.0243(18)
H6F H 0.1967 -0.3502 -0.0399
H6E H 0.3033 0.1498 0.0399
H6C H 0.1967 0.3502 -0.0399
O8E O 0.1338(5) -0.0627(8) 0.1346(10)
O8A O -0.1338(5) 0.0627(8) -0.1346(10)
O8D O -0.1338(5) -0.0627(8) -0.1346(10)
O8C O 0.3662(5) -0.4373(8) 0.8654(10)
O8F O 0.3662(5) 0.4373(8) 0.8654(10)
C13A C -0.1135(13) 0.0000 -0.115(2)
C14A C -0.0533(12) 0.0000 -0.053(2)
C15A C -0.0271(9) 0.0637(16) -0.0275(17)
C15D C -0.0271(9) -0.0637(16) -0.0275(17)
C15E C 0.0271(9) -0.0637(16) 0.0275(17)
H7D H -0.0450 -0.1079 -0.0470
H7E H 0.0450 -0.1079 0.0470
H7A H -0.0450 0.1079 -0.0470
O9 O 0.150(6) 0.0000 0.352(10)
O10 O 0.334(4) 0.5000 -0.018(7)
O11 O 0.381(6) 0.209(8) 0.386(9)
Br1? Br 0.447(2) 0.0000 0.276(4)
Br2? Br 0.445(3) 0.0000 0.613(5)
Br3? Br 0.1804 0.2722 0.2874
Br4? Br 0.3293 0.1135 0.5838
Br5? Br 0.1631 0.2486 0.0385
Br6? Br 0.3186 0.1057 0.0450
Br7? Br 0.0655 0.1523 0.0680
loop_
_geom_bond_atom_site_label_1
_geom_bond_atom_site_label_2
_geom_bond_site_symmetry_1
_geom_bond_site_symmetry_2
Zn1 O1 1_555 1_555
Zn2 O1 1_555 1_555
Zn3 O1 1_555 1_555
O1 Zn3E 1_555 1_555
O2 Zn1 1_555 1_555
O3 Zn2 1_555 1_555
C1 O2 1_555 1_555
C2 C1 1_555 1_555
C3 C2 1_555 1_555
H1 C3 1_555 1_555
C4 C2 1_555 1_555
H2 C4 1_555 1_555
O4 Zn1 1_555 1_555
O5 C5 1_555 1_555
C5 O4 1_555 1_555
C6 C5 1_555 1_555
C7 C6 1_555 1_555
H3 C7 1_555 1_555
C8 C6 1_555 1_555
H4 C8 1_555 1_555
O6 Zn2 1_555 1_555
O7 C9 1_555 1_555
C9 O6 1_555 1_555
C10 C9 1_555 1_555
C11 C10 1_555 1_555
H5 C11 1_555 1_555
C12 C10 1_555 1_555
H6 C12 1_555 1_555
O8 Zn3 1_555 1_555
C13 O8 1_555 1_555
C14 C13 1_555 1_555
C15 C14 1_555 1_555
H7 C15 1_555 1_555
Zn1C O1C 1_555 1_555
Zn1A O1A 1_555 1_555
Zn1C_2 O1C_2 1_555 1_555
Zn2A O1A 1_555 1_555
Zn2C O6F 1_555 1_555
Zn2C_2 O6C 1_555 1_555
Zn2C_3 O1C 1_555 1_555
Zn3E O5 1_555 1_555
Zn3C O1C 1_555 1_555
Zn3F O1C_2 1_555 1_555
Zn3C_2 O7F 1_555 1_555
Zn3A O8A 1_555 1_555
Zn3D O8D 1_555 1_555
Zn3F_2 O7C 1_555 1_555
Zn3F_3 O1C 1_555 1_555
O2A Zn1A 1_555 1_555
O2C Zn1C 1_555 1_555
O3A Zn2A 1_555 1_555
C1A O2A 1_555 1_555
C2A C1A 1_555 1_555
C3A C4 1_555 1_555
H1A C3A 1_555 1_555
C4A C3 1_555 1_555
H2A C4A 1_555 1_555
O4F Zn1C 1_555 1_555
O4E Zn1 1_555 1_555
O4C Zn1C_2 1_555 1_555
O4C_2 Zn1C 1_555 1_555
O5F Zn3C 1_555 1_555
O5E Zn3 1_555 1_555
O5C Zn3F 1_555 1_555
C5F O4F 1_555 1_555
C5E O4E 1_555 1_555
C5C O4C 1_555 1_555
C6F C5F 1_555 1_555
C6E C5E 1_555 1_555
C6C C5C 1_555 1_555
C7F C8 1_555 1_555
C7E C6E 1_555 1_555
C7C C6C 1_555 1_555
H3F C7F 1_555 1_555
H3E C7E 1_555 1_555
H3C C7C 1_555 1_555
C8F C7 1_555 1_555
C8E C6E 1_555 1_555
C8C C6C 1_555 1_555
H4F C8F 1_555 1_555
H4E C8E 1_555 1_555
H4C C8C 1_555 1_555
O6F C9F 1_555 1_555
O6E Zn2 1_555 1_555
O6C C9C 1_555 1_555
O6A Zn2A 1_555 1_555
O6D Zn2A 1_555 1_555
O7F C9F 1_555 1_555
O7E Zn3 1_555 1_555
O7C C9C 1_555 1_555
O7F_2 Zn3C 1_555 1_555
O7C_2 Zn3F 1_555 1_555
C9F C10F 1_555 1_555
C9E O6E 1_555 1_555
C9C C10C 1_555 1_555
C10F C11F 1_555 1_555
C10E C9E 1_555 1_555
C10C C11C 1_555 1_555
C11F C12 1_555 1_555
C11E C10E 1_555 1_555
C11C H5C 1_555 1_555
H5F C11F 1_555 1_555
H5E C11E 1_555 1_555
C12F C11 1_555 1_555
C12E C10E 1_555 1_555
C12C C10C 1_555 1_555
H6F C12F 1_555 1_555
H6E C12E 1_555 1_555
H6C C12C 1_555 1_555
O8E C13 1_555 1_555
O8A C13A 1_555 1_555
O8D C13A 1_555 1_555
O8C Zn3C 1_555 1_555
O8F Zn3F 1_555 1_555
C13A C14A 1_555 1_555
C14A C15A 1_555 1_555
C15A C15 1_555 1_555
C15D C14A 1_555 1_555
C15E C14 1_555 1_555
H7D C15D 1_555 1_555
H7E C15E 1_555 1_555
H7A C15A 1_555 1_555
O3 C1 1_555 1_555
O7 Zn3E 1_555 1_555
Zn3E O8E 1_555 1_555
O3A C1A 1_555 1_555
C2A C3A 1_555 1_555
C2A C4A 1_555 1_555
O5F C5F 1_555 1_555
O5E C5E 1_555 1_555
O5C C5C 1_555 1_555
C6F C7F 1_555 1_555
C6F C8F 1_555 1_555
C7E C8C 1_555 1_555
C7C C8E 1_555 1_555
O7E C9E 1_555 1_555
C10F C12F 1_555 1_555
C11E C12C 1_555 1_555
C11C C12E 1_555 1_555
C15D C15E 1_555 1_555

#END
