
#######################################################################
#
#                 Cambridge Crystallographic Data Centre
#                                CCDC 
#
#######################################################################
#
# If this CIF has been generated from an entry in the Cambridge 
# Structural Database, then it will include bibliographic, chemical, 
# crystal, experimental, refinement or atomic coordinate data resulting 
# from the CCDC's data processing and validation procedures.
#
#######################################################################

data_WASNIO
_symmetry_cell_setting           monoclinic
_symmetry_space_group_name_H-M   'P 2/n'
_symmetry_Int_Tables_number      13
_space_group_name_Hall           '-P 2yac'
loop_
_symmetry_equiv_pos_site_id
_symmetry_equiv_pos_as_xyz
1 x,y,z
2 1/2-x,y,1/2-z
3 -x,-y,-z
4 1/2+x,-y,1/2+z
_cell_length_a                   8.9023(18)
_cell_length_b                   8.7362(17)
_cell_length_c                   24.059(5)
_cell_angle_alpha                90
_cell_angle_beta                 93.75(3)
_cell_angle_gamma                90
_cell_volume                     1867.12
loop_
_atom_site_label
_atom_site_type_symbol
_atom_site_fract_x
_atom_site_fract_y
_atom_site_fract_z
C1 C 0.5322(6) -0.0614(7) 0.3809(2)
H1 H 0.4495 -0.0006 0.3703
C2 C 0.7064(5) -0.1798(5) 0.4296(2)
H2 H 0.7663 -0.2156 0.4599
C3 C 0.7244(6) -0.2160(5) 0.3756(2)
H3 H 0.7975 -0.2796 0.3620
C4 C 0.5817(8) -0.1493(8) 0.2842(3)
H4 H 0.4784 -0.1173 0.2757
H5 H 0.5886 -0.2559 0.2733
C5 C 0.6793(8) -0.0587(10) 0.2488(4)
H6 H 0.6478 -0.0855 0.2107
H7 H 0.6501 0.0472 0.2536
C6 C 0.4215(5) 0.3549(5) 0.35653(14)
H8 H 0.3357 0.3462 0.3763
C7 C 0.5677(5) 0.3581(6) 0.29034(16)
H9 H 0.6035 0.3521 0.2549
C8 C 0.6537(5) 0.3929(6) 0.33765(17)
H10 H 0.7562 0.4140 0.3408
C9 C 0.5999(5) 0.4142(5) 0.43927(14)
H11 H 0.6873 0.4806 0.4430
H12 H 0.6276 0.3167 0.4563
C10 C 0.4734(5) 0.4848(5) 0.46983(14)
H13 H 0.3878 0.4158 0.4684
H14 H 0.4418 0.5800 0.4519
C11 C 0.2248(5) -0.0347(5) 0.45295(16)
C12 C 0.0726(4) -0.0125(5) 0.42267(16)
H15 H -0.0030 -0.0180 0.4499
H16 H 0.0550 -0.0978 0.3973
C13 C 0.0473(5) 0.1337(5) 0.38986(15)
H17 H -0.0598 0.1452 0.3806
H18 H 0.0793 0.2193 0.4134
C14 C 0.1284(5) 0.1420(5) 0.33692(15)
N1 N 0.5853(4) -0.0817(4) 0.43253(15)
N2 N 0.6132(5) -0.1399(5) 0.34519(16)
N3 N 0.4241(4) 0.3339(3) 0.30203(11)
N4 N 0.5572(4) 0.3899(4) 0.37927(12)
O1 O 0.2013(4) 0.0343(3) 0.31994(11)
O2 O 0.1178(3) 0.2715(3) 0.31156(9)
O3 O 0.3197(3) 0.0741(3) 0.45373(11)
O4 O 0.2497(4) -0.1575(4) 0.47695(13)
Cu1 Cu 0.2500 0.28734(7) 0.2500
Cu2 Cu 0.5000 0.0000 0.5000
C1A C 0.9678(6) -0.0614(7) 0.1191(2)
H1A H 1.0505 -0.0006 0.1297
C2A C 0.7936(5) -0.1798(5) 0.0704(2)
H2A H 0.7337 -0.2156 0.0401
C3A C 0.7756(6) -0.2160(5) 0.1244(2)
H3A H 0.7025 -0.2796 0.1380
C4A C 0.9183(8) -0.1493(8) 0.2158(3)
H4A H 1.0216 -0.1173 0.2243
H5A H 0.9114 -0.2559 0.2267
C5A C 0.8207(8) -0.0587(10) 0.2512(4)
H6A H 0.8522 -0.0855 0.2893
H7A H 0.8499 0.0472 0.2464
C6B C 0.5785(5) 0.6451(5) 0.64347(14)
H8B H 0.6643 0.6538 0.6237
C7B C 0.4323(5) 0.6419(6) 0.70966(16)
H9B H 0.3965 0.6479 0.7451
C8B C 0.3463(5) 0.6071(6) 0.66235(17)
H10B H 0.2438 0.5860 0.6592
C9B C 0.4001(5) 0.5858(5) 0.56073(14)
H11B H 0.3127 0.5194 0.5570
H12B H 0.3724 0.6833 0.5437
C10B C 0.5266(5) 0.5152(5) 0.53017(14)
H13B H 0.6122 0.5842 0.5316
H14B H 0.5582 0.4200 0.5481
C11A C 0.2752(5) -0.0347(5) 0.04705(16)
C12A C 0.4274(4) -0.0125(5) 0.07733(16)
H15A H 0.5030 -0.0180 0.0501
H16A H 0.4450 -0.0978 0.1027
C13A C 0.4527(5) 0.1337(5) 0.11014(15)
H17A H 0.5598 0.1452 0.1194
H18A H 0.4207 0.2193 0.0866
C14A C 0.3716(5) 0.1420(5) 0.16308(15)
N1A N 0.9147(4) -0.0817(4) 0.06747(15)
N1B N 0.4147(4) 0.0817(4) 0.56747(15)
N2A N 0.8868(5) -0.1399(5) 0.15481(16)
N3B N 0.5759(4) 0.6661(3) 0.69797(11)
N3A N 0.0759(4) 0.3339(3) 0.19797(11)
N4B N 0.4428(4) 0.6101(4) 0.62073(12)
O1A O 0.2987(4) 0.0343(3) 0.18006(11)
O2A O 0.3822(3) 0.2715(3) 0.18844(9)
O3A O 0.1803(3) 0.0741(3) 0.04627(11)
O3B O 0.6803(3) -0.0741(3) 0.54627(11)
O4A O 0.2503(4) -0.1575(4) 0.02305(13)
Cu1C Cu 0.7500 0.71266(7) 0.7500
Cu2C Cu 1.0000 0.0000 0.0000
Cu2C_2 Cu 0.0000 0.0000 0.0000
O5 O 0.0093(4) 0.5429(4) 0.35076(13)
O6 O 0.0436(5) 0.6033(5) 0.46249(14)
O7 O 0.2265(5) -0.2799(4) 0.30637(18)
loop_
_geom_bond_atom_site_label_1
_geom_bond_atom_site_label_2
_geom_bond_site_symmetry_1
_geom_bond_site_symmetry_2
C1 H1 1_555 1_555
C2 H2 1_555 1_555
C3 C2 1_555 1_555
H3 C3 1_555 1_555
C4 H4 1_555 1_555
H5 C4 1_555 1_555
C5 C4 1_555 1_555
H6 C5 1_555 1_555
H7 C5 1_555 1_555
C6 H8 1_555 1_555
C7 H9 1_555 1_555
C8 C7 1_555 1_555
H10 C8 1_555 1_555
C9 H11 1_555 1_555
H12 C9 1_555 1_555
C10 C9 1_555 1_555
H13 C10 1_555 1_555
H14 C10 1_555 1_555
C11 C12 1_555 1_555
C12 H15 1_555 1_555
H16 C12 1_555 1_555
C13 C12 1_555 1_555
H17 C13 1_555 1_555
H18 C13 1_555 1_555
C14 C13 1_555 1_555
N1 C1 1_555 1_555
N2 C1 1_555 1_555
N3 C6 1_555 1_555
N4 C6 1_555 1_555
O1 C14 1_555 1_555
O2 C14 1_555 1_555
O3 C11 1_555 1_555
O4 C11 1_555 1_555
Cu1 N3 1_555 1_555
Cu2 N1 1_555 1_555
C1A H1A 1_555 1_555
C2A H2A 1_555 1_555
C3A C2A 1_555 1_555
H3A C3A 1_555 1_555
C4A H4A 1_555 1_555
H5A C4A 1_555 1_555
C5A C5 1_555 1_555
H6A C5A 1_555 1_555
H7A C5A 1_555 1_555
C6B H8B 1_555 1_555
C7B H9B 1_555 1_555
C8B C7B 1_555 1_555
H10B C8B 1_555 1_555
C9B H11B 1_555 1_555
H12B C9B 1_555 1_555
C10B C10 1_555 1_555
H13B C10B 1_555 1_555
H14B C10B 1_555 1_555
C11A C12A 1_555 1_555
C12A H15A 1_555 1_555
H16A C12A 1_555 1_555
C13A C12A 1_555 1_555
H17A C13A 1_555 1_555
H18A C13A 1_555 1_555
C14A C13A 1_555 1_555
N1A C1A 1_555 1_555
N1B Cu2 1_555 1_555
N2A C1A 1_555 1_555
N3B C6B 1_555 1_555
N3A Cu1 1_555 1_555
N4B C6B 1_555 1_555
O1A C14A 1_555 1_555
O2A Cu1 1_555 1_555
O3A C11A 1_555 1_555
O3B Cu2 1_555 1_555
O4A C11A 1_555 1_555
Cu1C N3B 1_555 1_555
Cu2C N1A 1_555 1_555
Cu2C_2 O3A 1_555 1_555
C2 N1 1_555 1_555
C3 N2 1_555 1_555
C4 N2 1_555 1_555
C7 N3 1_555 1_555
C8 N4 1_555 1_555
C9 N4 1_555 1_555
O2 Cu1 1_555 1_555
O3 Cu2 1_555 1_555
C2A N1A 1_555 1_555
C3A N2A 1_555 1_555
C4A C5A 1_555 1_555
C4A N2A 1_555 1_555
C7B N3B 1_555 1_555
C8B N4B 1_555 1_555
C9B C10B 1_555 1_555
C9B N4B 1_555 1_555
C14A O2A 1_555 1_555

#END
