
#######################################################################
#
#                 Cambridge Crystallographic Data Centre
#                                CCDC 
#
#######################################################################
#
# If this CIF has been generated from an entry in the Cambridge 
# Structural Database, then it will include bibliographic, chemical, 
# crystal, experimental, refinement or atomic coordinate data resulting 
# from the CCDC's data processing and validation procedures.
#
#######################################################################

data_WAVQER
_symmetry_cell_setting           cubic
_symmetry_space_group_name_H-M   'P 21 3'
_symmetry_Int_Tables_number      198
_space_group_name_Hall           'P 2ac 2ab 3'
loop_
_symmetry_equiv_pos_site_id
_symmetry_equiv_pos_as_xyz
1 x,y,z
2 1/2-x,-y,1/2+z
3 -x,1/2+y,1/2-z
4 1/2+x,1/2-y,-z
5 z,x,y
6 1/2+z,1/2-x,-y
7 1/2-z,-x,1/2+y
8 -z,1/2+x,1/2-y
9 y,z,x
10 -y,1/2+z,1/2-x
11 1/2+y,1/2-z,-x
12 1/2-y,-z,1/2+x
_cell_length_a                   16.8845(2)
_cell_length_b                   16.8845(2)
_cell_length_c                   16.8845(2)
_cell_angle_alpha                90
_cell_angle_beta                 90
_cell_angle_gamma                90
_cell_volume                     4813.54
loop_
_atom_site_label
_atom_site_type_symbol
_atom_site_fract_x
_atom_site_fract_y
_atom_site_fract_z
O10 O 0.8068(9) 1.6932(9) 0.3068(9)
Sm1 Sm 1.08394(3) 1.41606(3) 0.58394(3)
In1 In 0.99224(4) 1.61415(4) 0.54975(4)
O1 O 0.9398(3) 1.5602(3) 0.4398(3)
O2 O 1.0888(4) 1.5426(3) 0.5056(3)
O3 O 1.0384(4) 1.7186(4) 0.4996(4)
O4 O 1.0707(5) 1.3647(4) 0.7172(4)
O5 O 0.8869(4) 1.6632(4) 0.5968(4)
O6 O 0.8851(5) 1.5800(5) 0.7001(4)
C1 C 1.1229(6) 1.6271(5) 0.7738(5)
O7 O 0.9467(5) 1.7432(5) 0.4090(5)
C2 C 1.0957(7) 1.4023(8) 0.9244(6)
H1 H 1.1503 1.4167 0.9180
H2 H 1.0920 1.3566 0.9581
H3 H 1.0673 1.4456 0.9480
O8 O 1.0536(4) 1.6466(4) 0.6541(4)
N1 N 1.0617(5) 1.3841(5) 0.8477(5)
C3 C 1.0583(6) 1.8315(5) 0.4209(6)
C4 C 1.1248(6) 1.8535(6) 0.4632(6)
H4 H 1.1408 1.8233 0.5065
C5 C 1.0879(5) 1.5951(6) 0.6967(5)
C6 C 1.0099(6) 1.7595(6) 0.4436(7)
C7 C 1.1014(7) 1.3855(6) 0.7813(6)
H5 H 1.1538 1.4024 0.7818
C8 C 1.0903(5) 1.6947(6) 0.8094(5)
H6 H 1.0452 1.7183 0.7885
C9 C 0.8593(6) 1.6378(6) 0.6627(6)
C10 C 0.7503(5) 1.6555(5) 0.7618(5)
H7 H 0.7690 1.6113 0.7888
C11 C 0.7893(6) 1.6821(6) 0.6951(6)
C12 C 0.9802(7) 1.3631(8) 0.8487(7)
H8 H 0.9627 1.3526 0.7956
H9 H 0.9498 1.4060 0.8705
H10 H 0.9730 1.3166 0.8806
O9 O 1.0960(4) 1.5242(4) 0.6820(4)
Sm1A Sm 0.41606(3) 1.58394(3) 1.08394(3)
Sm1A_2 Sm 1.41606(3) 1.58394(3) 1.08394(3)
Sm1B Sm 0.91606(3) 1.91606(3) 0.91606(3)
Sm1C Sm 0.58394(3) 2.08394(3) 0.41606(3)
In1D In 0.54975(4) 1.99224(4) 0.61415(4)
In1H In 0.61415(4) 1.54975(4) 0.99224(4)
In1A In 0.50776(4) 1.38585(4) 1.04975(4)
In1C In 0.49224(4) 1.88585(4) 0.45025(4)
In1E In 1.04975(4) 1.50776(4) 0.38585(4)
In1F In 0.95025(4) 2.00776(4) 0.11415(4)
In1G In 0.45025(4) 1.49224(4) 0.88585(4)
In1G_2 In 1.45025(4) 1.49224(4) 0.88585(4)
In1I In 0.38585(4) 2.04975(4) 0.50776(4)
In1I_2 In 1.38585(4) 2.04975(4) 0.50776(4)
In1J In 1.11415(4) 1.95025(4) 1.00776(4)
In1K In 0.88585(4) 1.45025(4) 0.49224(4)
O1A O 0.5602(3) 1.4398(3) 0.9398(3)
O1C O 0.4398(3) 1.9398(3) 0.5602(3)
O2D O 0.5056(3) 2.0888(4) 0.5426(3)
O2H O 0.5426(3) 1.5056(3) 1.0888(4)
O2C O 0.5888(4) 1.9574(3) 0.4944(3)
O2E O 1.0056(3) 1.4112(4) 0.4574(3)
O2G O 0.4944(3) 1.5888(4) 0.9574(3)
O2K O 0.9574(3) 1.4944(3) 0.5888(4)
O3F O 1.0004(4) 1.9616(4) 0.2186(4)
O3I O 1.2814(4) 1.9996(4) 0.4616(4)
O3D O 0.4996(4) 2.0384(4) 0.7186(4)
O3H O 0.7186(4) 1.4996(4) 1.0384(4)
O4E O 1.2172(4) 1.4293(5) 0.6353(4)
O4K O 1.1353(4) 1.2828(4) 0.5707(5)
O5D O 0.5968(4) 1.8869(4) 0.6632(4)
O5H O 0.6632(4) 1.5968(4) 0.8869(4)
O6D O 0.7001(4) 1.8851(5) 0.5800(5)
O6H O 0.5800(5) 1.7001(4) 0.8851(5)
C1G C 1.2262(5) 1.6229(6) 0.8729(5)
C1J C 1.1271(5) 1.7262(5) 0.8771(6)
O7F O 1.0910(5) 2.0533(5) 0.2432(5)
O7I O 1.2568(5) 1.9090(5) 0.5533(5)
C2E C 1.4244(6) 1.4043(7) 0.5977(8)
C2K C 1.0977(8) 1.0756(6) 0.5957(7)
H1E H 1.4180 1.3497 0.5833
H1K H 1.0833 1.0820 0.6503
H2E H 1.4581 1.4080 0.6434
H2K H 1.1434 1.0419 0.5920
H3E H 1.4480 1.4327 0.5544
H3K H 1.0544 1.0520 0.5673
O8G O 1.3459(4) 1.5536(4) 0.8534(4)
O8J O 1.1466(4) 1.8459(4) 0.9464(4)
O8D O 0.6541(4) 2.0536(4) 0.6466(4)
O8H O 0.6466(4) 1.6541(4) 1.0536(4)
N1E N 1.3477(5) 1.4383(5) 0.6159(5)
N1K N 1.1159(5) 1.1523(5) 0.5617(5)
C3F C 1.0791(6) 1.9417(6) 0.3315(5)
C3I C 1.1685(5) 1.9209(6) 0.4417(6)
C4F C 1.0368(6) 1.8752(6) 0.3535(6)
C4I C 1.1465(6) 1.9632(6) 0.3752(6)
H4F H 0.9935 1.8592 0.3233
H4I H 1.1767 2.0065 0.3592
C5G C 1.3033(5) 1.5879(5) 0.9049(6)
C5J C 1.0951(6) 1.8033(5) 0.9121(5)
C6F C 1.0564(7) 1.9901(6) 0.2595(6)
C6I C 1.2405(6) 1.9436(7) 0.4901(6)
C7E C 1.2813(6) 1.3986(7) 0.6145(6)
C7K C 1.1145(6) 1.2187(6) 0.6014(7)
H5E H 1.2818 1.3462 0.5976
H5K H 1.0976 1.2182 0.6538
C8G C 1.1906(5) 1.5903(5) 0.8053(6)
C8J C 1.1947(6) 1.6906(5) 0.9097(5)
H6G H 1.2115 1.5452 0.7817
H6J H 1.2183 1.7115 0.9548
C9D C 0.6627(6) 1.8593(6) 0.6378(6)
C9H C 0.6378(6) 1.6627(6) 0.8593(6)
C10D C 0.7618(5) 1.7503(5) 0.6555(5)
C10H C 0.6555(5) 1.7618(5) 0.7503(5)
H7D H 0.7888 1.7690 0.6113
H7H H 0.6113 1.7888 0.7690
C11D C 0.6951(6) 1.7893(6) 0.6821(6)
C11H C 0.6821(6) 1.6951(6) 0.7893(6)
C12E C 1.3487(7) 1.5198(7) 0.6369(8)
C12K C 1.1369(8) 1.1513(7) 0.4802(7)
H8E H 1.2956 1.5373 0.6474
H8K H 1.1474 1.2044 0.4627
H9E H 1.3705 1.5502 0.5940
H9K H 1.0940 1.1295 0.4498
H10E H 1.3806 1.5270 0.6834
H10K H 1.1834 1.1194 0.4730
O9G O 1.3180(4) 1.5960(4) 0.9758(4)
O9J O 1.0242(4) 1.8180(4) 0.9040(4)
O9E O 1.1820(4) 1.4040(4) 0.4758(4)
O9K O 0.9758(4) 1.3180(4) 0.5960(4)
loop_
_geom_bond_atom_site_label_1
_geom_bond_atom_site_label_2
_geom_bond_site_symmetry_1
_geom_bond_site_symmetry_2
Sm1 O2 1_555 1_555
In1 O1 1_555 1_555
O1 In1E 1_555 1_555
O2 In1 1_555 1_555
O3 In1 1_555 1_555
O4 Sm1 1_555 1_555
O5 In1 1_555 1_555
O6 C9 1_555 1_555
C1 C5 1_555 1_555
O7 C6 1_555 1_555
C2 H1 1_555 1_555
H2 C2 1_555 1_555
H3 C2 1_555 1_555
O8 In1 1_555 1_555
N1 C2 1_555 1_555
C3 C4 1_555 1_555
C4 H4 1_555 1_555
C5 O8 1_555 1_555
C6 O3 1_555 1_555
C7 O4 1_555 1_555
H5 C7 1_555 1_555
C8 C1 1_555 1_555
H6 C8 1_555 1_555
C9 O5 1_555 1_555
C10 H7 1_555 1_555
C11 C9 1_555 1_555
C12 N1 1_555 1_555
H8 C12 1_555 1_555
H9 C12 1_555 1_555
H10 C12 1_555 1_555
O9 Sm1 1_555 1_555
Sm1A O2H 1_555 1_555
Sm1A_2 O9G 1_555 1_555
Sm1B O9J 1_555 1_555
Sm1C O2D 1_555 1_555
In1D O1C 1_555 1_555
In1H O1A 1_555 1_555
In1A O1A 1_555 1_555
In1C O1C 1_555 1_555
In1E O2 1_555 1_555
In1F O3F 1_555 1_555
In1G O1A 1_555 1_555
In1G_2 O8G 1_555 1_555
In1I O1C 1_555 1_555
In1I_2 O3I 1_555 1_555
In1J O8J 1_555 1_555
In1K O1 1_555 1_555
O2D In1D 1_555 1_555
O2H In1H 1_555 1_555
O2C Sm1C 1_555 1_555
O2E Sm1 1_555 1_555
O2G Sm1A 1_555 1_555
O2K Sm1 1_555 1_555
O3F C6F 1_555 1_555
O3I C6I 1_555 1_555
O3D In1D 1_555 1_555
O3H In1H 1_555 1_555
O4E Sm1 1_555 1_555
O4K Sm1 1_555 1_555
O5D In1D 1_555 1_555
O5H In1H 1_555 1_555
O6D C9D 1_555 1_555
O6H C9H 1_555 1_555
C1G C5G 1_555 1_555
C1J C8 1_555 1_555
O7F C6F 1_555 1_555
O7I C6I 1_555 1_555
C2E H1E 1_555 1_555
C2K H1K 1_555 1_555
H2E C2E 1_555 1_555
H2K C2K 1_555 1_555
H3E C2E 1_555 1_555
H3K C2K 1_555 1_555
O8G C5G 1_555 1_555
O8J C5J 1_555 1_555
O8D In1D 1_555 1_555
O8H In1H 1_555 1_555
N1E C2E 1_555 1_555
N1K C2K 1_555 1_555
C3F C4F 1_555 1_555
C3I C4 1_555 1_555
C4F C3 1_555 1_555
C4I C3F 1_555 1_555
H4F C4F 1_555 1_555
H4I C4I 1_555 1_555
C5G O9G 1_555 1_555
C5J C1J 1_555 1_555
C6F C3F 1_555 1_555
C6I C3I 1_555 1_555
C7E O4E 1_555 1_555
C7K O4K 1_555 1_555
H5E C7E 1_555 1_555
H5K C7K 1_555 1_555
C8G C1 1_555 1_555
C8J C1G 1_555 1_555
H6G C8G 1_555 1_555
H6J C8J 1_555 1_555
C9D O5D 1_555 1_555
C9H O5H 1_555 1_555
C10D C11 1_555 1_555
C10H H7H 1_555 1_555
H7D C10D 1_555 1_555
C11D C9D 1_555 1_555
C11H C10 1_555 1_555
C12E N1E 1_555 1_555
C12K N1K 1_555 1_555
H8E C12E 1_555 1_555
H8K C12K 1_555 1_555
H9E C12E 1_555 1_555
H9K C12K 1_555 1_555
H10E C12E 1_555 1_555
H10K C12K 1_555 1_555
O9J C5J 1_555 1_555
O9E Sm1 1_555 1_555
O9K Sm1 1_555 1_555
In1 O2K 1_555 1_555
N1 C7 1_555 1_555
C3 C6 1_555 1_555
C5 O9 1_555 1_555
C10 C11 1_555 1_555
In1D O2C 1_555 1_555
In1H O2G 1_555 1_555
In1A O2H 1_555 1_555
In1C O2C 1_555 1_555
In1E O2E 1_555 1_555
In1G O2G 1_555 1_555
In1I O2D 1_555 1_555
In1K O2E 1_555 1_555
In1K O2K 1_555 1_555
C1G C8G 1_555 1_555
C1J C8J 1_555 1_555
N1E C7E 1_555 1_555
N1K C7K 1_555 1_555
C3I C4I 1_555 1_555
C9H C11H 1_555 1_555
C10D C11D 1_555 1_555
C10H C11D 1_555 1_555
C10H C11H 1_555 1_555

#END
