
#######################################################################
#
#                 Cambridge Crystallographic Data Centre
#                                CCDC 
#
#######################################################################
#
# If this CIF has been generated from an entry in the Cambridge 
# Structural Database, then it will include bibliographic, chemical, 
# crystal, experimental, refinement or atomic coordinate data resulting 
# from the CCDC's data processing and validation procedures.
#
#######################################################################

data_WEBKOF
_symmetry_cell_setting           tetragonal
_symmetry_space_group_name_H-M   'I -4'
_symmetry_Int_Tables_number      82
_space_group_name_Hall           'I -4'
loop_
_symmetry_equiv_pos_site_id
_symmetry_equiv_pos_as_xyz
1 x,y,z
2 -x,-y,z
3 y,-x,-z
4 -y,x,-z
5 1/2+x,1/2+y,1/2+z
6 1/2-x,1/2-y,1/2+z
7 1/2+y,1/2-x,1/2-z
8 1/2-y,1/2+x,1/2-z
_cell_length_a                   22.7219(3)
_cell_length_b                   22.7219(3)
_cell_length_c                   17.3033(6)
_cell_angle_alpha                90
_cell_angle_beta                 90
_cell_angle_gamma                90
_cell_volume                     8933.43
loop_
_atom_site_label
_atom_site_type_symbol
_atom_site_fract_x
_atom_site_fract_y
_atom_site_fract_z
In1 In 0.79933(2) 0.79987(2) 0.40891(3)
In2 In 0.5000 0.5000 0.5000
Zn1 Zn 0.5000 1.0000 0.7500
O1 O 0.7791(3) 0.7582(2) 0.5232(3)
O2 O 0.7304(3) 0.7014(3) 0.7875(3)
O3 O 0.7121(3) 0.8507(3) 0.4388(4)
O4 O 0.6528(3) 0.6481(3) 0.8091(3)
O5 O 0.7303(2) 1.1361(3) 0.6161(3)
O6 O 0.8022(3) 1.1057(3) 0.5409(3)
O7 O 0.7980(3) 0.8902(3) 0.4622(4)
O8 O 0.7332(3) 0.7215(2) 0.4234(3)
O9 O 0.5532(3) 0.5444(3) 0.5907(4)
O10 O 0.5780(3) 0.5640(3) 0.4731(4)
O11 O 0.5721(3) 1.0069(3) 0.6905(5)
O12 O 0.5456(3) 0.9290(3) 0.6174(5)
C1 C 0.6350(4) 0.6096(3) 0.5735(4)
C2 C 0.6418(4) 0.6177(4) 0.6509(6)
H1 H 0.6184 0.5968 0.6854
C3 C 0.7420(4) 0.7238(3) 0.4942(5)
C4 C 0.6841(4) 0.6575(4) 0.6789(4)
C5 C 0.6659(4) 0.6408(4) 0.5231(5)
H2 H 0.6599 0.6349 0.4705
C6 C 0.7186(4) 0.6894(4) 0.6278(5)
H3 H 0.7480 0.7144 0.6458
C7 C 0.5827(5) 0.5707(4) 0.5480(5)
C8 C 0.7079(4) 0.6831(4) 0.5477(5)
C9 C 0.7214(4) 1.0372(3) 0.5706(5)
C10 C 0.6708(4) 1.0296(4) 0.6048(5)
H4 H 0.6557 1.0598 0.6353
C11 C 0.6592(4) 0.9323(4) 0.5470(6)
H5 H 0.6373 0.8989 0.5357
C12 C 0.7148(4) 0.9395(4) 0.5137(6)
C13 C 0.6364(4) 0.9745(4) 0.5966(6)
C14 C 0.7484(4) 0.9919(3) 0.5227(5)
H6 H 0.7850 0.9970 0.4996
C15 C 0.7456(5) 0.8918(4) 0.4609(6)
C16 C 0.5779(5) 0.9684(6) 0.6362(7)
C17 C 0.7516(4) 1.0945(5) 0.5794(5)
C18 C 0.6889(6) 0.6708(4) 0.7635(6)
In1A In 0.20067(2) 0.20013(2) 0.40891(3)
In1B In 0.79987(2) 0.20067(2) 0.59109(3)
In1C In 0.20013(2) 0.79933(2) 0.59109(3)
In1_2 In -0.20067(2) 0.79987(2) 0.40891(3)
In1A_2 In 1.20067(2) 0.20013(2) 0.40891(3)
In1B_2 In 0.79987(2) 1.20067(2) 0.59109(3)
In1C_2 In 0.20013(2) -0.20067(2) 0.59109(3)
In1D In 0.29933(2) 0.29987(2) 0.90891(3)
In1E In 0.70067(2) 0.70013(2) 0.90891(3)
In1F In 0.29987(2) 0.70067(2) 0.09109(3)
In1G In 0.70013(2) 0.29933(2) 0.09109(3)
Zn1_2 Zn 0.5000 0.0000 0.7500
Zn1B Zn 0.0000 0.5000 0.2500
Zn1B_2 Zn 1.0000 0.5000 0.2500
O1A O 0.2209(3) 0.2418(2) 0.5232(3)
O1B O 0.7582(2) 0.2209(3) 0.4768(3)
O1C O 0.2418(2) 0.7791(3) 0.4768(3)
O2A O 0.2696(3) 0.2986(3) 0.7875(3)
O2B O 0.7014(3) 0.2696(3) 0.2125(3)
O2C O 0.2986(3) 0.7304(3) 0.2125(3)
O2D O 0.2304(3) 0.2014(3) 0.2875(3)
O2E O 0.7696(3) 0.7986(3) 0.2875(3)
O2F O 0.2014(3) 0.7696(3) 0.7125(3)
O2G O 0.7986(3) 0.2304(3) 0.7125(3)
O3A O 0.2879(3) 0.1493(3) 0.4388(4)
O3B O 0.8507(3) 0.2879(3) 0.5612(4)
O3C O 0.1493(3) 0.7121(3) 0.5612(4)
O4A O 0.3472(3) 0.3519(3) 0.8091(3)
O4B O 0.6481(3) 0.3472(3) 0.1909(3)
O4C O 0.3519(3) 0.6528(3) 0.1909(3)
O4D O 0.1528(3) 0.1481(3) 0.3091(3)
O4E O 0.8472(3) 0.8519(3) 0.3091(3)
O4F O 0.1481(3) 0.8472(3) 0.6909(3)
O4G O 0.8519(3) 0.1528(3) 0.6909(3)
O5A O 0.2697(2) -0.1361(3) 0.6161(3)
O5B O 1.1361(3) 0.2697(2) 0.3839(3)
O5C O -0.1361(3) 0.7303(2) 0.3839(3)
O5_2 O 0.7303(2) 0.1361(3) 0.6161(3)
O5A_2 O 0.2697(2) 0.8639(3) 0.6161(3)
O5B_2 O 0.1361(3) 0.2697(2) 0.3839(3)
O5C_2 O 0.8639(3) 0.7303(2) 0.3839(3)
O6A O 0.1978(3) -0.1057(3) 0.5409(3)
O6B O 1.1057(3) 0.1978(3) 0.4591(3)
O6C O -0.1057(3) 0.8022(3) 0.4591(3)
O6_2 O 0.8022(3) 0.1057(3) 0.5409(3)
O6A_2 O 0.1978(3) 0.8943(3) 0.5409(3)
O6B_2 O 0.1057(3) 0.1978(3) 0.4591(3)
O6C_2 O 0.8943(3) 0.8022(3) 0.4591(3)
O7A O 0.2020(3) 0.1098(3) 0.4622(4)
O7B O 0.8902(3) 0.2020(3) 0.5378(4)
O7C O 0.1098(3) 0.7980(3) 0.5378(4)
O8A O 0.2668(3) 0.2785(2) 0.4234(3)
O8B O 0.7215(2) 0.2668(3) 0.5766(3)
O8C O 0.2785(2) 0.7332(3) 0.5766(3)
O9A O 0.4468(3) 0.4556(3) 0.5907(4)
O9B O 0.5444(3) 0.4468(3) 0.4093(4)
O9C O 0.4556(3) 0.5532(3) 0.4093(4)
O10A O 0.4220(3) 0.4360(3) 0.4731(4)
O10B O 0.5640(3) 0.4220(3) 0.5269(4)
O10C O 0.4360(3) 0.5780(3) 0.5269(4)
O11A O 0.4279(3) -0.0069(3) 0.6905(5)
O11B O 1.0069(3) 0.4279(3) 0.3095(5)
O11C O -0.0069(3) 0.5721(3) 0.3095(5)
O11A_2 O 0.4279(3) 0.9931(3) 0.6905(5)
O11F O 0.5069(3) 0.9279(3) 0.8095(5)
O11G O 0.4931(3) 1.0721(3) 0.8095(5)
O12A O 0.4544(3) 0.0710(3) 0.6174(5)
O12B O 0.9290(3) 0.4544(3) 0.3826(5)
O12C O 0.0710(3) 0.5456(3) 0.3826(5)
C1A C 0.3650(4) 0.3904(3) 0.5735(4)
C1B C 0.6096(3) 0.3650(4) 0.4265(4)
C1C C 0.3904(3) 0.6350(4) 0.4265(4)
C2A C 0.3582(4) 0.3823(4) 0.6509(6)
C2B C 0.6177(4) 0.3582(4) 0.3491(6)
C2C C 0.3823(4) 0.6418(4) 0.3491(6)
H1A H 0.3816 0.4032 0.6854
H1B H 0.5968 0.3816 0.3146
H1C H 0.4032 0.6184 0.3146
C3A C 0.2580(4) 0.2762(3) 0.4942(5)
C3B C 0.7238(3) 0.2580(4) 0.5058(5)
C3C C 0.2762(3) 0.7420(4) 0.5058(5)
C4A C 0.3159(4) 0.3425(4) 0.6789(4)
C4B C 0.6575(4) 0.3159(4) 0.3211(4)
C4C C 0.3425(4) 0.6841(4) 0.3211(4)
C5A C 0.3341(4) 0.3592(4) 0.5231(5)
C5B C 0.6408(4) 0.3341(4) 0.4769(5)
C5C C 0.3592(4) 0.6659(4) 0.4769(5)
H2A H 0.3401 0.3651 0.4705
H2B H 0.6349 0.3401 0.5295
H2C H 0.3651 0.6599 0.5295
C6A C 0.2814(4) 0.3106(4) 0.6278(5)
C6B C 0.6894(4) 0.2814(4) 0.3722(5)
C6C C 0.3106(4) 0.7186(4) 0.3722(5)
H3A H 0.2520 0.2856 0.6458
H3B H 0.7144 0.2520 0.3542
H3C H 0.2856 0.7480 0.3542
C7A C 0.4173(5) 0.4293(4) 0.5480(5)
C7B C 0.5707(4) 0.4173(5) 0.4520(5)
C7C C 0.4293(4) 0.5827(5) 0.4520(5)
C8A C 0.2921(4) 0.3169(4) 0.5477(5)
C8B C 0.6831(4) 0.2921(4) 0.4523(5)
C8C C 0.3169(4) 0.7079(4) 0.4523(5)
C9A C 0.2786(4) -0.0372(3) 0.5706(5)
C9B C 1.0372(3) 0.2786(4) 0.4294(5)
C9C C -0.0372(3) 0.7214(4) 0.4294(5)
C10A C 0.3292(4) -0.0296(4) 0.6048(5)
C10B C 1.0296(4) 0.3292(4) 0.3952(5)
C10C C -0.0296(4) 0.6708(4) 0.3952(5)
H4A H 0.3443 -0.0598 0.6353
H4B H 1.0598 0.3443 0.3647
H4C H -0.0598 0.6557 0.3647
C11A C 0.3408(4) 0.0677(4) 0.5470(6)
C11B C 0.9323(4) 0.3408(4) 0.4530(6)
C11C C 0.0677(4) 0.6592(4) 0.4530(6)
H5A H 0.3627 0.1011 0.5357
H5B H 0.8989 0.3627 0.4643
H5C H 0.1011 0.6373 0.4643
C12A C 0.2852(4) 0.0605(4) 0.5137(6)
C12B C 0.9395(4) 0.2852(4) 0.4863(6)
C12C C 0.0605(4) 0.7148(4) 0.4863(6)
C13A C 0.3636(4) 0.0255(4) 0.5966(6)
C13B C 0.9745(4) 0.3636(4) 0.4034(6)
C13C C 0.0255(4) 0.6364(4) 0.4034(6)
C14A C 0.2516(4) 0.0081(3) 0.5227(5)
C14B C 0.9919(3) 0.2516(4) 0.4773(5)
C14C C 0.0081(3) 0.7484(4) 0.4773(5)
H6A H 0.2150 0.0030 0.4996
H6B H 0.9970 0.2150 0.5004
H6C H 0.0030 0.7850 0.5004
C15A C 0.2544(5) 0.1082(4) 0.4609(6)
C15B C 0.8918(4) 0.2544(5) 0.5391(6)
C15C C 0.1082(4) 0.7456(5) 0.5391(6)
C16A C 0.4221(5) 0.0316(6) 0.6362(7)
C16B C 0.9684(6) 0.4221(5) 0.3638(7)
C16C C 0.0316(6) 0.5779(5) 0.3638(7)
C17A C 0.2484(4) -0.0945(5) 0.5794(5)
C17B C 1.0945(5) 0.2484(4) 0.4206(5)
C17C C -0.0945(5) 0.7516(4) 0.4206(5)
C17_2 C 0.7516(4) 0.0945(5) 0.5794(5)
C17A_2 C 0.2484(4) 0.9055(5) 0.5794(5)
C17B_2 C 0.0945(5) 0.2484(4) 0.4206(5)
C17C_2 C 0.9055(5) 0.7516(4) 0.4206(5)
C18A C 0.3111(6) 0.3292(4) 0.7635(6)
C18B C 0.6708(4) 0.3111(6) 0.2365(6)
C18C C 0.3292(4) 0.6889(6) 0.2365(6)
C18D C 0.1889(6) 0.1708(4) 0.2635(6)
C18E C 0.8111(6) 0.8292(4) 0.2635(6)
C18F C 0.1708(4) 0.8111(6) 0.7365(6)
C18G C 0.8292(4) 0.1889(6) 0.7365(6)
loop_
_geom_bond_atom_site_label_1
_geom_bond_atom_site_label_2
_geom_bond_site_symmetry_1
_geom_bond_site_symmetry_2
In1 O1 1_555 1_555
In2 O9 1_555 1_555
Zn1 O11 1_555 1_555
O1 C3 1_555 1_555
O2 C18 1_555 1_555
O3 In1 1_555 1_555
O4 C18 1_555 1_555
O5 C17 1_555 1_555
O6 C17 1_555 1_555
O7 In1 1_555 1_555
O8 In1 1_555 1_555
O9 C7 1_555 1_555
O10 In2 1_555 1_555
O11 C16 1_555 1_555
O12 C16 1_555 1_555
C1 C2 1_555 1_555
C2 H1 1_555 1_555
C3 O8 1_555 1_555
C4 C2 1_555 1_555
C5 C1 1_555 1_555
H2 C5 1_555 1_555
C6 C4 1_555 1_555
H3 C6 1_555 1_555
C7 O10 1_555 1_555
C8 C3 1_555 1_555
C9 C10 1_555 1_555
C10 H4 1_555 1_555
C11 H5 1_555 1_555
C12 C11 1_555 1_555
C13 C10 1_555 1_555
C14 C9 1_555 1_555
H6 C14 1_555 1_555
C15 O3 1_555 1_555
C16 C13 1_555 1_555
C17 C9 1_555 1_555
C18 C4 1_555 1_555
In1A O1A 1_555 1_555
In1B O1B 1_555 1_555
In1C O1C 1_555 1_555
In1_2 O5C 1_555 1_555
In1A_2 O5B 1_555 1_555
In1B_2 O5 1_555 1_555
In1C_2 O5A 1_555 1_555
In1D O2A 1_555 1_555
In1E O2 1_555 1_555
In1F O2C 1_555 1_555
In1G O2B 1_555 1_555
Zn1_2 O11A 1_555 1_555
Zn1B O11C 1_555 1_555
Zn1B_2 O11B 1_555 1_555
O1A C3A 1_555 1_555
O1B C3B 1_555 1_555
O1C C3C 1_555 1_555
O2A C18A 1_555 1_555
O2B C18B 1_555 1_555
O2C C18C 1_555 1_555
O2D In1A 1_555 1_555
O2E In1 1_555 1_555
O2F In1C 1_555 1_555
O2G In1B 1_555 1_555
O3A In1A 1_555 1_555
O3B In1B 1_555 1_555
O3C In1C 1_555 1_555
O4A In1D 1_555 1_555
O4B In1G 1_555 1_555
O4C In1F 1_555 1_555
O4D In1A 1_555 1_555
O4E In1 1_555 1_555
O4F In1C 1_555 1_555
O4G In1B 1_555 1_555
O5A C17A 1_555 1_555
O5B C17B 1_555 1_555
O5C C17C 1_555 1_555
O5_2 In1B 1_555 1_555
O5A_2 In1C 1_555 1_555
O5B_2 In1A 1_555 1_555
O5C_2 In1 1_555 1_555
O6A In1C_2 1_555 1_555
O6B In1A_2 1_555 1_555
O6C In1_2 1_555 1_555
O6_2 In1B 1_555 1_555
O6A_2 In1C 1_555 1_555
O6B_2 In1A 1_555 1_555
O6C_2 In1 1_555 1_555
O7A In1A 1_555 1_555
O7B In1B 1_555 1_555
O7C In1C 1_555 1_555
O8A In1A 1_555 1_555
O8B In1B 1_555 1_555
O8C In1C 1_555 1_555
O9A In2 1_555 1_555
O9B In2 1_555 1_555
O9C In2 1_555 1_555
O10A In2 1_555 1_555
O10B In2 1_555 1_555
O10C In2 1_555 1_555
O11A C16A 1_555 1_555
O11B C16B 1_555 1_555
O11C C16C 1_555 1_555
O11A_2 Zn1 1_555 1_555
O11F Zn1 1_555 1_555
O11G Zn1 1_555 1_555
O12A C16A 1_555 1_555
O12B C16B 1_555 1_555
O12C C16C 1_555 1_555
C1A C2A 1_555 1_555
C1B C2B 1_555 1_555
C1C C2C 1_555 1_555
C2A H1A 1_555 1_555
C2B H1B 1_555 1_555
C2C H1C 1_555 1_555
C3A O8A 1_555 1_555
C3B O8B 1_555 1_555
C3C O8C 1_555 1_555
C4A C2A 1_555 1_555
C4B C2B 1_555 1_555
C4C C2C 1_555 1_555
C5A C1A 1_555 1_555
C5B C1B 1_555 1_555
C5C C1C 1_555 1_555
H2A C5A 1_555 1_555
H2B C5B 1_555 1_555
H2C C5C 1_555 1_555
C6A C4A 1_555 1_555
C6B C4B 1_555 1_555
C6C C4C 1_555 1_555
H3A C6A 1_555 1_555
H3B C6B 1_555 1_555
H3C C6C 1_555 1_555
C7A O9A 1_555 1_555
C7B O9B 1_555 1_555
C7C O9C 1_555 1_555
C8A C3A 1_555 1_555
C8B C3B 1_555 1_555
C8C C3C 1_555 1_555
C9A C10A 1_555 1_555
C9B C10B 1_555 1_555
C9C C10C 1_555 1_555
C10A H4A 1_555 1_555
C10B H4B 1_555 1_555
C10C H4C 1_555 1_555
C11A H5A 1_555 1_555
C11B H5B 1_555 1_555
C11C H5C 1_555 1_555
C12A C11A 1_555 1_555
C12B C11B 1_555 1_555
C12C C11C 1_555 1_555
C13A C10A 1_555 1_555
C13B C10B 1_555 1_555
C13C C10C 1_555 1_555
C14A C9A 1_555 1_555
C14B C9B 1_555 1_555
C14C C9C 1_555 1_555
H6A C14A 1_555 1_555
H6B C14B 1_555 1_555
H6C C14C 1_555 1_555
C15A O3A 1_555 1_555
C15B O3B 1_555 1_555
C15C O3C 1_555 1_555
C16A C13A 1_555 1_555
C16B C13B 1_555 1_555
C16C C13C 1_555 1_555
C17A O6A 1_555 1_555
C17B O6B 1_555 1_555
C17C O6C 1_555 1_555
C17_2 O5_2 1_555 1_555
C17A_2 O5A_2 1_555 1_555
C17B_2 O5B_2 1_555 1_555
C17C_2 O5C_2 1_555 1_555
C18A O4A 1_555 1_555
C18B O4B 1_555 1_555
C18C O4C 1_555 1_555
C18D O2D 1_555 1_555
C18E O2E 1_555 1_555
C18F O2F 1_555 1_555
C18G O2G 1_555 1_555
O4 In1E 1_555 1_555
O6 In1B_2 1_555 1_555
O7 C15 1_555 1_555
C1 C7 1_555 1_555
C5 C8 1_555 1_555
C6 C8 1_555 1_555
C11 C13 1_555 1_555
C12 C14 1_555 1_555
C12 C15 1_555 1_555
O4D C18D 1_555 1_555
O4E C18E 1_555 1_555
O4F C18F 1_555 1_555
O4G C18G 1_555 1_555
O6_2 C17_2 1_555 1_555
O6A_2 C17A_2 1_555 1_555
O6B_2 C17B_2 1_555 1_555
O6C_2 C17C_2 1_555 1_555
O7A C15A 1_555 1_555
O7B C15B 1_555 1_555
O7C C15C 1_555 1_555
O10A C7A 1_555 1_555
O10B C7B 1_555 1_555
O10C C7C 1_555 1_555
C1A C7A 1_555 1_555
C1B C7B 1_555 1_555
C1C C7C 1_555 1_555
C4A C18A 1_555 1_555
C4B C18B 1_555 1_555
C4C C18C 1_555 1_555
C5A C8A 1_555 1_555
C5B C8B 1_555 1_555
C5C C8C 1_555 1_555
C6A C8A 1_555 1_555
C6B C8B 1_555 1_555
C6C C8C 1_555 1_555
C9A C17A 1_555 1_555
C9B C17B 1_555 1_555
C9C C17C 1_555 1_555
C11A C13A 1_555 1_555
C11B C13B 1_555 1_555
C11C C13C 1_555 1_555
C12A C14A 1_555 1_555
C12A C15A 1_555 1_555
C12B C14B 1_555 1_555
C12B C15B 1_555 1_555
C12C C14C 1_555 1_555
C12C C15C 1_555 1_555

#END
