
#######################################################################
#
#                 Cambridge Crystallographic Data Centre
#                                CCDC 
#
#######################################################################
#
# If this CIF has been generated from an entry in the Cambridge 
# Structural Database, then it will include bibliographic, chemical, 
# crystal, experimental, refinement or atomic coordinate data resulting 
# from the CCDC's data processing and validation procedures.
#
#######################################################################

data_WEBREC
_symmetry_cell_setting           monoclinic
_symmetry_space_group_name_H-M   'P 21/c'
_symmetry_Int_Tables_number      14
_space_group_name_Hall           '-P 2ybc'
loop_
_symmetry_equiv_pos_site_id
_symmetry_equiv_pos_as_xyz
1 x,y,z
2 -x,1/2+y,1/2-z
3 -x,-y,-z
4 x,1/2-y,1/2+z
_cell_length_a                   13.289(3)
_cell_length_b                   16.467(3)
_cell_length_c                   13.711(3)
_cell_angle_alpha                90
_cell_angle_beta                 117.02(3)
_cell_angle_gamma                90
_cell_volume                     2672.88
loop_
_atom_site_label
_atom_site_type_symbol
_atom_site_fract_x
_atom_site_fract_y
_atom_site_fract_z
Zn1 Zn 0.907483(13) 0.497043(8) 0.885779(12)
O1 O 1.00783(10) 0.57389(7) 0.85321(9)
O2 O 1.14083(10) 0.58118(7) 1.02770(10)
O3 O 1.36076(11) 0.83324(7) 1.03387(10)
O4 O 1.55446(12) 0.73153(11) 1.46424(11)
O5 O 1.86414(10) 0.90871(7) 1.45701(9)
O6 O 1.99928(10) 0.90510(7) 1.63073(9)
N1 N 0.76121(11) 0.49957(6) 0.74219(10)
C1 C 0.66289(13) 0.48816(10) 0.74632(12)
H1 H 0.6645 0.4797 0.8141
C2 C 0.55939(13) 0.48847(10) 0.65348(12)
H2 H 0.4933 0.4807 0.6598
C3 C 0.55436(11) 0.50039(6) 0.55088(10)
C4 C 0.65707(12) 0.51272(9) 0.54766(11)
H3 H 0.6582 0.5212 0.4811
C5 C 0.75717(12) 0.51211(9) 0.64454(12)
H4 H 0.8246 0.5209 0.641
C6 C 1.09726(11) 0.60226(8) 0.92885(11)
C7 C 1.15588(11) 0.66847(8) 0.89907(11)
C8 C 1.12805(12) 0.68488(9) 0.79015(11)
H5 H 1.075 0.6531 0.7345
C9 C 1.18058(13) 0.74952(9) 0.76525(12)
H6 H 1.1625 0.7606 0.6926
C10 C 1.25938(13) 0.79730(9) 0.84786(13)
H7 H 1.2943 0.8401 0.8309
C11 C 1.28580(12) 0.78064(8) 0.95650(12)
C12 C 1.23548(12) 0.71594(8) 0.98279(11)
H8 H 1.2547 0.7044 1.0555
C13 C 1.41073(13) 0.80725(9) 1.14178(13)
C14 C 1.47883(14) 0.73880(11) 1.17201(14)
H9 H 1.4906 0.7097 1.12
C15 C 1.52930(14) 0.71402(12) 1.28062(14)
H10 H 1.5751 0.6681 1.3023
C16 C 1.51019(15) 0.75895(12) 1.35625(14)
C17 C 1.44413(17) 0.82800(12) 1.32652(15)
H11 H 1.4337 0.8577 1.3789
C18 C 1.39339(16) 0.85277(10) 1.21783(15)
H12 H 1.3485 0.8991 1.1965
C19 C 1.66481(13) 0.75077(9) 1.53263(12)
C20 C 1.71022(14) 0.71445(9) 1.63593(14)
H13 H 1.6668 0.6789 1.6539
C21 C 1.82034(14) 0.73183(10) 1.71136(14)
H14 H 1.8515 0.7071 1.7798
C22 C 1.88462(12) 0.78629(9) 1.68498(12)
H15 H 1.9582 0.7983 1.7362
C23 C 1.83872(11) 0.82273(8) 1.58186(11)
C24 C 1.72830(13) 0.80458(9) 1.50442(12)
H16 H 1.6977 0.828 1.4352
C25 C 1.90600(11) 0.88335(7) 1.55409(11)
Zn1B Zn 0.092517(13) 0.502957(8) 0.114221(12)
Zn1_2 Zn -0.092517(13) 0.497043(8) -0.114221(12)
Zn1A Zn -0.907483(13) -0.002957(8) -0.385779(12)
Zn1A_2 Zn 2.092517(13) 0.997043(8) 1.614221(12)
Zn1B_2 Zn 1.092517(13) 0.502957(8) 1.114221(12)
Zn1C Zn -1.092517(13) 0.002957(8) -0.614221(12)
Zn1C_2 Zn 1.907483(13) 1.002957(8) 1.385779(12)
O1B O -0.00783(10) 0.42611(7) 0.14679(9)
O2B O -0.14083(10) 0.41882(7) -0.02770(10)
O2_2 O 0.14083(10) 0.58118(7) 0.02770(10)
O2B_2 O 0.85917(10) 0.41882(7) 0.97230(10)
O3B O -0.36076(11) 0.16676(7) -0.03387(10)
O4B O -0.55446(12) 0.26847(11) -0.46424(11)
O5B O -0.86414(10) 0.09129(7) -0.45701(9)
O5A O 0.13586(10) 0.40871(7) 0.04299(9)
O5C O 0.86414(10) 0.59129(7) 0.95701(9)
O6B O -0.99928(10) 0.09490(7) -0.63073(9)
O6A O 1.00072(10) 0.40510(7) 0.86927(9)
O6C O -0.00072(10) 0.59490(7) 0.13073(9)
N1B N 0.23879(11) 0.50043(6) 0.25781(10)
C1B C 0.33711(13) 0.51184(10) 0.25368(12)
H1B H 0.3355 0.5203 0.1859
C2B C 0.44061(13) 0.51153(10) 0.34652(12)
H2B H 0.5067 0.5193 0.3402
C3B C 0.44564(11) 0.49961(6) 0.44912(10)
C4B C 0.34293(12) 0.48728(9) 0.45234(11)
H3B H 0.3418 0.4788 0.5189
C5B C 0.24283(12) 0.48789(9) 0.35546(12)
H4B H 0.1754 0.4791 0.359
C6B C -0.09726(11) 0.39774(8) 0.07115(11)
C7B C -0.15588(11) 0.33153(8) 0.10093(11)
C8B C -0.12805(12) 0.31512(9) 0.20985(11)
H5B H -0.075 0.3469 0.2655
C9B C -0.18058(13) 0.25048(9) 0.23475(12)
H6B H -0.1625 0.2394 0.3074
C10B C -0.25938(13) 0.20270(9) 0.15214(13)
H7B H -0.2943 0.1599 0.1691
C11B C -0.28580(12) 0.21936(8) 0.04350(12)
C12B C -0.23548(12) 0.28406(8) 0.01721(11)
H8B H -0.2547 0.2956 -0.0555
C13B C -0.41073(13) 0.19275(9) -0.14178(13)
C14B C -0.47883(14) 0.26120(11) -0.17201(14)
H9B H -0.4906 0.2903 -0.12
C15B C -0.52930(14) 0.28598(12) -0.28062(14)
H10B H -0.5751 0.3319 -0.3023
C16B C -0.51019(15) 0.24105(12) -0.35625(14)
C17B C -0.44413(17) 0.17200(12) -0.32652(15)
H11B H -0.4337 0.1423 -0.3789
C18B C -0.39339(16) 0.14723(10) -0.21783(15)
H12B H -0.3485 0.1009 -0.1965
C19B C -0.66481(13) 0.24923(9) -0.53263(12)
C20B C -0.71022(14) 0.28555(9) -0.63593(14)
H13B H -0.6668 0.3211 -0.6539
C21B C -0.82034(14) 0.26817(10) -0.71136(14)
H14B H -0.8515 0.2929 -0.7798
C22B C -0.88462(12) 0.21371(9) -0.68498(12)
H15B H -0.9582 0.2017 -0.7362
C23B C -0.83872(11) 0.17727(8) -0.58186(11)
C24B C -0.72830(13) 0.19542(9) -0.50442(12)
H16B H -0.6977 0.172 -0.4352
C25B C -0.90600(11) 0.11665(7) -0.55409(11)
N2 N 0.08082(14) 0.09720(11) 0.08985(14)
O7 O 0.26265(16) 0.05701(13) 0.14031(16)
C26 C 0.18062(19) 0.10275(14) 0.09018(18)
H17 H 0.19 0.1445 0.0494
C27 C 0.0590(2) 0.03388(16) 0.1512(2)
H18 H -0.0166 0.0393 0.1423
H19 H 0.1116 0.0387 0.2274
H20 H 0.0676 -0.0183 0.1246
C28 C -0.0082(2) 0.1542(2) 0.0282(2)
H21 H -0.0737 0.1418 0.0378
H22 H -0.0269 0.1505 -0.0481
H23 H 0.0169 0.2083 0.0538
loop_
_geom_bond_atom_site_label_1
_geom_bond_atom_site_label_2
_geom_bond_site_symmetry_1
_geom_bond_site_symmetry_2
Zn1 O1 1_555 1_555
O1 C6 1_555 1_555
O2 C6 1_555 1_555
O3 C11 1_555 1_555
O4 C16 1_555 1_555
O5 C25 1_555 1_555
O6 C25 1_555 1_555
N1 Zn1 1_555 1_555
C1 N1 1_555 1_555
H1 C1 1_555 1_555
C2 C1 1_555 1_555
H2 C2 1_555 1_555
C3 C2 1_555 1_555
C4 C3 1_555 1_555
H3 C4 1_555 1_555
C5 N1 1_555 1_555
H4 C5 1_555 1_555
C6 C7 1_555 1_555
C7 C8 1_555 1_555
C8 H5 1_555 1_555
C9 C8 1_555 1_555
H6 C9 1_555 1_555
C10 C9 1_555 1_555
H7 C10 1_555 1_555
C11 C10 1_555 1_555
C12 C7 1_555 1_555
H8 C12 1_555 1_555
C13 O3 1_555 1_555
C14 C13 1_555 1_555
H9 C14 1_555 1_555
C15 C14 1_555 1_555
H10 C15 1_555 1_555
C16 C15 1_555 1_555
C17 C16 1_555 1_555
H11 C17 1_555 1_555
C18 C13 1_555 1_555
H12 C18 1_555 1_555
C19 O4 1_555 1_555
C20 C19 1_555 1_555
H13 C20 1_555 1_555
C21 C20 1_555 1_555
H14 C21 1_555 1_555
C22 C21 1_555 1_555
H15 C22 1_555 1_555
C23 C22 1_555 1_555
C24 C19 1_555 1_555
H16 C24 1_555 1_555
C25 C23 1_555 1_555
N2 C26 1_555 1_555
O7 C26 1_555 1_555
C26 H17 1_555 1_555
C27 N2 1_555 1_555
H18 C27 1_555 1_555
H19 C27 1_555 1_555
H20 C27 1_555 1_555
C28 N2 1_555 1_555
H21 C28 1_555 1_555
H22 C28 1_555 1_555
H23 C28 1_555 1_555
Zn1B O1B 1_555 1_555
Zn1_2 O2B 1_555 1_555
Zn1A O5B 1_555 1_555
Zn1A_2 O6 1_555 1_555
Zn1B_2 O2 1_555 1_555
Zn1C O6B 1_555 1_555
Zn1C_2 O5 1_555 1_555
O1B C6B 1_555 1_555
O2B C6B 1_555 1_555
O2_2 Zn1B 1_555 1_555
O2B_2 Zn1 1_555 1_555
O3B C11B 1_555 1_555
O4B C16B 1_555 1_555
O5B C25B 1_555 1_555
O5A Zn1B 1_555 1_555
O5C Zn1 1_555 1_555
O6B C25B 1_555 1_555
O6A Zn1 1_555 1_555
O6C Zn1B 1_555 1_555
N1B Zn1B 1_555 1_555
C1B N1B 1_555 1_555
H1B C1B 1_555 1_555
C2B C1B 1_555 1_555
H2B C2B 1_555 1_555
C3B C3 1_555 1_555
C4B C3B 1_555 1_555
H3B C4B 1_555 1_555
C5B N1B 1_555 1_555
H4B C5B 1_555 1_555
C6B C7B 1_555 1_555
C7B C8B 1_555 1_555
C8B H5B 1_555 1_555
C9B C8B 1_555 1_555
H6B C9B 1_555 1_555
C10B C9B 1_555 1_555
H7B C10B 1_555 1_555
C11B C10B 1_555 1_555
C12B C7B 1_555 1_555
H8B C12B 1_555 1_555
C13B O3B 1_555 1_555
C14B C13B 1_555 1_555
H9B C14B 1_555 1_555
C15B C14B 1_555 1_555
H10B C15B 1_555 1_555
C16B C15B 1_555 1_555
C17B C16B 1_555 1_555
H11B C17B 1_555 1_555
C18B C13B 1_555 1_555
H12B C18B 1_555 1_555
C19B O4B 1_555 1_555
C20B C19B 1_555 1_555
H13B C20B 1_555 1_555
C21B C20B 1_555 1_555
H14B C21B 1_555 1_555
C22B C21B 1_555 1_555
H15B C22B 1_555 1_555
C23B C22B 1_555 1_555
C24B C19B 1_555 1_555
H16B C24B 1_555 1_555
C25B C23B 1_555 1_555
C4 C5 1_555 1_555
C11 C12 1_555 1_555
C17 C18 1_555 1_555
C23 C24 1_555 1_555
C2B C3B 1_555 1_555
C4B C5B 1_555 1_555
C11B C12B 1_555 1_555
C17B C18B 1_555 1_555
C23B C24B 1_555 1_555

#END
