
#######################################################################
#
#                 Cambridge Crystallographic Data Centre
#                                CCDC 
#
#######################################################################
#
# If this CIF has been generated from an entry in the Cambridge 
# Structural Database, then it will include bibliographic, chemical, 
# crystal, experimental, refinement or atomic coordinate data resulting 
# from the CCDC's data processing and validation procedures.
#
#######################################################################

data_WECFAN
_symmetry_cell_setting           monoclinic
_symmetry_space_group_name_H-M   'P 21/c'
_symmetry_Int_Tables_number      14
_space_group_name_Hall           '-P 2ybc'
loop_
_symmetry_equiv_pos_site_id
_symmetry_equiv_pos_as_xyz
1 x,y,z
2 -x,1/2+y,1/2-z
3 -x,-y,-z
4 x,1/2-y,1/2+z
_cell_length_a                   15.771(2)
_cell_length_b                   14.711(2)
_cell_length_c                   8.3852(12)
_cell_angle_alpha                90
_cell_angle_beta                 102.485(2)
_cell_angle_gamma                90
_cell_volume                     1899.42
loop_
_atom_site_label
_atom_site_type_symbol
_atom_site_fract_x
_atom_site_fract_y
_atom_site_fract_z
Co1 Co 0.38970(2) 0.08276(2) 0.83167(4)
O1 O 0.35476(12) 0.21783(12) 0.8574(2)
O2 O 0.40607(12) 0.35944(12) 0.8657(2)
O3 O 0.45189(11) 0.43016(11) 0.5726(2)
O4 O 0.58261(11) 0.45303(11) 0.7320(2)
O5 O 0.31367(13) 0.08868(13) 0.5833(2)
H1 H 0.2718 0.1263 0.5700
H2 H 0.3441 0.1114 0.5211
N1 N 0.49320(13) 0.15422(13) 0.7610(2)
N2 N 0.27541(14) 0.03362(15) 0.9033(3)
C1 C 0.48099(15) 0.24476(16) 0.7542(3)
C2 C 0.53517(16) 0.30221(16) 0.6900(3)
C3 C 0.60546(16) 0.26388(18) 0.6416(3)
H3 H 0.6437 0.3012 0.6017
C4 C 0.62042(17) 0.17111(18) 0.6513(3)
C5 C 0.56109(17) 0.11853(17) 0.7108(3)
H4 H 0.5688 0.0558 0.7161
C6 C 0.40834(16) 0.27797(17) 0.8312(3)
C7 C 0.52047(16) 0.40319(16) 0.6638(3)
C8 C 0.69617(19) 0.1265(2) 0.5991(5)
H5 H 0.7063 0.0678 0.6528
H6 H 0.6800 0.1153 0.4825
C9 C 0.7779(2) 0.1773(3) 0.6335(7)
H7 H 0.7721 0.2307 0.5663
H8 H 0.8236 0.1397 0.6102
H9 H 0.7918 0.1947 0.7465
C10 C 0.2558(2) 0.0640(2) 1.0405(4)
H10 H 0.2952 0.1019 1.1080
C11 C 0.1798(2) 0.0420(3) 1.0870(4)
H11 H 0.1689 0.0653 1.1839
C12 C 0.12006(19) -0.0137(2) 0.9920(4)
C13 C 0.1426(2) -0.0484(3) 0.8545(5)
H12 H 0.1058 -0.0893 0.7885
C14 C 0.2194(2) -0.0228(2) 0.8140(4)
H13 H 0.2324 -0.0464 0.7192
C15 C 0.0343(2) -0.0344(3) 1.0351(5)
H14 H 0.0419 -0.0354 1.1530
H15 H 0.0150 -0.0943 0.9941
Co1B Co -0.38970(2) -0.08276(2) 1.16833(4)
Co1A Co -0.38970(2) -0.41724(2) 1.66833(4)
Co1A_2 Co 0.61030(2) 0.58276(2) 0.66833(4)
Co1C Co -0.61030(2) -0.58276(2) 1.33167(4)
Co1C_2 Co 0.38970(2) 0.41724(2) 0.33167(4)
O1B O -0.35476(12) -0.21783(12) 1.1426(2)
O2B O -0.40607(12) -0.35944(12) 1.1343(2)
O3B O -0.45189(11) -0.43016(11) 1.4274(2)
O3A O -0.45189(11) -0.06984(11) 0.9274(2)
O3C O 0.45189(11) 0.06984(11) 1.0726(2)
O4B O -0.58261(11) -0.45303(11) 1.2680(2)
O4A O 0.41739(11) -0.04697(11) 0.7680(2)
O4C O -0.41739(11) 0.04697(11) 1.2320(2)
O5B O -0.31367(13) -0.08868(13) 1.4167(2)
H1B H -0.2718 -0.1263 1.4300
H2B H -0.3441 -0.1114 1.4789
N1B N -0.49320(13) -0.15422(13) 1.2390(2)
N2B N -0.27541(14) -0.03362(15) 1.0967(3)
C1B C -0.48099(15) -0.24476(16) 1.2458(3)
C2B C -0.53517(16) -0.30221(16) 1.3100(3)
C3B C -0.60546(16) -0.26388(18) 1.3584(3)
H3B H -0.6437 -0.3012 1.3983
C4B C -0.62042(17) -0.17111(18) 1.3487(3)
C5B C -0.56109(17) -0.11853(17) 1.2892(3)
H4B H -0.5688 -0.0558 1.2839
C6B C -0.40834(16) -0.27797(17) 1.1688(3)
C7B C -0.52047(16) -0.40319(16) 1.3362(3)
C8B C -0.69617(19) -0.1265(2) 1.4009(5)
H5B H -0.7063 -0.0678 1.3472
H6B H -0.6800 -0.1153 1.5175
C9B C -0.7779(2) -0.1773(3) 1.3665(7)
H7B H -0.7721 -0.2307 1.4337
H8B H -0.8236 -0.1397 1.3898
H9B H -0.7918 -0.1947 1.2535
C10B C -0.2558(2) -0.0640(2) 0.9595(4)
H10B H -0.2952 -0.1019 0.8920
C11B C -0.1798(2) -0.0420(3) 0.9130(4)
H11B H -0.1689 -0.0653 0.8161
C12B C -0.12006(19) 0.0137(2) 1.0080(4)
C13B C -0.1426(2) 0.0484(3) 1.1455(5)
H12B H -0.1058 0.0893 1.2115
C14B C -0.2194(2) 0.0228(2) 1.1860(4)
H13B H -0.2324 0.0464 1.2808
C15B C -0.0343(2) 0.0344(3) 0.9649(5)
H14B H -0.0419 0.0354 0.8470
H15B H -0.0150 0.0943 1.0059
loop_
_geom_bond_atom_site_label_1
_geom_bond_atom_site_label_2
_geom_bond_site_symmetry_1
_geom_bond_site_symmetry_2
Co1 O1 1_555 1_555
O1 C6 1_555 1_555
O2 C6 1_555 1_555
O3 C7 1_555 1_555
O4 C7 1_555 1_555
O5 Co1 1_555 1_555
H1 O5 1_555 1_555
H2 O5 1_555 1_555
N1 Co1 1_555 1_555
N2 Co1 1_555 1_555
C1 N1 1_555 1_555
C2 C1 1_555 1_555
C3 C2 1_555 1_555
H3 C3 1_555 1_555
C4 C3 1_555 1_555
C5 N1 1_555 1_555
H4 C5 1_555 1_555
C6 C1 1_555 1_555
C7 C2 1_555 1_555
C8 C4 1_555 1_555
H5 C8 1_555 1_555
H6 C8 1_555 1_555
C9 C8 1_555 1_555
H7 C9 1_555 1_555
H8 C9 1_555 1_555
H9 C9 1_555 1_555
C10 N2 1_555 1_555
H10 C10 1_555 1_555
C11 C10 1_555 1_555
H11 C11 1_555 1_555
C12 C11 1_555 1_555
C13 C12 1_555 1_555
H12 C13 1_555 1_555
C14 N2 1_555 1_555
H13 C14 1_555 1_555
C15 C12 1_555 1_555
H14 C15 1_555 1_555
H15 C15 1_555 1_555
Co1B O1B 1_555 1_555
Co1A O3B 1_555 1_555
Co1A_2 O4 1_555 1_555
Co1C O4B 1_555 1_555
Co1C_2 O3 1_555 1_555
O1B C6B 1_555 1_555
O2B C6B 1_555 1_555
O3B C7B 1_555 1_555
O3A Co1B 1_555 1_555
O3C Co1 1_555 1_555
O4B C7B 1_555 1_555
O4A Co1 1_555 1_555
O4C Co1B 1_555 1_555
O5B Co1B 1_555 1_555
H1B O5B 1_555 1_555
H2B O5B 1_555 1_555
N1B Co1B 1_555 1_555
N2B Co1B 1_555 1_555
C1B N1B 1_555 1_555
C2B C1B 1_555 1_555
C3B C2B 1_555 1_555
H3B C3B 1_555 1_555
C4B C3B 1_555 1_555
C5B N1B 1_555 1_555
H4B C5B 1_555 1_555
C6B C1B 1_555 1_555
C7B C2B 1_555 1_555
C8B C4B 1_555 1_555
H5B C8B 1_555 1_555
H6B C8B 1_555 1_555
C9B C8B 1_555 1_555
H7B C9B 1_555 1_555
H8B C9B 1_555 1_555
H9B C9B 1_555 1_555
C10B N2B 1_555 1_555
H10B C10B 1_555 1_555
C11B C10B 1_555 1_555
H11B C11B 1_555 1_555
C12B C11B 1_555 1_555
C13B C12B 1_555 1_555
H12B C13B 1_555 1_555
C14B N2B 1_555 1_555
H13B C14B 1_555 1_555
C15B C15 1_555 1_555
H14B C15B 1_555 1_555
H15B C15B 1_555 1_555
C4 C5 1_555 1_555
C13 C14 1_555 1_555
C4B C5B 1_555 1_555
C12B C15B 1_555 1_555
C13B C14B 1_555 1_555

#END
