
#######################################################################
#
#                 Cambridge Crystallographic Data Centre
#                                CCDC 
#
#######################################################################
#
# If this CIF has been generated from an entry in the Cambridge 
# Structural Database, then it will include bibliographic, chemical, 
# crystal, experimental, refinement or atomic coordinate data resulting 
# from the CCDC's data processing and validation procedures.
#
#######################################################################

data_WECFAN01
_symmetry_cell_setting           monoclinic
_symmetry_space_group_name_H-M   'P 21/c'
_symmetry_Int_Tables_number      14
_space_group_name_Hall           '-P 2ybc'
loop_
_symmetry_equiv_pos_site_id
_symmetry_equiv_pos_as_xyz
1 x,y,z
2 -x,1/2+y,1/2-z
3 -x,-y,-z
4 x,1/2-y,1/2+z
_cell_length_a                   14.36(2)
_cell_length_b                   14.75(2)
_cell_length_c                   8.276(13)
_cell_angle_alpha                90
_cell_angle_beta                 99.746(19)
_cell_angle_gamma                90
_cell_volume                     1727.64
loop_
_atom_site_label
_atom_site_type_symbol
_atom_site_fract_x
_atom_site_fract_y
_atom_site_fract_z
Co1 Co 0.87991(7) 0.91761(6) 0.09275(11)
N1 N 0.9936(4) 0.8468(3) 0.2377(6)
N2 N 0.7560(4) 0.9631(4) -0.0698(7)
O1 O 0.8424(3) 0.7829(3) 0.0410(5)
O2 O 0.9002(4) 0.6422(3) 0.0651(5)
O3 O 0.9499(3) 0.5706(3) 0.3934(5)
O4 O 1.0910(4) 0.5476(3) 0.3265(5)
O5 O 0.7953(3) 0.9124(3) 0.2849(5)
H1 H 0.7388 0.8927 0.2659
H2 H 0.8422 0.8889 0.3470
C1 C 0.9808(5) 0.7551(4) 0.2356(7)
C2 C 1.0405(5) 0.6974(4) 0.3366(7)
C3 C 1.1186(5) 0.7356(5) 0.4389(8)
H3 H 1.1605 0.6982 0.5066
C4 C 1.1339(5) 0.8269(4) 0.4401(8)
C5 C 1.0678(5) 0.8809(5) 0.3415(8)
H4 H 1.0751 0.9435 0.3475
C6 C 0.9015(5) 0.7228(4) 0.1028(8)
C7 C 1.0241(6) 0.5958(4) 0.3516(8)
C8 C 1.2179(5) 0.8697(5) 0.5494(10)
H5 H 1.2351 0.9243 0.4961
H6 H 1.1982 0.8879 0.6511
C9 C 1.3003(7) 0.8146(8) 0.5886(18)
H7 H 1.2857 0.7619 0.6478
H8 H 1.3495 0.8486 0.6551
H9 H 1.3211 0.7961 0.4894
C10 C 0.7430(6) 0.9303(5) -0.2218(9)
H10 H 0.7899 0.8937 -0.2523
C11 C 0.6639(6) 0.9477(6) -0.3358(9)
H11 H 0.6591 0.9233 -0.4405
C12 C 0.5934(6) 0.9990(5) -0.2996(10)
C13 C 0.6076(6) 1.0354(6) -0.1409(10)
H12 H 0.5624 1.0739 -0.1098
C14 C 0.6870(6) 1.0148(6) -0.0319(10)
H13 H 0.6932 1.0381 0.0739
C15 C 0.5019(6) 1.0214(6) -0.4165(9)
H14 H 0.4485 1.0004 -0.3690
H15 H 0.4965 1.0867 -0.4291
Co1B Co 0.12009(7) 1.08239(6) -1.09275(11)
Co1A Co 0.12009(7) 1.41761(6) -1.59275(11)
Co1A_2 Co 1.12009(7) 0.41761(6) 0.40725(11)
Co1C Co -0.12009(7) 1.58239(6) -1.40725(11)
Co1C_2 Co 0.87991(7) 0.58239(6) 0.59275(11)
N1B N 0.0064(4) 1.1532(3) -1.2377(6)
N2B N 0.2440(4) 1.0369(4) -0.9302(7)
O1B O 0.1576(3) 1.2171(3) -1.0410(5)
O2B O 0.0998(4) 1.3578(3) -1.0651(5)
O3B O 0.0501(3) 1.4294(3) -1.3934(5)
O3A O 0.0501(3) 1.0706(3) -0.8934(5)
O3C O 0.9499(3) 0.9294(3) -0.1066(5)
O4B O -0.0910(4) 1.4524(3) -1.3265(5)
O4A O 0.9090(4) 1.0476(3) 0.1735(5)
O4C O 0.0910(4) 0.9524(3) -1.1735(5)
O5B O 0.2047(3) 1.0876(3) -1.2849(5)
H1B H 0.2612 1.1073 -1.2659
H2B H 0.1578 1.1111 -1.3470
C1B C 0.0192(5) 1.2449(4) -1.2356(7)
C2B C -0.0405(5) 1.3026(4) -1.3366(7)
C3B C -0.1186(5) 1.2644(5) -1.4389(8)
H3B H -0.1605 1.3018 -1.5066
C4B C -0.1339(5) 1.1731(4) -1.4401(8)
C5B C -0.0678(5) 1.1191(5) -1.3415(8)
H4B H -0.0751 1.0565 -1.3475
C6B C 0.0985(5) 1.2772(4) -1.1028(8)
C7B C -0.0241(6) 1.4042(4) -1.3516(8)
C8B C -0.2179(5) 1.1303(5) -1.5494(10)
H5B H -0.2351 1.0757 -1.4961
H6B H -0.1982 1.1121 -1.6511
C9B C -0.3003(7) 1.1854(8) -1.5886(18)
H7B H -0.2857 1.2381 -1.6478
H8B H -0.3495 1.1514 -1.6551
H9B H -0.3211 1.2039 -1.4894
C10B C 0.2570(6) 1.0697(5) -0.7782(9)
H10B H 0.2101 1.1063 -0.7477
C11B C 0.3361(6) 1.0523(6) -0.6642(9)
H11B H 0.3409 1.0767 -0.5595
C12B C 0.4066(6) 1.0010(5) -0.7004(10)
C13B C 0.3924(6) 0.9646(6) -0.8591(10)
H12B H 0.4376 0.9261 -0.8902
C14B C 0.3130(6) 0.9852(6) -0.9681(10)
H13B H 0.3068 0.9619 -1.0739
C15B C 0.4981(6) 0.9786(6) -0.5835(9)
H14B H 0.5515 0.9996 -0.6310
H15B H 0.5035 0.9133 -0.5709
loop_
_geom_bond_atom_site_label_1
_geom_bond_atom_site_label_2
_geom_bond_site_symmetry_1
_geom_bond_site_symmetry_2
Co1 N1 1_555 1_555
N1 C1 1_555 1_555
N2 Co1 1_555 1_555
O1 Co1 1_555 1_555
O2 C6 1_555 1_555
O3 C7 1_555 1_555
O4 C7 1_555 1_555
O5 Co1 1_555 1_555
H1 O5 1_555 1_555
H2 O5 1_555 1_555
C1 C2 1_555 1_555
C2 C3 1_555 1_555
C3 H3 1_555 1_555
C4 C3 1_555 1_555
C5 N1 1_555 1_555
H4 C5 1_555 1_555
C6 O1 1_555 1_555
C7 C2 1_555 1_555
C8 C4 1_555 1_555
H5 C8 1_555 1_555
H6 C8 1_555 1_555
C9 C8 1_555 1_555
H7 C9 1_555 1_555
H8 C9 1_555 1_555
H9 C9 1_555 1_555
C10 N2 1_555 1_555
H10 C10 1_555 1_555
C11 C10 1_555 1_555
H11 C11 1_555 1_555
C12 C11 1_555 1_555
C13 C12 1_555 1_555
H12 C13 1_555 1_555
C14 N2 1_555 1_555
H13 C14 1_555 1_555
C15 C12 1_555 1_555
H14 C15 1_555 1_555
H15 C15 1_555 1_555
Co1B N1B 1_555 1_555
Co1A O3B 1_555 1_555
Co1A_2 O4 1_555 1_555
Co1C O4B 1_555 1_555
Co1C_2 O3 1_555 1_555
N1B C1B 1_555 1_555
N2B Co1B 1_555 1_555
O1B Co1B 1_555 1_555
O2B C6B 1_555 1_555
O3B C7B 1_555 1_555
O3A Co1B 1_555 1_555
O3C Co1 1_555 1_555
O4B C7B 1_555 1_555
O4A Co1 1_555 1_555
O4C Co1B 1_555 1_555
O5B Co1B 1_555 1_555
H1B O5B 1_555 1_555
H2B O5B 1_555 1_555
C1B C2B 1_555 1_555
C2B C3B 1_555 1_555
C3B H3B 1_555 1_555
C4B C3B 1_555 1_555
C5B N1B 1_555 1_555
H4B C5B 1_555 1_555
C6B O1B 1_555 1_555
C7B C2B 1_555 1_555
C8B C4B 1_555 1_555
H5B C8B 1_555 1_555
H6B C8B 1_555 1_555
C9B C8B 1_555 1_555
H7B C9B 1_555 1_555
H8B C9B 1_555 1_555
H9B C9B 1_555 1_555
C10B N2B 1_555 1_555
H10B C10B 1_555 1_555
C11B C10B 1_555 1_555
H11B C11B 1_555 1_555
C12B C11B 1_555 1_555
C13B C12B 1_555 1_555
H12B C13B 1_555 1_555
C14B N2B 1_555 1_555
H13B C14B 1_555 1_555
C15B C15 1_555 1_555
H14B C15B 1_555 1_555
H15B C15B 1_555 1_555
C1 C6 1_555 1_555
C4 C5 1_555 1_555
C13 C14 1_555 1_555
C1B C6B 1_555 1_555
C4B C5B 1_555 1_555
C12B C15B 1_555 1_555
C13B C14B 1_555 1_555

#END
