
#######################################################################
#
#                 Cambridge Crystallographic Data Centre
#                                CCDC 
#
#######################################################################
#
# If this CIF has been generated from an entry in the Cambridge 
# Structural Database, then it will include bibliographic, chemical, 
# crystal, experimental, refinement or atomic coordinate data resulting 
# from the CCDC's data processing and validation procedures.
#
#######################################################################

data_WEFXIQ
_symmetry_cell_setting           monoclinic
_symmetry_space_group_name_H-M   'P 21/c'
_symmetry_Int_Tables_number      14
_space_group_name_Hall           '-P 2ybc'
loop_
_symmetry_equiv_pos_site_id
_symmetry_equiv_pos_as_xyz
1 x,y,z
2 -x,1/2+y,1/2-z
3 -x,-y,-z
4 x,1/2-y,1/2+z
_cell_length_a                   7.45937(48)
_cell_length_b                   15.5887(18)
_cell_length_c                   17.1515(31)
_cell_angle_alpha                90
_cell_angle_beta                 91.6479(82)
_cell_angle_gamma                90
_cell_volume                     1993.58
loop_
_atom_site_label
_atom_site_type_symbol
_atom_site_fract_x
_atom_site_fract_y
_atom_site_fract_z
Ni1 Ni 0.00000 0.00000 0.00000
C1 C -0.462590 0.172490 -0.181150
C2 C -0.308490 0.135370 -0.209910
S1 S -0.230960 0.035930 -0.172260
O1 O -0.389110 -0.024250 -0.162590
O2 O -0.136860 0.050260 -0.093560
O3 O -0.100090 -0.003550 -0.228330
C3 C -0.215280 0.176340 -0.268230
H1 H -0.109960 0.150970 -0.287890
C4 C -0.276170 0.254430 -0.297790
C5 C -0.430270 0.291550 -0.269030
H2 H -0.471880 0.344930 -0.289240
C6 C -0.523480 0.250580 -0.210710
H3 H -0.628800 0.275950 -0.191050
C7 C -0.559830 0.129740 -0.120310
C8 C -0.490660 0.104780 -0.049670
H4 H -0.370150 0.112290 -0.031520
N1 N -0.624290 0.067190 -0.009560
H5 H -0.613520 0.043820 0.041510
N2 N -0.776050 0.068910 -0.055420
C9 C -0.736210 0.107570 -0.123860
H6 H -0.817340 0.117370 -0.166640
C10 C -0.178930 0.297180 -0.358630
C11 C -0.098240 0.375240 -0.352810
H7 H -0.095670 0.411330 -0.308160
N3 N -0.021850 0.392550 -0.422120
N4 N -0.055340 0.325190 -0.470780
H8 H -0.017550 0.320190 -0.523010
C12 C -0.152420 0.266250 -0.431540
H9 H -0.194350 0.212840 -0.451550
Ni1_2 Ni -1.00000 0.00000 0.00000
Ni1A Ni 0.00000 0.50000 -0.50000
Ni1_3 Ni 1.00000 0.00000 0.00000
Ni1A_2 Ni 1.00000 0.50000 -0.50000
C1_2 C 0.537410 0.172490 -0.181150
C2_2 C 0.691510 0.135370 -0.209910
S1_2 S 0.769040 0.035930 -0.172260
O1_2 O 0.610890 -0.024250 -0.162590
O2_2 O 0.863140 0.050260 -0.093560
O2B O 0.136860 -0.050260 0.093560
O3_2 O 0.899910 -0.003550 -0.228330
C3_2 C 0.784720 0.176340 -0.268230
H1_2 H 0.890040 0.150970 -0.287890
C4_2 C 0.723830 0.254430 -0.297790
C5_2 C 0.569730 0.291550 -0.269030
H2_2 H 0.528120 0.344930 -0.289240
C6_2 C 0.476520 0.250580 -0.210710
H3_2 H 0.371200 0.275950 -0.191050
C7_2 C 0.440170 0.129740 -0.120310
C8_2 C 0.509340 0.104780 -0.049670
H4_2 H 0.629850 0.112290 -0.031520
N1_2 N 0.375710 0.067190 -0.009560
H5_2 H 0.386480 0.043820 0.041510
N2_2 N 0.223950 0.068910 -0.055420
N2B N -0.223950 -0.068910 0.055420
C9_2 C 0.263790 0.107570 -0.123860
H6_2 H 0.182660 0.117370 -0.166640
C10_2 C 0.821070 0.297180 -0.358630
C11_2 C 0.901760 0.375240 -0.352810
H7_2 H 0.904330 0.411330 -0.308160
N3_2 N 0.978150 0.392550 -0.422120
N3A N 0.021850 -0.107450 -0.077880
N3C N -0.021850 0.107450 0.077880
N4_2 N 0.944660 0.325190 -0.470780
H8_2 H 0.982450 0.320190 -0.523010
C12_2 C 0.847580 0.266250 -0.431540
H9_2 H 0.805650 0.212840 -0.451550
loop_
_geom_bond_atom_site_label_1
_geom_bond_atom_site_label_2
_geom_bond_site_symmetry_1
_geom_bond_site_symmetry_2
Ni1 O2 1_555 1_555
C1 C2 1_555 1_555
C2 S1 1_555 1_555
S1 O1 1_555 1_555
O2 S1 1_555 1_555
O3 S1 1_555 1_555
C3 C2 1_555 1_555
H1 C3 1_555 1_555
C4 C3 1_555 1_555
C5 C4 1_555 1_555
H2 C5 1_555 1_555
C6 C1 1_555 1_555
H3 C6 1_555 1_555
C7 C1 1_555 1_555
C8 C7 1_555 1_555
H4 C8 1_555 1_555
N1 C8 1_555 1_555
H5 N1 1_555 1_555
N2 N1 1_555 1_555
C9 C7 1_555 1_555
H6 C9 1_555 1_555
C10 C4 1_555 1_555
C11 C10 1_555 1_555
H7 C11 1_555 1_555
N3 C11 1_555 1_555
N4 N3 1_555 1_555
H8 N4 1_555 1_555
C12 C10 1_555 1_555
H9 C12 1_555 1_555
Ni1_2 N2 1_555 1_555
Ni1A N3 1_555 1_555
Ni1_3 O2_2 1_555 1_555
Ni1A_2 N3_2 1_555 1_555
C1_2 C2_2 1_555 1_555
C2_2 S1_2 1_555 1_555
S1_2 O1_2 1_555 1_555
O2_2 S1_2 1_555 1_555
O2B Ni1 1_555 1_555
O3_2 S1_2 1_555 1_555
C3_2 C2_2 1_555 1_555
H1_2 C3_2 1_555 1_555
C4_2 C3_2 1_555 1_555
C5_2 C4_2 1_555 1_555
H2_2 C5_2 1_555 1_555
C6_2 C1_2 1_555 1_555
H3_2 C6_2 1_555 1_555
C7_2 C1_2 1_555 1_555
C8_2 C7_2 1_555 1_555
H4_2 C8_2 1_555 1_555
N1_2 C8_2 1_555 1_555
H5_2 N1_2 1_555 1_555
N2_2 Ni1 1_555 1_555
N2B Ni1 1_555 1_555
C9_2 C7_2 1_555 1_555
H6_2 C9_2 1_555 1_555
C10_2 C4_2 1_555 1_555
C11_2 C10_2 1_555 1_555
H7_2 C11_2 1_555 1_555
N3_2 C11_2 1_555 1_555
N3A Ni1 1_555 1_555
N3C Ni1 1_555 1_555
N4_2 N3_2 1_555 1_555
H8_2 N4_2 1_555 1_555
C12_2 C10_2 1_555 1_555
H9_2 C12_2 1_555 1_555
C5 C6 1_555 1_555
N2 C9 1_555 1_555
N4 C12 1_555 1_555
C5_2 C6_2 1_555 1_555
N1_2 N2_2 1_555 1_555
N2_2 C9_2 1_555 1_555
N4_2 C12_2 1_555 1_555

#END
