
#######################################################################
#
#                 Cambridge Crystallographic Data Centre
#                                CCDC 
#
#######################################################################
#
# If this CIF has been generated from an entry in the Cambridge 
# Structural Database, then it will include bibliographic, chemical, 
# crystal, experimental, refinement or atomic coordinate data resulting 
# from the CCDC's data processing and validation procedures.
#
#######################################################################

data_WEMDOJ
_symmetry_cell_setting           monoclinic
_symmetry_space_group_name_H-M   'P 21/n'
_symmetry_Int_Tables_number      14
_space_group_name_Hall           '-P 2yn'
loop_
_symmetry_equiv_pos_site_id
_symmetry_equiv_pos_as_xyz
1 x,y,z
2 1/2-x,1/2+y,1/2-z
3 -x,-y,-z
4 1/2+x,1/2-y,1/2+z
_cell_length_a                   9.6885(19)
_cell_length_b                   11.817(2)
_cell_length_c                   12.326(3)
_cell_angle_alpha                90
_cell_angle_beta                 99.26(3)
_cell_angle_gamma                90
_cell_volume                     1392.8
loop_
_atom_site_label
_atom_site_type_symbol
_atom_site_fract_x
_atom_site_fract_y
_atom_site_fract_z
Sm1 Sm 0.213616(16) 0.483554(12) 0.330483(13)
O1 O 0.4170(3) 0.3818(2) 0.4342(2)
O2 O 0.6011(3) 0.3921(2) 0.5678(2)
O3 O 0.1334(2) 0.67969(19) 0.3270(2)
O4 O 0.1930(3) 0.85770(19) 0.2950(2)
O5 O 0.3600(3) 0.7834(2) 0.1562(2)
O6 O 0.3138(3) 0.6045(2) 0.1989(2)
O7 O -0.0336(3) 0.4849(2) 0.3576(2)
O8 O -0.1814(3) 0.5125(2) 0.4775(2)
O9 O 0.0450(3) 0.4761(2) 0.1527(2)
H1 H 0.0869 0.4950 0.1000
H2 H 0.0135 0.4092 0.1423
H3 H -0.0223 0.5214 0.1559
C1 C 0.5050(3) 0.4348(3) 0.5008(3)
C2 C 0.2001(3) 0.7531(3) 0.2826(3)
C3 C 0.3003(3) 0.7095(3) 0.2052(3)
C4 C -0.0632(3) 0.4991(3) 0.4524(3)
Sm1B Sm -0.213616(16) 0.516446(12) 0.669517(13)
Sm1A Sm 0.286384(16) 0.983554(12) 0.169517(13)
Sm1B_2 Sm 0.786384(16) 0.516446(12) 0.669517(13)
Sm1A_2 Sm 0.286384(16) -0.016446(12) 0.169517(13)
O1B O 0.5830(3) 0.6182(2) 0.5658(2)
O2B O 0.3989(3) 0.6079(2) 0.4322(2)
O3B O 0.8666(2) 0.32031(19) 0.6730(2)
O3A O 0.3666(2) 0.17969(19) 0.1730(2)
O4A O 0.3070(3) 0.35770(19) 0.2050(2)
O4C O 0.6930(3) 0.64230(19) 0.7950(2)
O5A O 0.1400(3) 0.2834(2) 0.3438(2)
O5C O 0.8600(3) 0.7166(2) 0.6562(2)
O6B O 0.6862(3) 0.3955(2) 0.8011(2)
O6A O 0.1862(3) 0.1045(2) 0.3011(2)
O7B O 0.0336(3) 0.5151(2) 0.6424(2)
O7B_2 O 1.0336(3) 0.5151(2) 0.6424(2)
O8B O 0.1814(3) 0.4875(2) 0.5225(2)
O8_2 O 0.8186(3) 0.5125(2) 0.4775(2)
O9B O 0.9550(3) 0.5239(2) 0.8473(2)
H1B H 0.9131 0.5050 0.9000
H2B H 0.9865 0.5908 0.8577
H3B H 1.0223 0.4786 0.8441
C1B C 0.4950(3) 0.5652(3) 0.4992(3)
C2A C 0.2999(3) 0.2531(3) 0.2174(3)
C3A C 0.1997(3) 0.2095(3) 0.2948(3)
C4B C 0.0632(3) 0.5009(3) 0.5476(3)
O10 O -0.1970(7) 0.2541(6) 0.1683(5)
H4 H -0.1303 0.2550 0.1350
C5 C -0.3504(5) 0.3779(6) 0.2554(5)
H5 H -0.3678 0.4557 0.2712
H6 H -0.3294 0.3363 0.3229
H7 H -0.4319 0.3463 0.2111
C6 C -0.2323(4) 0.3710(3) 0.1961(3)
H8 H -0.1513 0.4052 0.2405
H9 H -0.2537 0.4146 0.1287
O11 O 0.0790(4) 0.3415(3) 0.9643(3)
H10 H 0.0773 0.2703 0.9733
H11 H 0.1447 0.3700 1.0102
O12 O 0.1764(5) 1.0041(3) 0.5091(3)
H12 H 0.1870 1.0502 0.4582
H13 H 0.0969 1.0147 0.5282
O13 O 0.0874(5) 0.7802(3) 0.5323(3)
H14 H 0.0826 0.8402 0.4939
H15 H 0.0081 0.7667 0.5505
loop_
_geom_bond_atom_site_label_1
_geom_bond_atom_site_label_2
_geom_bond_site_symmetry_1
_geom_bond_site_symmetry_2
Sm1 O1 1_555 1_555
O1 C1 1_555 1_555
O2 C1 1_555 1_555
O3 Sm1 1_555 1_555
O4 C2 1_555 1_555
O5 C3 1_555 1_555
O6 Sm1 1_555 1_555
O7 Sm1 1_555 1_555
O8 C4 1_555 1_555
O9 Sm1 1_555 1_555
H1 O9 1_555 1_555
H2 O9 1_555 1_555
H3 O9 1_555 1_555
O10 H4 1_555 1_555
C1 C1B 1_555 1_555
C2 O3 1_555 1_555
C3 O6 1_555 1_555
C4 O7 1_555 1_555
C5 H5 1_555 1_555
H6 C5 1_555 1_555
H7 C5 1_555 1_555
C6 O10 1_555 1_555
H8 C6 1_555 1_555
H9 C6 1_555 1_555
O11 H10 1_555 1_555
H11 O11 1_555 1_555
O12 H12 1_555 1_555
H13 O12 1_555 1_555
O13 H14 1_555 1_555
H15 O13 1_555 1_555
Sm1B O8 1_555 1_555
Sm1A O4 1_555 1_555
Sm1B_2 O2 1_555 1_555
Sm1A_2 O3A 1_555 1_555
O1B Sm1B_2 1_555 1_555
O2B Sm1 1_555 1_555
O3B Sm1B_2 1_555 1_555
O3A C2A 1_555 1_555
O4A Sm1 1_555 1_555
O4C Sm1B_2 1_555 1_555
O5A Sm1 1_555 1_555
O5C Sm1B_2 1_555 1_555
O6B Sm1B_2 1_555 1_555
O6A Sm1A_2 1_555 1_555
O7B Sm1B 1_555 1_555
O7B_2 Sm1B_2 1_555 1_555
O8B Sm1 1_555 1_555
O8_2 Sm1B_2 1_555 1_555
O9B Sm1B_2 1_555 1_555
H1B O9B 1_555 1_555
H2B O9B 1_555 1_555
H3B O9B 1_555 1_555
C1B O1B 1_555 1_555
C2A O4A 1_555 1_555
C3A O5A 1_555 1_555
C4B C4 1_555 1_555
O5 Sm1A 1_555 1_555
C2 C3 1_555 1_555
C5 C6 1_555 1_555
O2B C1B 1_555 1_555
O6A C3A 1_555 1_555
O7B C4B 1_555 1_555
O8B C4B 1_555 1_555
C2A C3A 1_555 1_555

#END
