
#######################################################################
#
#                 Cambridge Crystallographic Data Centre
#                                CCDC 
#
#######################################################################
#
# If this CIF has been generated from an entry in the Cambridge 
# Structural Database, then it will include bibliographic, chemical, 
# crystal, experimental, refinement or atomic coordinate data resulting 
# from the CCDC's data processing and validation procedures.
#
#######################################################################

data_WEMDUP
_symmetry_cell_setting           monoclinic
_symmetry_space_group_name_H-M   'P 21/n'
_symmetry_Int_Tables_number      14
_space_group_name_Hall           '-P 2yn'
loop_
_symmetry_equiv_pos_site_id
_symmetry_equiv_pos_as_xyz
1 x,y,z
2 1/2-x,1/2+y,1/2-z
3 -x,-y,-z
4 1/2+x,1/2-y,1/2+z
_cell_length_a                   9.6661(19)
_cell_length_b                   11.737(2)
_cell_length_c                   12.315(3)
_cell_angle_alpha                90
_cell_angle_beta                 99.24(3)
_cell_angle_gamma                90
_cell_volume                     1379.02
loop_
_atom_site_label
_atom_site_type_symbol
_atom_site_fract_x
_atom_site_fract_y
_atom_site_fract_z
Eu1 Eu 0.21385(2) 0.984423(16) 0.330927(16)
O1 O 0.3159(4) 1.1049(3) 0.2000(3)
O2 O 0.3597(4) 1.2845(3) 0.1558(3)
O3 O 0.1345(3) 1.1803(3) 0.3278(3)
O4 O 0.1923(3) 1.3590(3) 0.2944(3)
O5 O -0.0341(4) 0.9860(3) 0.3572(3)
O6 O -0.1817(4) 1.0126(3) 0.4777(3)
O7 O 0.3984(3) 1.1091(3) 0.4329(3)
O8 O 0.5840(3) 1.1180(3) 0.5662(3)
O9 O 0.0480(4) 0.9769(3) 0.1543(3)
H1 H -0.0296 1.0069 0.1629
H2 H 0.0823 1.0133 0.1052
H3 H 0.0345 0.9079 0.1344
C1 C 0.3010(4) 1.2100(4) 0.2054(4)
C2 C 0.1998(4) 1.2539(3) 0.2828(3)
C3 C -0.0629(5) 0.9996(3) 0.4529(4)
C4 C 0.4950(4) 1.0654(4) 0.4999(3)
Eu1B Eu -0.21385(2) 1.015577(16) 0.669073(16)
Eu1A Eu 0.28615(2) 1.484423(16) 0.169073(16)
Eu1B_2 Eu 0.78615(2) 1.015577(16) 0.669073(16)
Eu1A_2 Eu 0.28615(2) 0.484423(16) 0.169073(16)
O1A O 0.1841(4) 1.6049(3) 0.3000(3)
O1A_2 O 0.1841(4) 0.6049(3) 0.3000(3)
O2A O 0.1403(4) 0.7845(3) 0.3442(3)
O3A O 0.3655(3) 1.6803(3) 0.1722(3)
O3A_2 O 0.3655(3) 0.6803(3) 0.1722(3)
O4A O 0.3077(3) 0.8590(3) 0.2056(3)
O5B O 0.0341(4) 1.0140(3) 0.6428(3)
O5A O 0.5341(4) 1.4860(3) 0.1428(3)
O6B O 0.1817(4) 0.9874(3) 0.5223(3)
O6C O 0.3183(4) 1.4874(3) -0.0223(3)
O7B O 0.6016(3) 0.8909(3) 0.5671(3)
O7A O 0.1016(3) 1.6091(3) 0.0671(3)
O8B O 0.4160(3) 0.8820(3) 0.4338(3)
O8C O 0.0840(3) 1.3820(3) 0.0662(3)
O9A O 0.4520(4) 1.4769(3) 0.3457(3)
H1A H 0.5296 1.5069 0.3371
H2A H 0.4177 1.5133 0.3948
H3A H 0.4655 1.4079 0.3656
C1A C 0.1990(4) 0.7100(4) 0.2946(4)
C2A C 0.3002(4) 0.7539(3) 0.2172(3)
C3B C 0.0629(5) 1.0004(3) 0.5471(4)
C4B C 0.5050(4) 0.9346(4) 0.5001(3)
O10 O -0.1969(10) 0.7540(9) 0.1669(8)
H4 H -0.1300 0.7556 0.1336
C5 C -0.3500(8) 0.8778(9) 0.2546(6)
H5 H -0.3669 0.9561 0.2707
H6 H -0.3291 0.8357 0.3221
H7 H -0.4320 0.8464 0.2104
C6 C -0.2328(5) 0.8707(4) 0.1954(4)
H8 H -0.1515 0.9050 0.2398
H9 H -0.2544 0.9148 0.1282
O11 O 0.4151(7) 0.7824(4) -0.0316(4)
H10 H 0.5033 0.7733 -0.0161
H11 H 0.3757 0.7181 -0.0455
O12 O 0.0838(6) 0.8412(4) -0.0322(4)
H12 H -0.0042 0.8485 -0.0517
H13 H 0.1264 0.8785 -0.0760
O13 O 0.3261(8) 1.0067(5) -0.0076(5)
H14 H 0.3771 1.0434 0.0433
H15 H 0.3652 0.9436 -0.0180
loop_
_geom_bond_atom_site_label_1
_geom_bond_atom_site_label_2
_geom_bond_site_symmetry_1
_geom_bond_site_symmetry_2
Eu1 O1 1_555 1_555
O1 C1 1_555 1_555
O2 C1 1_555 1_555
O3 Eu1 1_555 1_555
O4 C2 1_555 1_555
O5 Eu1 1_555 1_555
O6 C3 1_555 1_555
O7 Eu1 1_555 1_555
O8 C4 1_555 1_555
O9 Eu1 1_555 1_555
H1 O9 1_555 1_555
H2 O9 1_555 1_555
H3 O9 1_555 1_555
O10 H4 1_555 1_555
C1 C2 1_555 1_555
C2 O3 1_555 1_555
C3 O5 1_555 1_555
C4 O7 1_555 1_555
C5 H5 1_555 1_555
H6 C5 1_555 1_555
H7 C5 1_555 1_555
C6 O10 1_555 1_555
H8 C6 1_555 1_555
H9 C6 1_555 1_555
O11 H10 1_555 1_555
H11 O11 1_555 1_555
O12 H12 1_555 1_555
H13 O12 1_555 1_555
O13 H14 1_555 1_555
H15 O13 1_555 1_555
Eu1B O6 1_555 1_555
Eu1A O2 1_555 1_555
Eu1B_2 O8 1_555 1_555
Eu1A_2 O1A_2 1_555 1_555
O1A Eu1A 1_555 1_555
O1A_2 C1A 1_555 1_555
O2A Eu1 1_555 1_555
O3A Eu1A 1_555 1_555
O3A_2 Eu1A_2 1_555 1_555
O4A Eu1 1_555 1_555
O5B Eu1B 1_555 1_555
O5A Eu1A 1_555 1_555
O6B Eu1 1_555 1_555
O6C Eu1A 1_555 1_555
O7B Eu1B_2 1_555 1_555
O7A Eu1A 1_555 1_555
O8B Eu1 1_555 1_555
O8C Eu1A 1_555 1_555
O9A Eu1A 1_555 1_555
H1A O9A 1_555 1_555
H2A O9A 1_555 1_555
H3A O9A 1_555 1_555
C1A O2A 1_555 1_555
C2A O3A_2 1_555 1_555
C3B C3 1_555 1_555
C4B C4 1_555 1_555
O4 Eu1A 1_555 1_555
C5 C6 1_555 1_555
O4A C2A 1_555 1_555
O5B C3B 1_555 1_555
O6B C3B 1_555 1_555
O7B C4B 1_555 1_555
O8B C4B 1_555 1_555
C1A C2A 1_555 1_555

#END
