
#######################################################################
#
#                 Cambridge Crystallographic Data Centre
#                                CCDC 
#
#######################################################################
#
# If this CIF has been generated from an entry in the Cambridge 
# Structural Database, then it will include bibliographic, chemical, 
# crystal, experimental, refinement or atomic coordinate data resulting 
# from the CCDC's data processing and validation procedures.
#
#######################################################################

data_WENKEH
_symmetry_cell_setting           triclinic
_symmetry_space_group_name_H-M   'P -1'
_symmetry_Int_Tables_number      2
_space_group_name_Hall           '-P 1'
loop_
_symmetry_equiv_pos_site_id
_symmetry_equiv_pos_as_xyz
1 x,y,z
2 -x,-y,-z
_cell_length_a                   9.3379(19)
_cell_length_b                   15.710(3)
_cell_length_c                   22.431(4)
_cell_angle_alpha                102.47(3)
_cell_angle_beta                 101.71(3)
_cell_angle_gamma                104.90(3)
_cell_volume                     2986.16
loop_
_atom_site_label
_atom_site_type_symbol
_atom_site_fract_x
_atom_site_fract_y
_atom_site_fract_z
Pr1 Pr 0.47746(4) 0.13809(3) 0.198102(17)
Pr2 Pr 0.96403(4) 0.08747(2) 0.142490(16)
C1 C 0.8262(8) 0.1246(4) 0.2781(3)
C2 C 0.9079(7) 0.1235(4) 0.3421(3)
C3 C 1.0687(8) 0.1478(5) 0.3609(3)
H1 H 1.1244 0.1638 0.3327
C4 C 1.1458(8) 0.1486(5) 0.4202(3)
H2 H 1.2527 0.1649 0.4315
C5 C 1.0665(9) 0.1254(6) 0.4635(3)
C6 C 0.9063(9) 0.1007(5) 0.4443(3)
C7 C 0.8279(7) 0.1022(5) 0.3851(3)
H3 H 0.7214 0.0888 0.3745
C8 C 1.2916(11) 0.1485(7) 0.5448(4)
H4 H 1.3354 0.2130 0.5502
H5 H 1.3295 0.1143 0.5142
H6 H 1.3203 0.1356 0.5847
C9 C 0.7920(9) 0.1057(5) 0.5981(3)
C10 C 0.9335(8) 0.1196(6) 0.6378(3)
H7 H 1.0226 0.1516 0.6296
C11 C 0.9434(8) 0.0859(5) 0.6902(3)
H8 H 1.0393 0.0958 0.7174
C12 C 0.8118(7) 0.0380(5) 0.7019(3)
C13 C 0.6718(8) 0.0249(5) 0.6619(3)
H9 H 0.5832 -0.0066 0.6707
C14 C 0.6564(9) 0.0572(6) 0.6083(3)
H10 H 0.5605 0.0467 0.5808
C15 C 0.8250(7) 0.0012(4) 0.7584(3)
C16 C 0.7872(7) 0.2586(5) 0.1457(3)
C17 C 0.8189(7) 0.3501(5) 0.1323(3)
C18 C 0.9350(8) 0.3776(5) 0.1040(3)
H11 H 0.9907 0.3385 0.0924
C19 C 0.9682(8) 0.4618(5) 0.0932(3)
H12 H 1.0464 0.4798 0.0743
C20 C 0.8858(8) 0.5208(5) 0.1102(3)
C21 C 0.7708(9) 0.4941(5) 0.1388(4)
H13 H 0.7163 0.5336 0.1510
C22 C 0.7369(8) 0.4088(5) 0.1493(3)
H14 H 0.6582 0.3906 0.1679
C23 C 0.7152(9) 0.6628(5) 0.0179(3)
C24 C 0.7725(8) 0.7220(5) -0.0139(3)
H15 H 0.8660 0.7247 -0.0231
C25 C 0.6907(7) 0.7780(5) -0.0324(3)
C26 C 0.5521(7) 0.7740(5) -0.0174(3)
H16 H 0.4967 0.8116 -0.0299
C27 C 0.4962(8) 0.7146(6) 0.0157(3)
H17 H 0.4041 0.7128 0.0260
C28 C 0.5772(9) 0.6576(5) 0.0337(3)
C29 C 0.7525(9) 0.8402(5) -0.0696(3)
C30 C 0.3800(10) 0.5841(7) 0.0775(4)
H18 H 0.3021 0.5717 0.0387
H19 H 0.3831 0.6394 0.1069
H20 H 0.3563 0.5338 0.0956
C31 C 0.2986(8) -0.7248(5) 0.2117(3)
C32 C 0.2453(7) -0.6428(5) 0.2281(3)
C33 C 0.3244(7) -0.5622(5) 0.2175(3)
H21 H 0.4053 -0.5604 0.1989
C34 C 0.2815(8) -0.4855(5) 0.2347(3)
C35 C 0.1636(8) -0.4850(5) 0.2625(3)
C36 C 0.0867(8) -0.5650(5) 0.2742(3)
H22 H 0.0082 -0.5656 0.2939
C37 C 0.1258(8) -0.6432(5) 0.2566(3)
H23 H 0.0722 -0.6970 0.2639
C38 C 0.0169(10) -0.3964(6) 0.3071(4)
H24 H 0.0394 -0.4125 0.3461
H25 H -0.0817 -0.4368 0.2804
H26 H 0.0150 -0.3342 0.3161
C39 C 0.5522(8) -0.2522(5) 0.2387(3)
C40 C 0.6677(8) -0.2366(5) 0.2089(3)
H27 H 0.7342 -0.2716 0.2094
C41 C 0.6840(7) -0.1696(5) 0.1787(3)
H28 H 0.7606 -0.1595 0.1578
C42 C 0.5853(7) -0.1162(4) 0.1792(3)
C43 C 0.4713(8) -0.1316(5) 0.2109(4)
H29 H 0.4057 -0.0959 0.2118
C44 C 0.4565(9) -0.1995(6) 0.2408(4)
H30 H 0.3815 -0.2097 0.2624
C45 C 0.5987(7) -0.0410(5) 0.1449(3)
O1 O 0.9049(5) 0.1403(3) 0.2392(2)
O2 O 0.6824(5) 0.1091(3) 0.2659(2)
O3 O 1.1276(7) 0.1227(4) 0.5230(2)
O4 O 0.8227(6) 0.0747(4) 0.4863(2)
O5 O 0.8937(7) 0.2369(4) 0.5473(2)
O6 O 0.6208(7) 0.1417(5) 0.5051(3)
O7 O 0.9520(5) 0.0038(3) 0.7886(2)
O8 O 0.7003(5) -0.0310(3) 0.7721(2)
O9 O 0.8595(5) 0.2081(3) 0.1258(2)
O10 O 0.6903(5) 0.2397(3) 0.1765(2)
O11 O 1.0662(7) 0.6494(4) 0.0788(3)
O12 O 0.9030(6) 0.6949(3) 0.1427(2)
O13 O 0.7891(7) 0.6000(4) 0.0321(2)
O14 O 0.4925(5) -0.0074(3) 0.1364(2)
O15 O 0.7177(5) -0.0199(3) 0.1263(2)
O16 O 0.8831(6) 0.8458(4) -0.0762(2)
O17 O 0.6689(5) 0.8850(3) -0.0924(2)
O18 O 0.6332(6) -0.3893(4) 0.2645(3)
O19 O 0.3613(5) -0.4049(3) 0.2222(2)
O20 O 0.5543(7) 0.2406(4) 0.3118(2)
H31 H 0.4809 0.2628 0.3037
H32 H 0.5211 0.1841 0.3095
O21 O 0.9997(6) -0.0515(3) 0.0751(2)
H33 H 0.9912 -0.0761 0.0369
H34 H 1.0512 -0.0718 0.1033
O22 O 0.4270(5) -0.7133(3) 0.1996(2)
O23 O 0.8111(6) 0.0539(4) 0.0241(2)
H35 H 0.7425 0.0776 0.0360
H36 H 0.7639 -0.0024 0.0027
O24 O 0.5293(7) 0.5954(4) 0.0645(2)
O25 O 0.2178(5) -0.8046(3) 0.2109(2)
O26 O 0.1319(6) -0.4048(4) 0.2758(3)
O27 O 0.4959(7) -0.3177(4) 0.3322(3)
S1 S 0.7776(3) 0.15039(18) 0.53208(9)
S2 S 0.9258(2) 0.62779(14) 0.09536(10)
S3 S 0.5215(2) -0.34373(14) 0.27183(10)
Pr1A Pr 0.52254(4) -0.13809(3) 0.801898(17)
Pr1A_2 Pr 0.52254(4) 0.86191(3) -0.198102(17)
Pr1_2 Pr 0.47746(4) -0.86191(3) 0.198102(17)
Pr2A Pr 1.03597(4) -0.08747(2) 0.857510(16)
Pr2A_2 Pr 1.03597(4) 0.91253(2) -0.142490(16)
Pr2_2 Pr -0.03597(4) -0.91253(2) 0.142490(16)
O7A O 1.0480(5) -0.0038(3) 0.2114(2)
O8A O 0.2997(5) 0.0310(3) 0.2279(2)
O16A O 1.1169(6) 0.1542(4) 0.0762(2)
O17A O 0.3311(5) 0.1150(3) 0.0924(2)
O22_2 O 0.4270(5) 0.2867(3) 0.1996(2)
O25_2 O 0.2178(5) 0.1954(3) 0.2109(2)
O25_3 O 1.2178(5) 0.1954(3) 0.2109(2)
loop_
_geom_bond_atom_site_label_1
_geom_bond_atom_site_label_2
_geom_bond_site_symmetry_1
_geom_bond_site_symmetry_2
Pr1 O2 1_555 1_555
Pr2 O1 1_555 1_555
C1 C2 1_555 1_555
C2 C3 1_555 1_555
C3 H1 1_555 1_555
C4 C3 1_555 1_555
H2 C4 1_555 1_555
C5 C4 1_555 1_555
C6 C5 1_555 1_555
C7 C2 1_555 1_555
H3 C7 1_555 1_555
C8 H4 1_555 1_555
H5 C8 1_555 1_555
H6 C8 1_555 1_555
C9 C10 1_555 1_555
C10 H7 1_555 1_555
C11 C10 1_555 1_555
H8 C11 1_555 1_555
C12 C11 1_555 1_555
C13 C12 1_555 1_555
H9 C13 1_555 1_555
C14 C9 1_555 1_555
H10 C14 1_555 1_555
C15 C12 1_555 1_555
C16 C17 1_555 1_555
C17 C18 1_555 1_555
C18 H11 1_555 1_555
C19 C18 1_555 1_555
H12 C19 1_555 1_555
C20 C19 1_555 1_555
C21 C20 1_555 1_555
H13 C21 1_555 1_555
C22 C17 1_555 1_555
H14 C22 1_555 1_555
C23 C24 1_555 1_555
C24 H15 1_555 1_555
C25 C24 1_555 1_555
C26 C25 1_555 1_555
H16 C26 1_555 1_555
C27 C26 1_555 1_555
H17 C27 1_555 1_555
C28 C23 1_555 1_555
C29 C25 1_555 1_555
C30 H18 1_555 1_555
H19 C30 1_555 1_555
H20 C30 1_555 1_555
C31 C32 1_555 1_555
C32 C33 1_555 1_555
C33 H21 1_555 1_555
C34 C33 1_555 1_555
C35 C34 1_555 1_555
C36 C35 1_555 1_555
H22 C36 1_555 1_555
C37 C32 1_555 1_555
H23 C37 1_555 1_555
C38 H24 1_555 1_555
H25 C38 1_555 1_555
H26 C38 1_555 1_555
C39 C40 1_555 1_555
C40 H27 1_555 1_555
C41 C40 1_555 1_555
H28 C41 1_555 1_555
C42 C41 1_555 1_555
C43 C42 1_555 1_555
H29 C43 1_555 1_555
C44 C39 1_555 1_555
H30 C44 1_555 1_555
C45 C42 1_555 1_555
O1 C1 1_555 1_555
O2 C1 1_555 1_555
O3 C5 1_555 1_555
O4 C6 1_555 1_555
O5 S1 1_555 1_555
O6 S1 1_555 1_555
O7 C15 1_555 1_555
O8 C15 1_555 1_555
O9 Pr2 1_555 1_555
O10 Pr1 1_555 1_555
O11 S2 1_555 1_555
O12 S2 1_555 1_555
O13 C23 1_555 1_555
O14 Pr1 1_555 1_555
O15 Pr2 1_555 1_555
O16 C29 1_555 1_555
O17 C29 1_555 1_555
O18 S3 1_555 1_555
O19 C34 1_555 1_555
O20 Pr1 1_555 1_555
H31 O20 1_555 1_555
H32 O20 1_555 1_555
O21 Pr2 1_555 1_555
H33 O21 1_555 1_555
H34 O21 1_555 1_555
O22 C31 1_555 1_555
O23 Pr2 1_555 1_555
H35 O23 1_555 1_555
H36 O23 1_555 1_555
O24 C28 1_555 1_555
O25 C31 1_555 1_555
O26 C35 1_555 1_555
O27 S3 1_555 1_555
S1 C9 1_555 1_555
S2 C20 1_555 1_555
S3 C39 1_555 1_555
Pr1A O8 1_555 1_555
Pr1A_2 O17 1_555 1_555
Pr1_2 O22 1_555 1_555
Pr2A O7 1_555 1_555
Pr2A_2 O16 1_555 1_555
Pr2_2 O25 1_555 1_555
O7A Pr2 1_555 1_555
O8A Pr1 1_555 1_555
O16A Pr2 1_555 1_555
O17A Pr1 1_555 1_555
O22_2 Pr1 1_555 1_555
O25_2 Pr1 1_555 1_555
O25_3 Pr2 1_555 1_555
C6 C7 1_555 1_555
C8 O3 1_555 1_555
C13 C14 1_555 1_555
C16 O9 1_555 1_555
C16 O10 1_555 1_555
C21 C22 1_555 1_555
C27 C28 1_555 1_555
C30 O24 1_555 1_555
C36 C37 1_555 1_555
C38 O26 1_555 1_555
C43 C44 1_555 1_555
C45 O14 1_555 1_555
C45 O15 1_555 1_555
O4 S1 1_555 1_555
O13 S2 1_555 1_555
O19 S3 1_555 1_555
O25 Pr1_2 1_555 1_555

#END
