
#######################################################################
#
#                 Cambridge Crystallographic Data Centre
#                                CCDC 
#
#######################################################################
#
# If this CIF has been generated from an entry in the Cambridge 
# Structural Database, then it will include bibliographic, chemical, 
# crystal, experimental, refinement or atomic coordinate data resulting 
# from the CCDC's data processing and validation procedures.
#
#######################################################################

data_WICCOC
_symmetry_cell_setting           monoclinic
_symmetry_space_group_name_H-M   'C 2/c'
_symmetry_Int_Tables_number      15
_space_group_name_Hall           '-C 2yn'
loop_
_symmetry_equiv_pos_site_id
_symmetry_equiv_pos_as_xyz
1 x,y,z
2 -x,y,1/2-z
3 1/2+x,1/2+y,z
4 1/2-x,1/2+y,1/2-z
5 -x,-y,-z
6 x,-y,1/2+z
7 1/2-x,1/2-y,-z
8 1/2+x,1/2-y,1/2+z
_cell_length_a                   26.593(7)
_cell_length_b                   19.230(7)
_cell_length_c                   18.192(4)
_cell_angle_alpha                90
_cell_angle_beta                 114.06(1)
_cell_angle_gamma                90
_cell_volume                     8494.83
loop_
_atom_site_label
_atom_site_type_symbol
_atom_site_fract_x
_atom_site_fract_y
_atom_site_fract_z
K1 K 0.35660(1) -0.02146(1) 0.48098(2)
O1 O 0.25816(8) 0.10534(2) 0.43544(1)
C1 C 0.20691(8) 0.08637(2) 0.42616(1)
H1 H 0.18019 0.12089 0.39682
H2 H 0.20755 0.08152 0.47961
C2 C 0.18893(8) 0.02225(2) 0.38086(1)
H3 H 0.15177 0.01121 0.37331
H4 H 0.18842 0.02627 0.32741
O2 O 0.22644(1) -0.02841(2) 0.42620(1)
C3 C 0.21133(1) -0.09282(2) 0.39031(2)
H5 H 0.21254 -0.09365 0.33777
H6 H 0.17382 -0.10345 0.38167
C4 C 0.25051(1) -0.14227(2) 0.44562(2)
H7 H 0.25178 -0.13844 0.49957
H8 H 0.23816 -0.18693 0.42524
O3 O 0.30440(1) -0.13158(2) 0.45078(2)
C5 C 0.34435(1) -0.17526(2) 0.50736(3)
H9 H 0.33483 -0.22087 0.48916
H10 H 0.34386 -0.17081 0.56015
C6 C 0.40151(1) -0.16001(2) 0.51606(3)
H11 H 0.42811 -0.19196 0.55243
H12 H 0.40218 -0.16238 0.46319
O4 O 0.41519(1) -0.09459(2) 0.54864(2)
C7 C 0.46873(1) -0.07815(2) 0.56452(2)
H13 H 0.47206 -0.07390 0.51369
H14 H 0.49427 -0.11258 0.59726
C8 C 0.48255(1) -0.01270(2) 0.60995(1)
H15 H 0.47687 -0.01616 0.65891
H16 H 0.52117 -0.00157 0.62606
O5 O 0.44740(1) 0.03786(2) 0.55759(1)
C9 C 0.46180(1) 0.10256(2) 0.58990(1)
H17 H 0.49937 0.11267 0.59844
H18 H 0.46044 0.10511 0.64225
C10 C 0.42254(1) 0.15174(2) 0.53251(2)
H19 H 0.43526 0.19668 0.55103
H20 H 0.42101 0.14603 0.47854
O6 O 0.36863(1) 0.14214(2) 0.52864(2)
C11 C 0.32925(1) 0.18561(2) 0.47219(2)
H21 H 0.32939 0.18049 0.41917
H22 H 0.33911 0.23135 0.48991
C12 C 0.27397(1) 0.17114(2) 0.46495(2)
H23 H 0.27390 0.17584 0.51797
H24 H 0.24746 0.20274 0.42779
Ru1 Ru 0.16870(1) -0.31648(1) 0.25127(2)
Zn1 Zn 0.33643(1) -0.18027(2) 0.244886(2)
O7 O 0.07703(3) -0.29236(2) 0.18278(3)
O8 O 0.15041(3) -0.23610(2) 0.31674(1)
O9 O 0.01168(3) -0.22086(2) 0.17825(1)
O10 O 0.08903(3) -0.15957(2) 0.31400(3)
O11 O 0.23840(1) -0.31359(4) 0.31611(2)
O12 O 0.17772(1) -0.24551(3) 0.18386(3)
O13 O 0.31568(1) -0.26521(3) 0.32510(2)
O14 O 0.25316(1) -0.20245(2) 0.17970(3)
O15 O 0.15721(1) -0.38286(2) 0.17790(2)
O16 O 0.14437(1) -0.38205(1) 0.31040(2)
O17 O 0.14800(1) -0.49266(2) 0.16390(2)
O18 O 0.14040(1) -0.49216(2) 0.31460(2)
O19 O 0.49322(1) -0.29583(2) 0.32009(1)
O20 O 0.41828(1) -0.35773(1) 0.19249(3)
O21 O 0.42948(1) -0.22725(3) 0.32540(2)
O22 O 0.35383(1) -0.28257(1) 0.18300(2)
O23 O 0.50984(1) -0.46453(2) 0.32728(1)
O24 O 0.51200(1) -0.57615(2) 0.33057(1)
O25 O 0.3632(3) -0.1235(6) 0.18960(1)
H25 H 0.3395 -0.09300 0.18400
H26 H 0.35700 -0.13000 0.14000
O26 O 0.34020(2) -0.12090(2) 0.33200(5)
H27 H 0.33500 -0.12800 0.37200
H28 H 0.33900 -0.08300 0.31800
C13 C 0.05930(3) -0.24340(2) 0.20830(1)
C14 C 0.10289(3) -0.20930(2) 0.28690(1)
C15 C 0.26520(1) -0.27457(3) 0.29120(2)
C16 C 0.22950(1) -0.23726(2) 0.21120(3)
C17 C 0.15030(1) -0.44050(2) 0.20180(2)
C18 C 0.14530(1) -0.43980(1) 0.28280(2)
C19 C 0.44435(1) -0.27347(2) 0.29390(2)
C20 C 0.40079(1) -0.30700(1) 0.21610(2)
C21 C 0.50621(1) -0.52190(2) 0.29552(1)
Ru2 Ru 0.50000 -0.36710(1) 0.25000
Zn2 Zn 0.50000 -0.63910(2) 0.25000
O23A O 0.49016(1) -0.46453(2) 0.17272(1)
O24A O 0.48800(1) -0.57615(2) 0.16943(1)
C21A C 0.49379(1) -0.52190(2) 0.20448(1)
Ru1A Ru 0.83130(1) -0.31648(1) 0.24873(2)
Zn1A Zn 0.66357(1) -0.18027(2) 0.255114(2)
O7A O 0.92297(3) -0.29236(2) 0.31722(3)
O8A O 0.84959(3) -0.23610(2) 0.18326(1)
O9A O 0.98832(3) -0.22086(2) 0.32175(1)
O10A O 0.91097(3) -0.15957(2) 0.18600(3)
O11A O 0.76160(1) -0.31359(4) 0.18389(2)
O12A O 0.82228(1) -0.24551(3) 0.31614(3)
O13A O 0.68432(1) -0.26521(3) 0.17490(2)
O14A O 0.74684(1) -0.20245(2) 0.32030(3)
O15A O 0.84279(1) -0.38286(2) 0.32210(2)
O16A O 0.85563(1) -0.38205(1) 0.18960(2)
O17A O 0.85200(1) -0.49266(2) 0.33610(2)
O18A O 0.85960(1) -0.49216(2) 0.18540(2)
O19A O 0.50678(1) -0.29583(2) 0.17991(1)
O20A O 0.58172(1) -0.35773(1) 0.30751(3)
O21A O 0.57052(1) -0.22725(3) 0.17460(2)
O22A O 0.64617(1) -0.28257(1) 0.31700(2)
O25A O 0.6368(3) -0.1235(6) 0.31040(1)
H25A H 0.6605 -0.09300 0.31600
H26A H 0.64300 -0.13000 0.36000
O26A O 0.65980(2) -0.12090(2) 0.16800(5)
H27A H 0.66500 -0.12800 0.12800
H28A H 0.66100 -0.08300 0.18200
C13A C 0.94070(3) -0.24340(2) 0.29170(1)
C14A C 0.89711(3) -0.20930(2) 0.21310(1)
C15A C 0.73480(1) -0.27457(3) 0.20880(2)
C16A C 0.77050(1) -0.23726(2) 0.28880(3)
C17A C 0.84970(1) -0.44050(2) 0.29820(2)
C18A C 0.85470(1) -0.43980(1) 0.21720(2)
C19A C 0.55565(1) -0.27347(2) 0.20610(2)
C20A C 0.59921(1) -0.30700(1) 0.28390(2)
O9B O 0.51168(3) -0.72086(2) 0.17825(1)
O9C O 0.48832(3) -0.72086(2) 0.32175(1)
O10B O 0.58903(3) -0.65957(2) 0.31400(3)
O10C O 0.41097(3) -0.65957(2) 0.18600(3)
Zn2B Zn 0.00000 -0.13910(2) 0.25000
Zn2B_2 Zn 1.00000 -0.13910(2) 0.25000
C22 C 0.01916(8) 0.17604(1) 0.00568(1)
H29 H 0.01021 0.22026 -0.01844
H30 H 0.02388 0.17934 0.06162
O27 O -0.02616(1) 0.13242(3) -0.03881(3)
C23 C -0.07651(2) 0.15302(6) -0.03384(9)
H31 H -0.08491 0.19918 -0.05061
H32 H -0.07195 0.14880 0.02183
C24 C -0.12298(1) 0.10837(1) -0.09000(1)
H33 H -0.15861 0.12477 -0.09555
H34 H -0.12379 0.10644 -0.14379
O28 O -0.11125(1) 0.04312(1) -0.05194(1)
C25 C -0.15389(3) -0.00392(1) -0.10340(1)
H35 H -0.19045 0.01065 -0.11152
H36 H -0.15352 -0.00899 -0.15619
C26 C -0.13704(1) -0.06982(1) -0.05379(1)
H37 H -0.16584 -0.10300 -0.07914
H38 H -0.13253 -0.06218 0.00141
O29 O -0.08678(4) -0.09303(8) -0.05196(6)
C27 C 0.06864(6) 0.15502(4) 0.00623(5)
H39 H 0.06358 0.14824 -0.04940
H40 H 0.09680 0.18896 0.03126
C22D C -0.01916(8) -0.17604(1) -0.00568(1)
H29D H -0.01021 -0.22026 0.01844
H30D H -0.02388 -0.17934 -0.06162
O27D O 0.02616(1) -0.13242(3) 0.03881(3)
C23D C 0.07651(2) -0.15302(6) 0.03384(9)
H31D H 0.08491 -0.19918 0.05061
H32D H 0.07195 -0.14880 -0.02183
C24D C 0.12298(1) -0.10837(1) 0.09000(1)
H33D H 0.15861 -0.12477 0.09555
H34D H 0.12379 -0.10644 0.14379
O28D O 0.11125(1) -0.04312(1) 0.05194(1)
C25D C 0.15389(3) 0.00392(1) 0.10340(1)
H35D H 0.19045 -0.01065 0.11152
H36D H 0.15352 0.00899 0.15619
C26D C 0.13704(1) 0.06982(1) 0.05379(1)
H37D H 0.16584 0.10300 0.07914
H38D H 0.13253 0.06218 -0.00141
O29D O 0.08678(4) 0.09303(8) 0.05196(6)
C27D C -0.06864(6) -0.15502(4) -0.00623(5)
H39D H -0.06358 -0.14824 0.04940
H40D H -0.09680 -0.18896 -0.03126
K2 K 0.00000 0.00000 0.00000
loop_
_geom_bond_atom_site_label_1
_geom_bond_atom_site_label_2
_geom_bond_site_symmetry_1
_geom_bond_site_symmetry_2
O1 C1 1_555 1_555
C1 H1 1_555 1_555
H2 C1 1_555 1_555
C2 C1 1_555 1_555
H3 C2 1_555 1_555
H4 C2 1_555 1_555
O2 C2 1_555 1_555
C3 O2 1_555 1_555
H5 C3 1_555 1_555
H6 C3 1_555 1_555
C4 C3 1_555 1_555
H7 C4 1_555 1_555
H8 C4 1_555 1_555
O3 C4 1_555 1_555
C5 O3 1_555 1_555
H9 C5 1_555 1_555
H10 C5 1_555 1_555
C6 C5 1_555 1_555
H11 C6 1_555 1_555
H12 C6 1_555 1_555
O4 C6 1_555 1_555
C7 O4 1_555 1_555
H13 C7 1_555 1_555
H14 C7 1_555 1_555
C8 C7 1_555 1_555
H15 C8 1_555 1_555
H16 C8 1_555 1_555
O5 C8 1_555 1_555
C9 O5 1_555 1_555
H17 C9 1_555 1_555
H18 C9 1_555 1_555
C10 C9 1_555 1_555
H19 C10 1_555 1_555
H20 C10 1_555 1_555
O6 C10 1_555 1_555
C11 O6 1_555 1_555
H21 C11 1_555 1_555
H22 C11 1_555 1_555
C12 O1 1_555 1_555
H23 C12 1_555 1_555
H24 C12 1_555 1_555
Ru1 O7 1_555 1_555
Zn1 O13 1_555 1_555
O7 C13 1_555 1_555
O8 Ru1 1_555 1_555
O9 C13 1_555 1_555
O10 C14 1_555 1_555
O11 Ru1 1_555 1_555
O12 Ru1 1_555 1_555
O13 C15 1_555 1_555
O14 Zn1 1_555 1_555
O15 Ru1 1_555 1_555
O16 Ru1 1_555 1_555
O17 C17 1_555 1_555
O18 C18 1_555 1_555
O19 C19 1_555 1_555
O20 C20 1_555 1_555
O21 Zn1 1_555 1_555
O22 Zn1 1_555 1_555
O23 C21 1_555 1_555
O24 C21 1_555 1_555
O25 Zn1 1_555 1_555
H25 O25 1_555 1_555
H26 O25 1_555 1_555
O26 Zn1 1_555 1_555
H27 O26 1_555 1_555
H28 O26 1_555 1_555
C13 C14 1_555 1_555
C14 O8 1_555 1_555
C15 O11 1_555 1_555
C16 O12 1_555 1_555
C17 O15 1_555 1_555
C18 O16 1_555 1_555
C19 O21 1_555 1_555
C20 O22 1_555 1_555
C21 C21A 1_555 1_555
Ru2 O19 1_555 1_555
Zn2 O24 1_555 1_555
C22 H29 1_555 1_555
H30 C22 1_555 1_555
O27 C22 1_555 1_555
C23 O27 1_555 1_555
H31 C23 1_555 1_555
H32 C23 1_555 1_555
C24 C23 1_555 1_555
H33 C24 1_555 1_555
H34 C24 1_555 1_555
O28 C24 1_555 1_555
C25 O28 1_555 1_555
H35 C25 1_555 1_555
H36 C25 1_555 1_555
C26 C25 1_555 1_555
H37 C26 1_555 1_555
H38 C26 1_555 1_555
O29 C26 1_555 1_555
C27 C22 1_555 1_555
H39 C27 1_555 1_555
H40 C27 1_555 1_555
O23A Ru2 1_555 1_555
O24A Zn2 1_555 1_555
C21A O23A 1_555 1_555
Ru1A O7A 1_555 1_555
Zn1A O13A 1_555 1_555
O7A C13A 1_555 1_555
O8A Ru1A 1_555 1_555
O9A C13A 1_555 1_555
O10A C14A 1_555 1_555
O11A Ru1A 1_555 1_555
O12A Ru1A 1_555 1_555
O13A C15A 1_555 1_555
O14A Zn1A 1_555 1_555
O15A Ru1A 1_555 1_555
O16A Ru1A 1_555 1_555
O17A C17A 1_555 1_555
O18A C18A 1_555 1_555
O19A Ru2 1_555 1_555
O20A Ru2 1_555 1_555
O21A Zn1A 1_555 1_555
O22A Zn1A 1_555 1_555
O25A Zn1A 1_555 1_555
H25A O25A 1_555 1_555
H26A O25A 1_555 1_555
O26A Zn1A 1_555 1_555
H27A O26A 1_555 1_555
H28A O26A 1_555 1_555
C13A C14A 1_555 1_555
C14A O8A 1_555 1_555
C15A O11A 1_555 1_555
C16A O12A 1_555 1_555
C17A O15A 1_555 1_555
C18A O16A 1_555 1_555
C19A O19A 1_555 1_555
C20A O20A 1_555 1_555
O9B Zn2 1_555 1_555
O9C Zn2 1_555 1_555
O10B Zn2 1_555 1_555
O10C Zn2 1_555 1_555
Zn2B O9 1_555 1_555
Zn2B_2 O9A 1_555 1_555
C22D H29D 1_555 1_555
H30D C22D 1_555 1_555
O27D C22D 1_555 1_555
C23D O27D 1_555 1_555
H31D C23D 1_555 1_555
H32D C23D 1_555 1_555
C24D C23D 1_555 1_555
H33D C24D 1_555 1_555
H34D C24D 1_555 1_555
O28D C24D 1_555 1_555
C25D O28D 1_555 1_555
H35D C25D 1_555 1_555
H36D C25D 1_555 1_555
C26D C25D 1_555 1_555
H37D C26D 1_555 1_555
H38D C26D 1_555 1_555
O29D C27 1_555 1_555
C27D O29 1_555 1_555
H39D C27D 1_555 1_555
H40D C27D 1_555 1_555
C11 C12 1_555 1_555
O10 Zn2B 1_555 1_555
O14 C16 1_555 1_555
O20 Ru2 1_555 1_555
O23 Ru2 1_555 1_555
C15 C16 1_555 1_555
C17 C18 1_555 1_555
C19 C20 1_555 1_555
O24A C21A 1_555 1_555
O10A Zn2B_2 1_555 1_555
O14A C16A 1_555 1_555
O21A C19A 1_555 1_555
O22A C20A 1_555 1_555
C15A C16A 1_555 1_555
C17A C18A 1_555 1_555
C19A C20A 1_555 1_555
C22D C27D 1_555 1_555
C26D O29D 1_555 1_555

#END
