
#######################################################################
#
#                 Cambridge Crystallographic Data Centre
#                                CCDC 
#
#######################################################################
#
# If this CIF has been generated from an entry in the Cambridge 
# Structural Database, then it will include bibliographic, chemical, 
# crystal, experimental, refinement or atomic coordinate data resulting 
# from the CCDC's data processing and validation procedures.
#
#######################################################################

data_WICGEV
_symmetry_cell_setting           monoclinic
_symmetry_space_group_name_H-M   'P 21'
_symmetry_Int_Tables_number      4
_space_group_name_Hall           'P 2yb'
loop_
_symmetry_equiv_pos_site_id
_symmetry_equiv_pos_as_xyz
1 x,y,z
2 -x,1/2+y,-z
_cell_length_a                   11.7843(2)
_cell_length_b                   10.1979(2)
_cell_length_c                   18.7197(4)
_cell_angle_alpha                90
_cell_angle_beta                 127.1910(10)
_cell_angle_gamma                90
_cell_volume                     1792.12
loop_
_atom_site_label
_atom_site_type_symbol
_atom_site_fract_x
_atom_site_fract_y
_atom_site_fract_z
Mn1 Mn -0.42713(9) 0.06705(9) 0.56268(6)
Mn2 Mn -0.37136(9) 0.37918(9) 0.61891(6)
Mn3 Mn 0.00306(11) 0.45842(16) 0.74780(7)
Mn4 Mn 0.37782(9) 0.54315(9) 0.88127(6)
Mn5 Mn 0.42282(9) 0.85640(9) 0.93548(6)
Mn6 Mn -0.49262(12) 0.46042(16) 0.75237(8)
C1 C -0.5108(6) 0.2855(7) 0.4171(4)
H1 H -0.5224 0.2170 0.3804
C2 C -0.4638(6) 0.1706(7) 0.7029(4)
H2 H -0.4701 0.0817 0.7110
C3 C -0.3156(6) -0.0192(7) 0.4572(4)
H3 H -0.2263 0.0062 0.5077
C4 C -0.1208(7) 0.1809(7) 0.6878(5)
H4 H -0.0237 0.1640 0.7217
C5 C -0.2175(6) 0.5538(7) 0.7876(4)
H5 H -0.2202 0.6076 0.8267
C6 C -0.7601(7) 0.1010(7) 0.4335(5)
H6 H -0.7419 0.1695 0.4719
C7 C 0.1218(7) 0.7320(8) 0.8087(5)
H7 H 0.0240 0.7453 0.7747
C8 C 0.2290(6) 0.3602(7) 0.7146(4)
H8 H 0.2365 0.3042 0.6784
C9 C 0.2446(7) 0.3180(8) 0.9284(4)
H9 H 0.2650 0.2517 0.9686
C10 C 0.5048(7) 0.6383(7) 1.0793(5)
H10 H 0.5113 0.7068 1.1144
C11 C -0.5246(6) 0.7469(8) 0.7987(4)
H11 H -0.5178 0.8351 0.7891
C12 C -0.3057(6) 0.4498(8) 0.9617(4)
H12 H -0.2150 0.4340 1.0143
O1 O -0.4462(4) 0.2577(5) 0.5000(3)
O2 O -0.5584(5) 0.3906(6) 0.3812(3)
O3 O -0.4477(4) 0.2028(5) 0.6448(3)
O4 O -0.4720(5) 0.2514(5) 0.7512(3)
O5 O -0.4153(4) -0.0319(5) 0.4651(3)
O6 O -0.3297(4) -0.0385(6) 0.3867(3)
O7 O -0.2016(4) 0.0870(5) 0.6513(3)
O8 O -0.1589(4) 0.3012(5) 0.6833(3)
O9 O -0.3275(4) 0.4854(5) 0.7317(3)
O10 O -0.1052(4) 0.5534(5) 0.7935(3)
O11 O -0.6541(4) 0.0414(5) 0.4474(3)
O12 O -0.8882(4) 0.0741(6) 0.3716(3)
O13 O 0.1625(5) 0.6171(5) 0.8121(3)
O14 O 0.1990(4) 0.8305(5) 0.8463(3)
O15 O 0.1156(4) 0.3611(5) 0.7028(3)
O16 O 0.3397(4) 0.4288(4) 0.7722(3)
O17 O 0.1183(4) 0.3341(5) 0.8656(3)
O18 O 0.3502(4) 0.3816(5) 0.9445(3)
O19 O 0.4430(4) 0.6613(5) 0.9970(3)
O20 O 0.5586(4) 0.5286(5) 1.1177(3)
O21 O -0.5476(4) 0.7223(5) 0.8572(3)
O22 O -0.5113(4) 0.6713(5) 0.7560(3)
O23 O -0.4069(4) 0.4584(5) 0.9689(2)
O24 O -0.3156(4) 0.4601(6) 0.8931(3)
Mn1A Mn -0.57287(9) 0.56705(9) 0.43732(6)
Mn2A Mn -0.62864(9) -0.12082(9) 0.38109(6)
Mn3A Mn -1.00306(11) -0.04158(16) 0.25220(7)
Mn4_2 Mn -0.62218(9) 0.54315(9) 0.88127(6)
Mn5A Mn 0.57718(9) 0.35640(9) 1.06452(6)
Mn5_2 Mn -0.57718(9) 0.85640(9) 0.93548(6)
Mn5A_2 Mn -0.42282(9) 0.35640(9) 1.06452(6)
Mn6A Mn -0.50738(12) -0.03958(16) 0.24763(8)
Mn6_2 Mn 0.50738(12) 0.46042(16) 0.75237(8)
O2A O -0.4416(5) -0.1094(6) 0.6188(3)
O5A O -0.5847(4) 0.4681(5) 0.5349(3)
O6A O -0.6703(4) 0.4615(6) 0.6133(3)
O11A O -0.3459(4) 0.5414(5) 0.5526(3)
O12A O -0.1118(4) 0.5741(6) 0.6284(3)
O16_2 O -0.6603(4) 0.4288(4) 0.7722(3)
O18A O 0.6498(4) 0.8816(5) 1.0555(3)
O20A O 0.4414(4) 1.0286(5) 0.8823(3)
O21_2 O 0.4524(4) 0.7223(5) 0.8572(3)
O23_2 O 0.5931(4) 0.4584(5) 0.9689(2)
O23A O 0.4069(4) 0.9584(5) 1.0311(2)
Cl1 Cl -0.2337(3) 0.5135(3) 0.36935(18)
C13 C -0.0400(7) 0.2949(9) 0.4036(5)
C14 C -0.0955(6) 0.3954(7) 0.4457(4)
C15 C -0.1706(7) 0.3100(7) 0.4732(5)
O25 O -0.0677(6) 0.2178(6) 0.5400(4)
Cl2 Cl -0.1091(4) 0.0335(5) 0.8523(3)
C16 C -0.2040(10) 0.0487(13) 0.9545(7)
C17 C -0.0753(9) 0.0712(11) 0.9587(6)
C18 C -0.079(2) 0.2277(17) 0.9514(17)
O27 O -0.2420(16) -0.092(2) 0.9054(11)
O26? O 0.0707(19) 0.248(2) 0.9815(15)
Cl3? Cl 0.0060(10) 0.2335(6) 1.0138(5)
C19? C -0.056(2) 0.061(3) 0.8918(11)
loop_
_geom_bond_atom_site_label_1
_geom_bond_atom_site_label_2
_geom_bond_site_symmetry_1
_geom_bond_site_symmetry_2
Mn1 O1 1_555 1_555
Mn2 O1 1_555 1_555
Mn3 O8 1_555 1_555
Mn4 O13 1_555 1_555
Mn5 O14 1_555 1_555
Mn6 O4 1_555 1_555
C1 H1 1_555 1_555
C2 H2 1_555 1_555
C3 H3 1_555 1_555
C4 H4 1_555 1_555
C5 H5 1_555 1_555
C6 H6 1_555 1_555
C7 H7 1_555 1_555
C8 H8 1_555 1_555
C9 H9 1_555 1_555
C10 H10 1_555 1_555
C11 H11 1_555 1_555
C12 H12 1_555 1_555
O1 C1 1_555 1_555
O2 C1 1_555 1_555
O3 Mn1 1_555 1_555
O4 C2 1_555 1_555
O5 Mn1 1_555 1_555
O6 C3 1_555 1_555
O7 Mn1 1_555 1_555
O8 Mn2 1_555 1_555
O9 Mn2 1_555 1_555
O10 Mn3 1_555 1_555
O11 Mn1 1_555 1_555
O12 C6 1_555 1_555
O13 Mn3 1_555 1_555
O14 C7 1_555 1_555
O15 Mn3 1_555 1_555
O16 Mn4 1_555 1_555
O17 Mn3 1_555 1_555
O18 Mn4 1_555 1_555
O19 Mn4 1_555 1_555
O20 C10 1_555 1_555
O21 C11 1_555 1_555
O22 Mn6 1_555 1_555
O23 C12 1_555 1_555
O24 Mn6 1_555 1_555
Cl1 C14 1_555 1_555
C13 C14 1_555 1_555
C14 C15 1_555 1_555
C15 O25 1_555 1_555
Cl2 C17 1_555 1_555
C16 C17 1_555 1_555
C17 C18 1_555 1_555
O27 C16 1_555 1_555
Mn1A O2 1_555 1_555
Mn2A O5 1_555 1_555
Mn3A O12 1_555 1_555
Mn4_2 O21 1_555 1_555
Mn5A O18 1_555 1_555
Mn5_2 O21 1_555 1_555
Mn5A_2 O23 1_555 1_555
Mn6A O6 1_555 1_555
Mn6_2 O16 1_555 1_555
O2A Mn1 1_555 1_555
O5A Mn2 1_555 1_555
O6A Mn6 1_555 1_555
O11A Mn2 1_555 1_555
O12A Mn3 1_555 1_555
O16_2 Mn6 1_555 1_555
O18A Mn5 1_555 1_555
O20A Mn5 1_555 1_555
O21_2 Mn4 1_555 1_555
O23_2 Mn4 1_555 1_555
O23A Mn5 1_555 1_555
Mn2 O3 1_555 1_555
Mn5 O19 1_555 1_555
Mn5 O21_2 1_555 1_555
Mn6 O9 1_555 1_555
C2 O3 1_555 1_555
C3 O5 1_555 1_555
C4 O7 1_555 1_555
C4 O8 1_555 1_555
C5 O9 1_555 1_555
C5 O10 1_555 1_555
C6 O11 1_555 1_555
C7 O13 1_555 1_555
C8 O15 1_555 1_555
C8 O16 1_555 1_555
C9 O17 1_555 1_555
C9 O18 1_555 1_555
C10 O19 1_555 1_555
C11 O22 1_555 1_555
C12 O24 1_555 1_555
O11 Mn2A 1_555 1_555
O20 Mn5A 1_555 1_555
O23 Mn4_2 1_555 1_555
Mn1A O5A 1_555 1_555
Mn1A O11A 1_555 1_555
Mn4_2 O16_2 1_555 1_555
Mn5A O23_2 1_555 1_555

#END
