
#######################################################################
#
#                 Cambridge Crystallographic Data Centre
#                                CCDC 
#
#######################################################################
#
# If this CIF has been generated from an entry in the Cambridge 
# Structural Database, then it will include bibliographic, chemical, 
# crystal, experimental, refinement or atomic coordinate data resulting 
# from the CCDC's data processing and validation procedures.
#
#######################################################################

data_WICPAA
_symmetry_cell_setting           triclinic
_symmetry_space_group_name_H-M   'P -1'
_symmetry_Int_Tables_number      2
_space_group_name_Hall           '-P 1'
loop_
_symmetry_equiv_pos_site_id
_symmetry_equiv_pos_as_xyz
1 x,y,z
2 -x,-y,-z
_cell_length_a                   8.6638(17)
_cell_length_b                   9.3886(19)
_cell_length_c                   13.781(3)
_cell_angle_alpha                85.33(3)
_cell_angle_beta                 78.10(3)
_cell_angle_gamma                74.43(3)
_cell_volume                     1056.21
loop_
_atom_site_label
_atom_site_type_symbol
_atom_site_fract_x
_atom_site_fract_y
_atom_site_fract_z
Sm1 Sm 0.66362(3) 0.55352(3) 0.58346(2)
O1 O 0.8822(5) 0.3560(4) 0.5260(3)
O2 O 1.1465(5) 0.3092(4) 0.4653(3)
O3 O 1.4254(5) -0.2859(5) 0.6866(3)
O4 O 1.4937(5) -0.2097(4) 0.5317(3)
O5 O 0.8206(8) -0.1919(9) 0.7929(6)
O6 O 0.6675(7) -0.0446(7) 0.7037(6)
O7 O 0.5426(5) 0.3624(5) 0.6762(3)
O8 O 0.3689(5) 0.4774(4) 0.5808(3)
O9 O -0.2277(5) 0.5041(5) 0.7273(3)
O10 O -0.2731(5) 0.3650(6) 0.8634(4)
O11 O 0.1595(8) -0.0727(7) 0.9147(6)
O12 O 0.3933(9) -0.0313(8) 0.9064(6)
N1 N 0.7990(8) -0.0970(7) 0.7299(5)
N2 N 0.2572(8) 0.0008(6) 0.8870(5)
C1 C 1.0497(6) 0.1286(5) 0.5698(4)
C2 C 1.2047(6) 0.0359(5) 0.5659(4)
H2 H 1.2943 0.0630 0.5272
C3 C 1.2271(6) -0.0969(6) 0.6192(4)
C4 C 1.0942(7) -0.1386(6) 0.6763(4)
H3 H 1.1081 -0.2256 0.7148
C5 C 0.9431(7) -0.0490(6) 0.6746(4)
C6 C 0.9144(7) 0.0866(6) 0.6244(4)
H4 H 0.8092 0.1469 0.6272
C7 C 1.0234(6) 0.2769(5) 0.5169(4)
C8 C 1.3929(7) -0.2019(5) 0.6122(4)
C9 C 0.2795(6) 0.3205(6) 0.7117(4)
C10 C 0.1154(7) 0.3869(6) 0.7151(4)
H5 H 0.0837 0.4704 0.6755
C11 C -0.0034(7) 0.3286(6) 0.7782(4)
C12 C 0.0453(7) 0.1995(7) 0.8336(4)
H6 H -0.0320 0.1585 0.8747
C13 C 0.2056(7) 0.1349(6) 0.8269(5)
C14 C 0.3277(7) 0.1936(6) 0.7688(4)
H7 H 0.4376 0.1491 0.7684
C15 C 0.4074(6) 0.3888(6) 0.6512(4)
C16 C -0.1822(7) 0.4045(7) 0.7898(4)
Sm1A Sm 1.33638(3) 0.44648(3) 0.41654(2)
Sm1_2 Sm 1.66362(3) -0.44648(3) 0.58346(2)
Sm1A_2 Sm 0.33638(3) 0.44648(3) 0.41654(2)
Sm1_3 Sm -0.33638(3) 0.55352(3) 0.58346(2)
O2A O 0.8535(5) 0.6908(4) 0.5347(3)
O3_2 O 0.4254(5) 0.7141(5) 0.6866(3)
O4_2 O 0.4937(5) 0.7903(4) 0.5317(3)
O8A O 0.6311(5) 0.5226(4) 0.4192(3)
O9_2 O 0.7723(5) 0.5041(5) 0.7273(3)
N3 N 0.4181(6) 0.4452(6) 0.9145(4)
H1 H 0.5212 0.4313 0.8924
C17 C 0.3656(9) 0.3428(9) 0.9733(6)
H8 H 0.4397 0.2582 0.9913
C18 C 0.2006(8) 0.3617(8) 1.0076(6)
H9 H 0.1639 0.2888 1.0482
C19 C 0.0885(6) 0.4882(6) 0.9826(4)
C20 C 0.1525(8) 0.5925(8) 0.9207(5)
H10 H 0.0826 0.6789 0.9012
C21 C 0.3177(8) 0.5681(8) 0.8887(5)
H11 H 0.3594 0.6388 0.8483
N3A N -0.4181(6) 0.5548(6) 1.0855(4)
H1A H -0.5212 0.5687 1.1076
C17A C -0.3656(9) 0.6572(9) 1.0267(6)
H8A H -0.4397 0.7418 1.0087
C18A C -0.2006(8) 0.6383(8) 0.9924(6)
H9A H -0.1639 0.7112 0.9518
C19A C -0.0885(6) 0.5118(6) 1.0174(4)
C20A C -0.1525(8) 0.4075(8) 1.0793(5)
H10A H -0.0826 0.3211 1.0988
C21A C -0.3177(8) 0.4319(8) 1.1113(5)
H11A H -0.3594 0.3612 1.1517
loop_
_geom_bond_atom_site_label_1
_geom_bond_atom_site_label_2
_geom_bond_site_symmetry_1
_geom_bond_site_symmetry_2
Sm1 O1 1_555 1_555
O1 C7 1_555 1_555
O2 C7 1_555 1_555
O3 C8 1_555 1_555
O4 C8 1_555 1_555
O5 N1 1_555 1_555
O6 N1 1_555 1_555
O7 Sm1 1_555 1_555
O8 Sm1 1_555 1_555
O9 C16 1_555 1_555
O10 C16 1_555 1_555
O11 N2 1_555 1_555
O12 N2 1_555 1_555
N1 C5 1_555 1_555
N2 C13 1_555 1_555
N3 H1 1_555 1_555
C1 C2 1_555 1_555
C2 H2 1_555 1_555
C3 C2 1_555 1_555
C4 C3 1_555 1_555
H3 C4 1_555 1_555
C5 C4 1_555 1_555
C6 C1 1_555 1_555
H4 C6 1_555 1_555
C7 C1 1_555 1_555
C8 C3 1_555 1_555
C9 C10 1_555 1_555
C10 H5 1_555 1_555
C11 C10 1_555 1_555
C12 C11 1_555 1_555
H6 C12 1_555 1_555
C13 C12 1_555 1_555
C14 C9 1_555 1_555
H7 C14 1_555 1_555
C15 O7 1_555 1_555
C16 C11 1_555 1_555
C17 N3 1_555 1_555
H8 C17 1_555 1_555
C18 C17 1_555 1_555
H9 C18 1_555 1_555
C19 C18 1_555 1_555
C20 C19 1_555 1_555
H10 C20 1_555 1_555
C21 N3 1_555 1_555
H11 C21 1_555 1_555
Sm1A O2 1_555 1_555
Sm1_2 O3 1_555 1_555
Sm1A_2 O8 1_555 1_555
Sm1_3 O9 1_555 1_555
O2A Sm1 1_555 1_555
O3_2 Sm1 1_555 1_555
O4_2 Sm1 1_555 1_555
O8A Sm1 1_555 1_555
O9_2 Sm1 1_555 1_555
N3A H1A 1_555 1_555
C17A N3A 1_555 1_555
H8A C17A 1_555 1_555
C18A C17A 1_555 1_555
H9A C18A 1_555 1_555
C19A C19 1_555 1_555
C20A C19A 1_555 1_555
H10A C20A 1_555 1_555
C21A N3A 1_555 1_555
H11A C21A 1_555 1_555
O4 Sm1_2 1_555 1_555
O8 C15 1_555 1_555
C5 C6 1_555 1_555
C9 C15 1_555 1_555
C13 C14 1_555 1_555
C20 C21 1_555 1_555
Sm1A_2 O8A 1_555 1_555
C18A C19A 1_555 1_555
C20A C21A 1_555 1_555

#END
