
#######################################################################
#
#                 Cambridge Crystallographic Data Centre
#                                CCDC 
#
#######################################################################
#
# If this CIF has been generated from an entry in the Cambridge 
# Structural Database, then it will include bibliographic, chemical, 
# crystal, experimental, refinement or atomic coordinate data resulting 
# from the CCDC's data processing and validation procedures.
#
#######################################################################

data_WIDZOA
_symmetry_cell_setting           monoclinic
_symmetry_space_group_name_H-M   'P 21/c'
_symmetry_Int_Tables_number      14
_space_group_name_Hall           '-P 2ybc'
loop_
_symmetry_equiv_pos_site_id
_symmetry_equiv_pos_as_xyz
1 x,y,z
2 -x,1/2+y,1/2-z
3 -x,-y,-z
4 x,1/2-y,1/2+z
_cell_length_a                   12.6099(2)
_cell_length_b                   12.1229(2)
_cell_length_c                   14.2819(3)
_cell_angle_alpha                90
_cell_angle_beta                 98.4100(10)
_cell_angle_gamma                90
_cell_volume                     2159.78
loop_
_atom_site_label
_atom_site_type_symbol
_atom_site_fract_x
_atom_site_fract_y
_atom_site_fract_z
C1 C 0.41250(17) 0.28021(18) 0.85807(17)
H1 H 0.4828 0.3032 0.8577
C2 C 0.33299(19) 0.35835(19) 0.85242(19)
H2 H 0.3496 0.4329 0.8494
C3 C 0.22829(18) 0.32521(18) 0.85131(17)
H3 H 0.1736 0.3772 0.8475
C4 C 0.20519(16) 0.21349(17) 0.85599(15)
C5 C 0.29125(16) 0.14037(17) 0.86255(15)
H4 H 0.2771 0.0653 0.8660
C6 C 0.09411(17) 0.17125(18) 0.85548(16)
C7 C 0.0047(2) 0.2531(2) 0.8530(3)
H5 H -0.0618 0.2146 0.8530
H6 H 0.0009 0.2971 0.7967
H7 H 0.0178 0.3000 0.9076
C8 C -0.02478(17) -0.07118(18) 0.88614(16)
C9 C 0.07171(19) -0.1416(2) 0.9159(2)
H8 H 0.1354 -0.1003 0.9101
H9 H 0.0686 -0.2057 0.8763
H10 H 0.0730 -0.1639 0.9806
C10 C -0.13353(16) -0.11731(16) 0.88897(15)
C11 C -0.15245(18) -0.22998(18) 0.89228(17)
H11 H -0.0962 -0.2798 0.8933
C12 C -0.25502(19) -0.26719(18) 0.89398(18)
H12 H -0.2691 -0.3424 0.8957
C13 C -0.33675(18) -0.19181(17) 0.89305(17)
H13 H -0.4060 -0.2178 0.8941
C14 C -0.22045(16) -0.04733(15) 0.88929(15)
H14 H -0.2083 0.0283 0.8885
C15 C 0.64804(16) 0.16738(15) 0.76585(15)
C16 C 0.72040(16) 0.21724(17) 0.70167(16)
H15 H 0.7723 0.1621 0.6891
H16 H 0.7597 0.2780 0.7347
C17 C 0.66225(16) 0.25937(15) 0.60768(14)
H17 H 0.7142 0.2719 0.5650
H18 H 0.6128 0.2031 0.5798
C18 C 0.60092(14) 0.36456(15) 0.61688(13)
N1 N 0.39267(13) 0.17195(14) 0.86410(13)
N2 N 0.08442(16) 0.06754(17) 0.85954(19)
N3 N -0.02097(16) 0.02932(17) 0.85983(19)
N4 N -0.32089(13) -0.08232(14) 0.89075(12)
O1 O 0.57415(13) 0.10360(13) 0.73103(11)
O2 O 0.66668(13) 0.18516(13) 0.85342(11)
O3 O 0.58343(13) 0.39796(13) 0.69551(10)
O4 O 0.56448(12) 0.41696(12) 0.54255(10)
Cd1 Cd 0.534754(10) 0.046344(10) 0.880464(9)
N4_2 N 0.67911(13) -0.08232(14) 0.89075(12)
O3A O 0.41657(13) -0.10204(13) 0.80449(10)
O4A O 0.43552(12) -0.08304(12) 0.95745(10)
O4C O 0.56448(12) 0.08304(12) 1.04255(10)
Cd1_2 Cd -0.465246(10) 0.046344(10) 0.880464(9)
Cd1A Cd 0.465246(10) 0.546344(10) 0.619536(9)
Cd1C Cd 0.534754(10) 0.453656(10) 0.380464(9)
O5 O 0.4381(2) 0.0301(2) 0.56901(19)
O6 O 0.7401(4) 0.3968(3) 0.9126(3)
H19 H 0.7537 0.3310 0.8976
H20 H 0.7039 0.4289 0.8655
O7 O -0.0871(7) -0.5003(9) 0.9807(4)
O8 O -0.0976(5) -0.4935(5) 0.8444(4)
O9 O 0.0832(5) -0.4336(5) 0.9022(6)
H21 H 0.0888 -0.5015 0.8888
H22 H 0.0175 -0.4177 0.9022
loop_
_geom_bond_atom_site_label_1
_geom_bond_atom_site_label_2
_geom_bond_site_symmetry_1
_geom_bond_site_symmetry_2
C1 H1 1_555 1_555
C2 C1 1_555 1_555
H2 C2 1_555 1_555
C3 C2 1_555 1_555
H3 C3 1_555 1_555
C4 C3 1_555 1_555
C5 C4 1_555 1_555
H4 C5 1_555 1_555
C6 C4 1_555 1_555
C7 C6 1_555 1_555
H5 C7 1_555 1_555
H6 C7 1_555 1_555
H7 C7 1_555 1_555
C8 C9 1_555 1_555
C9 H8 1_555 1_555
H9 C9 1_555 1_555
H10 C9 1_555 1_555
C10 C8 1_555 1_555
C11 C10 1_555 1_555
H11 C11 1_555 1_555
C12 C11 1_555 1_555
H12 C12 1_555 1_555
C13 C12 1_555 1_555
H13 C13 1_555 1_555
C14 C10 1_555 1_555
H14 C14 1_555 1_555
C15 C16 1_555 1_555
C16 H15 1_555 1_555
H16 C16 1_555 1_555
C17 C16 1_555 1_555
H17 C17 1_555 1_555
H18 C17 1_555 1_555
C18 C17 1_555 1_555
N1 C1 1_555 1_555
N2 C6 1_555 1_555
N3 C8 1_555 1_555
N4 C13 1_555 1_555
O1 C15 1_555 1_555
O2 C15 1_555 1_555
O3 C18 1_555 1_555
O4 C18 1_555 1_555
Cd1 N1 1_555 1_555
O6 H19 1_555 1_555
H20 O6 1_555 1_555
O9 H21 1_555 1_555
H22 O9 1_555 1_555
N4_2 Cd1 1_555 1_555
O3A Cd1 1_555 1_555
O4A Cd1 1_555 1_555
O4C Cd1 1_555 1_555
Cd1_2 N4 1_555 1_555
Cd1A O3 1_555 1_555
Cd1C O4 1_555 1_555
C5 N1 1_555 1_555
C14 N4 1_555 1_555
N2 N3 1_555 1_555
O1 Cd1 1_555 1_555
O2 Cd1 1_555 1_555
O4 Cd1A 1_555 1_555

#END
