
#######################################################################
#
#                 Cambridge Crystallographic Data Centre
#                                CCDC 
#
#######################################################################
#
# If this CIF has been generated from an entry in the Cambridge 
# Structural Database, then it will include bibliographic, chemical, 
# crystal, experimental, refinement or atomic coordinate data resulting 
# from the CCDC's data processing and validation procedures.
#
#######################################################################

data_WIKZAT
_symmetry_cell_setting           tetragonal
_symmetry_space_group_name_H-M   'P 41'
_symmetry_Int_Tables_number      76
_space_group_name_Hall           'P 4w'
loop_
_symmetry_equiv_pos_site_id
_symmetry_equiv_pos_as_xyz
1 x,y,z
2 -x,-y,1/2+z
3 -y,x,1/4+z
4 y,-x,3/4+z
_cell_length_a                   10.6642(10)
_cell_length_b                   10.6642(10)
_cell_length_c                   23.998(5)
_cell_angle_alpha                90
_cell_angle_beta                 90
_cell_angle_gamma                90
_cell_volume                     2729.18
loop_
_atom_site_label
_atom_site_type_symbol
_atom_site_fract_x
_atom_site_fract_y
_atom_site_fract_z
Cu1 Cu 0.64842(4) 0.60909(4) 0.14864(3)
Na1 Na 0.63200(18) 0.50901(19) 0.01503(11)
O1 O 0.8297(2) 0.5924(3) 0.14719(18)
O2 O 0.8092(3) 0.6177(4) 0.05610(16)
O3 O 1.4893(3) 0.6248(3) 0.06564(18)
O4 O 1.4642(3) 0.6258(3) 0.15746(18)
O5 O 0.6708(3) 0.7884(3) 0.15257(17)
O6 O 0.6462(3) 0.7797(3) 0.24410(15)
O7 O 0.6292(3) 1.4491(3) 0.23266(18)
O8 O 0.6334(3) 1.4274(3) 0.14075(18)
C1 C 1.0152(4) 0.6174(4) 0.0966(2)
C2 C 1.0816(4) 0.5495(4) 0.1354(2)
H1 H 1.0388 0.4984 0.1603
C3 C 1.2123(4) 0.5558(4) 0.1379(2)
H2 H 1.2543 0.5099 0.1650
C4 C 1.2800(4) 0.6277(4) 0.1017(2)
C5 C 1.2169(4) 0.6982(4) 0.0607(2)
C6 C 1.2798(5) 0.7754(5) 0.0219(2)
H3 H 1.3670 0.7786 0.0221
C7 C 1.2156(5) 0.8441(6) -0.0152(3)
H4 H 1.2598 0.8946 -0.0399
C8 C 1.0867(5) 0.8426(5) -0.0182(3)
H5 H 1.0453 0.8916 -0.0445
C9 C 1.0208(5) 0.7694(5) 0.0174(2)
H6 H 0.9338 0.7678 0.0151
C10 C 1.0817(4) 0.6954(4) 0.0579(2)
C11 C 0.8743(4) 0.6096(5) 0.0986(2)
C12 C 1.4211(5) 0.6266(5) 0.1079(3)
C13 C 0.6759(4) 0.9791(4) 0.2007(2)
C14 C 0.5902(4) 1.0447(4) 0.2322(2)
H7 H 0.5359 1.0012 0.2556
C15 C 0.5834(5) 1.1758(4) 0.2297(2)
H8 H 0.5258 1.2180 0.2520
C16 C 0.6599(4) 1.2425(4) 0.1950(2)
C17 C 0.7540(4) 1.1802(4) 0.1641(2)
C18 C 0.8438(4) 1.2449(4) 0.1308(2)
H9 H 0.8392 1.3318 0.1282
C19 C 0.9357(5) 1.1835(5) 0.1030(2)
H10 H 0.9920 1.2283 0.0810
C20 C 0.9463(4) 1.0533(5) 0.1070(2)
H11 H 1.0117 1.0118 0.0892
C21 C 0.8610(4) 0.9877(4) 0.1370(2)
H12 H 0.8666 0.9006 0.1379
C22 C 0.7633(4) 1.0475(4) 0.16703(19)
C23 C 0.6637(4) 0.8375(4) 0.2005(2)
C24 C 0.6391(5) 1.3849(5) 0.1897(3)
Cu1_2 Cu 0.64842(4) 1.60909(4) 0.14864(3)
Cu1_3 Cu 1.64842(4) 0.60909(4) 0.14864(3)
Na1_2 Na 1.63200(18) 0.50901(19) 0.01503(11)
Na1B Na 0.49099(19) 0.63200(18) 0.26503(11)
Na1B_2 Na 0.49099(19) 1.63200(18) 0.26503(11)
Na1B_3 Na 1.49099(19) 0.63200(18) 0.26503(11)
O3_2 O 0.4893(3) 0.6248(3) 0.06564(18)
O4_2 O 0.4642(3) 0.6258(3) 0.15746(18)
O4C O 0.6258(3) 0.5358(3) -0.09254(18)
O6C O 0.7797(3) 0.3538(3) -0.00590(15)
O7_2 O 0.6292(3) 0.4491(3) 0.23266(18)
O7C O 0.4491(3) 0.3708(3) -0.01734(18)
O8_2 O 0.6334(3) 0.4274(3) 0.14075(18)
N1 N 0.8938(7) 0.4982(5) 0.3206(3)
N2 N 0.9730(5) 0.6509(5) 0.2742(2)
C25 C 0.8690(7) 0.5908(6) 0.2866(3)
H13 H 0.7897 0.6111 0.2733
C26 C 1.0661(7) 0.5949(8) 0.3034(3)
H14 H 1.1498 0.6192 0.3032
C27 C 1.0185(8) 0.4994(8) 0.3325(4)
H15 H 1.0616 0.4450 0.3559
C28 C 0.8030(9) 0.4083(7) 0.3436(4)
H16 H 0.8016 0.4166 0.3839
H17 H 0.7200 0.4288 0.3298
C29 C 0.8319(10) 0.2786(7) 0.3292(4)
H18 H 0.7703 0.2241 0.3454
H19 H 0.9134 0.2573 0.3432
H20 H 0.8310 0.2692 0.2894
C30 C 0.9810(6) 0.7607(6) 0.2390(3)
H21 H 0.9001 0.7783 0.2234
H22 H 1.0399 0.7455 0.2095
H23 H 1.0085 0.8310 0.2608
loop_
_geom_bond_atom_site_label_1
_geom_bond_atom_site_label_2
_geom_bond_site_symmetry_1
_geom_bond_site_symmetry_2
Cu1 O1 1_555 1_555
Na1 O2 1_555 1_555
O1 C11 1_555 1_555
O2 C11 1_555 1_555
O3 C12 1_555 1_555
O4 C12 1_555 1_555
O5 Cu1 1_555 1_555
O6 C23 1_555 1_555
O7 C24 1_555 1_555
O8 C24 1_555 1_555
C1 C2 1_555 1_555
C2 H1 1_555 1_555
C3 C2 1_555 1_555
H2 C3 1_555 1_555
C4 C3 1_555 1_555
C5 C4 1_555 1_555
C6 C5 1_555 1_555
H3 C6 1_555 1_555
C7 C6 1_555 1_555
H4 C7 1_555 1_555
C8 C7 1_555 1_555
H5 C8 1_555 1_555
C9 C8 1_555 1_555
H6 C9 1_555 1_555
C10 C1 1_555 1_555
C11 C1 1_555 1_555
C12 C4 1_555 1_555
C13 C14 1_555 1_555
C14 H7 1_555 1_555
C15 C14 1_555 1_555
H8 C15 1_555 1_555
C16 C15 1_555 1_555
C17 C16 1_555 1_555
C18 C17 1_555 1_555
H9 C18 1_555 1_555
C19 C18 1_555 1_555
H10 C19 1_555 1_555
C20 C19 1_555 1_555
H11 C20 1_555 1_555
C21 C20 1_555 1_555
H12 C21 1_555 1_555
C22 C13 1_555 1_555
C23 O5 1_555 1_555
C24 C16 1_555 1_555
N1 C25 1_555 1_555
N2 C25 1_555 1_555
C25 H13 1_555 1_555
C26 N2 1_555 1_555
H14 C26 1_555 1_555
C27 N1 1_555 1_555
H15 C27 1_555 1_555
C28 N1 1_555 1_555
H16 C28 1_555 1_555
H17 C28 1_555 1_555
C29 C28 1_555 1_555
H18 C29 1_555 1_555
H19 C29 1_555 1_555
H20 C29 1_555 1_555
C30 N2 1_555 1_555
H21 C30 1_555 1_555
H22 C30 1_555 1_555
H23 C30 1_555 1_555
Cu1_2 O7 1_555 1_555
Cu1_3 O3 1_555 1_555
Na1_2 O3 1_555 1_555
Na1B O6 1_555 1_555
Na1B_2 O7 1_555 1_555
Na1B_3 O4 1_555 1_555
O3_2 Cu1 1_555 1_555
O4_2 Cu1 1_555 1_555
O4C Na1 1_555 1_555
O6C Na1 1_555 1_555
O7_2 Cu1 1_555 1_555
O7C Na1 1_555 1_555
O8_2 Cu1 1_555 1_555
Na1 O3_2 1_555 1_555
O4 Cu1_3 1_555 1_555
O8 Cu1_2 1_555 1_555
C5 C10 1_555 1_555
C9 C10 1_555 1_555
C13 C23 1_555 1_555
C17 C22 1_555 1_555
C21 C22 1_555 1_555
C26 C27 1_555 1_555
Na1B O4_2 1_555 1_555
Na1B O7_2 1_555 1_555

#END
