
#######################################################################
#
#                 Cambridge Crystallographic Data Centre
#                                CCDC 
#
#######################################################################
#
# If this CIF has been generated from an entry in the Cambridge 
# Structural Database, then it will include bibliographic, chemical, 
# crystal, experimental, refinement or atomic coordinate data resulting 
# from the CCDC's data processing and validation procedures.
#
#######################################################################

data_WIQVAV
_symmetry_cell_setting           monoclinic
_symmetry_space_group_name_H-M   'P 2/c'
_symmetry_Int_Tables_number      13
_space_group_name_Hall           '-P 2yc'
loop_
_symmetry_equiv_pos_site_id
_symmetry_equiv_pos_as_xyz
1 x,y,z
2 -x,y,1/2-z
3 -x,-y,-z
4 x,-y,1/2+z
_cell_length_a                   20.418(4)
_cell_length_b                   7.9129(16)
_cell_length_c                   39.212(11)
_cell_angle_alpha                90
_cell_angle_beta                 121.27(2)
_cell_angle_gamma                90
_cell_volume                     5414.98
loop_
_atom_site_label
_atom_site_type_symbol
_atom_site_fract_x
_atom_site_fract_y
_atom_site_fract_z
C1 C -0.3657(5) 0.5262(11) 0.0488(3)
C2 C -0.2877(5) 0.4743(11) 0.0638(2)
C3 C -0.2670(5) 0.3921(11) 0.0400(3)
H1 H -0.3049 0.3641 0.0137
C4 C -0.1882(5) 0.3478(12) 0.0547(3)
H2 H -0.1752 0.2957 0.0374
C5 C -0.1319(5) 0.3806(13) 0.0933(3)
C6 C -0.1582(5) 0.4579(14) 0.1193(3)
H3 H -0.1218 0.4848 0.1459
C7 C -0.2322(5) 0.4890(12) 0.1052(3)
H4 H -0.2478 0.5213 0.1229
C8 C -0.0205(6) 0.2445(12) 0.0973(3)
C9 C 0.0593(6) 0.2193(15) 0.1254(3)
C10 C 0.1020(6) 0.1622(17) 0.1085(3)
H5 H 0.0774 0.1468 0.0807
C11 C 0.1831(6) 0.1272(15) 0.1333(3)
C12 C 0.2152(5) 0.1366(13) 0.1740(2)
H6 H 0.2664 0.1030 0.1909
C13 C 0.1754(5) 0.1921(14) 0.1902(3)
C14 C 0.0995(6) 0.2333(12) 0.1683(3)
H7 H 0.0737 0.2703 0.1810
C15 C 0.2314(6) 0.0810(16) 0.1169(3)
C16 C 0.2462(5) 0.0978(14) 0.0573(3)
C17 C 0.2446(8) 0.2236(13) 0.0330(4)
H8 H 0.2151 0.3216 0.0284
C18 C 0.2884(6) 0.2013(13) 0.0151(3)
H9 H 0.2928 0.2929 0.0011
C19 C 0.3251(5) 0.0530(11) 0.0169(3)
C20 C 0.3227(6) -0.0703(14) 0.0419(3)
H10 H 0.3467 -0.1747 0.0443
C21 C 0.2870(7) -0.0466(15) 0.0632(3)
H11 H 0.2908 -0.1286 0.0815
C22 C 0.3756(5) 0.0322(12) 0.0010(3)
C23 C 0.2124(6) 0.2196(15) 0.2347(3)
C24 C 0.3145(5) 0.1308(14) 0.3017(3)
C25 C 0.3458(6) -0.0207(15) 0.3214(3)
H12 H 0.3397 -0.1196 0.3067
C26 C 0.3843(6) -0.0252(13) 0.3606(3)
H13 H 0.4037 -0.1292 0.3736
C27 C 0.3976(6) 0.1245(11) 0.3844(2)
C28 C 0.3643(7) 0.2749(12) 0.3637(3)
H14 H 0.3691 0.3755 0.3776
C29 C 0.3236(6) 0.2723(12) 0.3216(3)
H15 H 0.3025 0.3732 0.3074
C30 C 0.4387(5) 0.1158(11) 0.4288(3)
C31 C -0.5388(6) 0.5034(12) 0.0747(3)
H16 H -0.5513 0.4127 0.0568
C32 C -0.5570(7) 0.3118(17) 0.1166(4)
H17 H -0.5778 0.2393 0.0933
H18 H -0.5943 0.3237 0.1247
H19 H -0.5105 0.2619 0.1382
C33 C -0.5134(10) 0.5936(19) 0.1380(4)
H20 H -0.4666 0.6468 0.1426
H21 H -0.5033 0.5336 0.1618
H22 H -0.5521 0.6795 0.1315
N1 N -0.0567(4) 0.3439(11) 0.1124(2)
H23 H -0.0265 0.3884 0.1368
N2 N 0.2072(5) 0.1387(11) 0.0785(2)
H24 H 0.1653 0.2047 0.0662
N3 N 0.2720(6) 0.1182(12) 0.2590(2)
H25 H 0.2861 0.0386 0.2476
N4 N -0.5394(5) 0.4816(12) 0.1067(2)
O1 O -0.3802(3) 0.6243(7) 0.06973(16)
O2 O -0.4216(3) 0.4960(6) 0.01312(16)
O3 O 0.3959(3) 0.1604(7) -0.00955(19)
O4 O 0.3940(3) -0.1214(8) -0.00228(17)
O5 O 0.4574(3) -0.0277(7) 0.44498(17)
O6 O 0.4428(3) 0.2508(5) 0.44866(14)
O7 O -0.0533(4) 0.1890(14) 0.0646(3)
O8 O 0.2882(5) 0.0027(16) 0.1374(2)
O9 O 0.1904(6) 0.3304(16) 0.2483(3)
O10 O -0.5217(4) 0.6446(8) 0.0665(2)
Y1 Y -0.49574(5) 0.74007(8) 0.01649(2)
O2B O -0.5784(3) 0.5040(6) -0.01312(16)
O3B O -0.3959(3) 0.8396(7) 0.00955(19)
O4_2 O -0.6060(3) 0.8786(8) -0.00228(17)
O5A O -0.4574(3) 0.9723(7) 0.05502(17)
O6C O -0.5572(3) 0.7492(5) -0.05134(14)
Y1_2 Y 0.50426(5) -0.25993(8) 0.01649(2)
Y1A Y 0.49574(5) -0.25993(8) 0.48351(2)
Y1B Y -0.50426(5) 0.25993(8) -0.01649(2)
Y1B_2 Y 0.49574(5) 0.25993(8) -0.01649(2)
Y1C Y 0.50426(5) 0.25993(8) 0.51649(2)
loop_
_geom_bond_atom_site_label_1
_geom_bond_atom_site_label_2
_geom_bond_site_symmetry_1
_geom_bond_site_symmetry_2
C1 C2 1_555 1_555
C2 C3 1_555 1_555
C3 H1 1_555 1_555
C4 C3 1_555 1_555
H2 C4 1_555 1_555
C5 C4 1_555 1_555
C6 C5 1_555 1_555
H3 C6 1_555 1_555
C7 C2 1_555 1_555
H4 C7 1_555 1_555
C8 C9 1_555 1_555
C9 C10 1_555 1_555
C10 H5 1_555 1_555
C11 C10 1_555 1_555
C12 C11 1_555 1_555
H6 C12 1_555 1_555
C13 C12 1_555 1_555
C14 C9 1_555 1_555
H7 C14 1_555 1_555
C15 C11 1_555 1_555
C16 C17 1_555 1_555
C17 H8 1_555 1_555
C18 C17 1_555 1_555
H9 C18 1_555 1_555
C19 C18 1_555 1_555
C20 C19 1_555 1_555
H10 C20 1_555 1_555
C21 C16 1_555 1_555
H11 C21 1_555 1_555
C22 C19 1_555 1_555
C23 C13 1_555 1_555
C24 C25 1_555 1_555
C25 H12 1_555 1_555
C26 C25 1_555 1_555
H13 C26 1_555 1_555
C27 C26 1_555 1_555
C28 C27 1_555 1_555
H14 C28 1_555 1_555
C29 C24 1_555 1_555
H15 C29 1_555 1_555
C30 C27 1_555 1_555
C31 H16 1_555 1_555
C32 H17 1_555 1_555
H18 C32 1_555 1_555
H19 C32 1_555 1_555
C33 H20 1_555 1_555
H21 C33 1_555 1_555
H22 C33 1_555 1_555
N1 C5 1_555 1_555
H23 N1 1_555 1_555
N2 C15 1_555 1_555
H24 N2 1_555 1_555
N3 C23 1_555 1_555
H25 N3 1_555 1_555
N4 C31 1_555 1_555
O1 C1 1_555 1_555
O2 C1 1_555 1_555
O3 C22 1_555 1_555
O4 C22 1_555 1_555
O5 C30 1_555 1_555
O6 C30 1_555 1_555
O7 C8 1_555 1_555
O8 C15 1_555 1_555
O9 C23 1_555 1_555
O10 C31 1_555 1_555
Y1 O1 1_555 1_555
O2B Y1 1_555 1_555
O3B Y1 1_555 1_555
O4_2 Y1 1_555 1_555
O5A Y1 1_555 1_555
O6C Y1 1_555 1_555
Y1_2 O4 1_555 1_555
Y1A O5 1_555 1_555
Y1B O2 1_555 1_555
Y1B_2 O3 1_555 1_555
Y1C O6 1_555 1_555
C6 C7 1_555 1_555
C8 N1 1_555 1_555
C13 C14 1_555 1_555
C16 N2 1_555 1_555
C20 C21 1_555 1_555
C24 N3 1_555 1_555
C28 C29 1_555 1_555
C32 N4 1_555 1_555
C33 N4 1_555 1_555
O2 Y1 1_555 1_555
O10 Y1 1_555 1_555
O2B Y1B 1_555 1_555

#END
