
#######################################################################
#
#                 Cambridge Crystallographic Data Centre
#                                CCDC 
#
#######################################################################
#
# If this CIF has been generated from an entry in the Cambridge 
# Structural Database, then it will include bibliographic, chemical, 
# crystal, experimental, refinement or atomic coordinate data resulting 
# from the CCDC's data processing and validation procedures.
#
#######################################################################

data_WIRMUH
_symmetry_cell_setting           monoclinic
_symmetry_space_group_name_H-M   'P 21/m'
_symmetry_Int_Tables_number      11
_space_group_name_Hall           '-P 2yb'
loop_
_symmetry_equiv_pos_site_id
_symmetry_equiv_pos_as_xyz
1 x,y,z
2 -x,1/2+y,-z
3 -x,-y,-z
4 x,1/2-y,z
_cell_length_a                   10.7521(8)
_cell_length_b                   11.7077(7)
_cell_length_c                   12.3439(10)
_cell_angle_alpha                90
_cell_angle_beta                 92.146(7)
_cell_angle_gamma                90
_cell_volume                     1552.79
loop_
_atom_site_label
_atom_site_type_symbol
_atom_site_fract_x
_atom_site_fract_y
_atom_site_fract_z
Cu1 Cu 0.1795(2) 0.7500 0.80638(18)
N1 N 0.0592(8) 0.6255(8) 0.8228(7)
C1 C 0.0409(9) 0.5697(10) 0.9190(9)
C2 C -0.0164(10) 0.5748(10) 0.7503(9)
C3 C 0.0924(11) 0.5877(10) 1.0222(9)
C4 C -0.0484(10) 0.4836(10) 0.8975(8)
H1 H -0.0222 0.5990 0.6769
N2 N -0.0829(9) 0.4890(8) 0.7857(8)
H2 H 0.1535 0.6447 1.0371
Cu2 Cu -0.18605(15) 0.37909(14) 0.70506(13)
O1 O -0.293(3) 0.2500 0.672(3)
O2 O -0.0789(12) 0.2500 0.7414(12)
O3 O -0.0843(17) 0.394(3) 0.5250(15)
N3 N -0.3146(8) 0.4907(8) 0.6590(8)
H3 H -0.3168 0.2500 0.6053
H4 H -0.0104 0.2500 0.7782
H5 H -0.1343 0.4504 0.5289
H6 H -0.1476 0.3618 0.4955
C5 C -0.4009(11) 0.4842(10) 0.5728(9)
C6 C -0.3535(10) 0.5742(10) 0.7232(9)
C7 C -0.4064(10) 0.4140(10) 0.4801(10)
C8 C -0.4936(11) 0.5679(10) 0.5905(8)
N4 N -0.4597(8) 0.6258(8) 0.6869(8)
H7 H -0.3103 0.5955 0.7886
H8 H -0.3449 0.3578 0.4671
Cu3 Cu -0.5559(2) 0.7500 0.74703(18)
O4 O -0.6788(7) 0.6456(7) 0.8055(7)
H9 H -0.6888 0.5886 0.7634
O5 O 0.153(3) 0.7500 0.606(2)
H10 H 0.1419 0.6969 0.5598
N1B N -0.0592(8) 0.3745(8) 1.1772(7)
C1B C -0.0409(9) 0.4303(10) 1.0810(9)
C2B C 0.0164(10) 0.4252(10) 1.2497(9)
C3B C -0.0924(11) 0.4123(10) 0.9778(9)
C4B C 0.0484(10) 0.5164(10) 1.1025(8)
H1B H 0.0222 0.4010 1.3231
N2B N 0.0829(9) 0.5110(8) 1.2143(8)
H2B H -0.1535 0.3553 0.9629
N3B N -0.6854(8) 0.5093(8) 0.3410(8)
C5B C -0.5991(11) 0.5158(10) 0.4272(9)
C6B C -0.6465(10) 0.4258(10) 0.2768(9)
C7B C -0.5936(10) 0.5860(10) 0.5199(10)
C8B C -0.5064(11) 0.4321(10) 0.4095(8)
N4B N -0.5403(8) 0.3742(8) 0.3131(8)
H7B H -0.6897 0.4045 0.2114
H8B H -0.6551 0.6422 0.5329
H10C H 0.1419 0.8031 0.5598
Cu2B Cu -0.81395(15) 0.62091(14) 0.29494(13)
O3B O -0.9157(17) 0.606(3) 0.4750(15)
H5B H -0.8657 0.5496 0.4711
H6B H -0.8524 0.6382 0.5045
O4C O 0.3212(7) 0.8544(7) 0.8055(7)
H9C H 0.3112 0.9114 0.7634
Cu1_2 Cu -0.8205(2) 0.7500 0.80638(18)
Cu1A Cu -0.1795(2) 0.2500 1.19362(18)
N1C N 0.0592(8) 0.8745(8) 0.8228(7)
N2B_2 N -0.9171(9) 0.5110(8) 0.2143(8)
Cu2B_2 Cu 0.18605(15) 0.62091(14) 1.29494(13)
Cu2C Cu -0.18605(15) 0.12091(14) 0.70506(13)
O1A O -0.707(3) 0.7500 0.328(3)
O2A O -0.9211(12) 0.7500 0.2586(12)
N4C N -0.4597(8) 0.8742(8) 0.6869(8)
Cu3_2 Cu 0.4441(2) 0.7500 0.74703(18)
Cu3A Cu -0.4441(2) 0.2500 0.25297(18)
O4_2 O 0.3212(7) 0.6456(7) 0.8055(7)
O4C_2 O -0.6788(7) 0.8544(7) 0.8055(7)
O6 O 0.623(3) 0.7500 0.936(2)
H11 H 0.5955 0.8149 0.9551
H11C H 0.5955 0.6851 0.9551
O7 O 0.2773(13) 0.4093(12) 0.7625(11)
H12 H 0.2260 0.3764 0.8030
H13 H 0.3327 0.3581 0.7566
O8 O 0.4414(19) 0.590(2) 0.9962(14)
H14 H 0.3993 0.6015 0.9375
H15 H 0.3923 0.6193 1.0412
O9 O 0.644(3) 0.2500 0.859(3)
H16 H 0.7024 0.2500 0.8139
H17 H 0.5696 0.2500 0.8341
O10 O 0.167(2) 0.2500 0.918(2)
H18 H 0.1880 0.3017 0.8739
H18C H 0.1880 0.1983 0.8739
O11 O 0.150(2) 0.416(3) 0.5655(17)
H19 H 0.1821 0.4156 0.6294
H20 H 0.0758 0.3925 0.5522
O12 O 0.443(3) 0.2500 0.692(2)
H21 H 0.4070 0.2500 0.6297
H22 H 0.5209 0.2500 0.6840
O13 O 0.293(3) 0.2500 0.498(3)
H23 H 0.2405 0.2999 0.5160
H23C H 0.2405 0.2001 0.5160
O14? O 0.743(4) 0.2500 0.626(4)
H24? H 0.3510 0.2500 0.5473
H25? H 0.2140 0.2500 0.9745
loop_
_geom_bond_atom_site_label_1
_geom_bond_atom_site_label_2
_geom_bond_site_symmetry_1
_geom_bond_site_symmetry_2
Cu1 N1 1_555 1_555
N1 C1 1_555 1_555
C1 C3 1_555 1_555
C2 N1 1_555 1_555
C3 H2 1_555 1_555
C4 C1 1_555 1_555
H1 C2 1_555 1_555
N2 C2 1_555 1_555
Cu2 N2 1_555 1_555
O1 Cu2 1_555 1_555
O2 Cu2 1_555 1_555
O3 Cu2 1_555 1_555
N3 Cu2 1_555 1_555
H3 O1 1_555 1_555
H4 O2 1_555 1_555
H5 O3 1_555 1_555
H6 O3 1_555 1_555
C5 N3 1_555 1_555
C6 N3 1_555 1_555
C7 C5 1_555 1_555
C8 C5 1_555 1_555
N4 C6 1_555 1_555
H7 C6 1_555 1_555
H8 C7 1_555 1_555
Cu3 N4 1_555 1_555
O4 Cu3 1_555 1_555
H9 O4 1_555 1_555
O5 Cu1 1_555 1_555
H10 O5 1_555 1_555
O6 H11 1_555 1_555
O7 H12 1_555 1_555
H13 O7 1_555 1_555
O8 H14 1_555 1_555
H15 O8 1_555 1_555
O9 H16 1_555 1_555
H17 O9 1_555 1_555
O10 H18 1_555 1_555
O11 H19 1_555 1_555
H20 O11 1_555 1_555
O12 H21 1_555 1_555
H22 O12 1_555 1_555
O13 H23 1_555 1_555
N1B C1B 1_555 1_555
C1B C3B 1_555 1_555
C2B N1B 1_555 1_555
C3B C4 1_555 1_555
C4B C3 1_555 1_555
H1B C2B 1_555 1_555
N2B C2B 1_555 1_555
H2B C3B 1_555 1_555
N3B C5B 1_555 1_555
C5B C7B 1_555 1_555
C6B N3B 1_555 1_555
C7B C8 1_555 1_555
C8B C7 1_555 1_555
N4B C6B 1_555 1_555
H7B C6B 1_555 1_555
H8B C7B 1_555 1_555
H10C O5 1_555 1_555
Cu2B N3B 1_555 1_555
O3B Cu2B 1_555 1_555
H5B O3B 1_555 1_555
H6B O3B 1_555 1_555
O4C Cu1 1_555 1_555
H9C O4C 1_555 1_555
Cu1_2 O4 1_555 1_555
Cu1A N1B 1_555 1_555
N1C Cu1 1_555 1_555
N2B_2 Cu2B 1_555 1_555
Cu2B_2 N2B 1_555 1_555
Cu2C O1 1_555 1_555
O1A Cu2B 1_555 1_555
O2A Cu2B 1_555 1_555
N4C Cu3 1_555 1_555
Cu3_2 O4C 1_555 1_555
Cu3A N4B 1_555 1_555
O4_2 Cu1 1_555 1_555
O4C_2 Cu3 1_555 1_555
H11C O6 1_555 1_555
H18C O10 1_555 1_555
H23C O13 1_555 1_555
C4 N2 1_555 1_555
O2 Cu2C 1_555 1_555
C8 N4 1_555 1_555
C1B C4B 1_555 1_555
C4B N2B 1_555 1_555
C5B C8B 1_555 1_555
C8B N4B 1_555 1_555
Cu1_2 O4C_2 1_555 1_555
Cu3_2 O4_2 1_555 1_555

#END
