
#######################################################################
#
#                 Cambridge Crystallographic Data Centre
#                                CCDC 
#
#######################################################################
#
# If this CIF has been generated from an entry in the Cambridge 
# Structural Database, then it will include bibliographic, chemical, 
# crystal, experimental, refinement or atomic coordinate data resulting 
# from the CCDC's data processing and validation procedures.
#
#######################################################################

data_WISTID
_symmetry_cell_setting           triclinic
_symmetry_space_group_name_H-M   'P -1'
_symmetry_Int_Tables_number      2
_space_group_name_Hall           '-P 1'
loop_
_symmetry_equiv_pos_site_id
_symmetry_equiv_pos_as_xyz
1 x,y,z
2 -x,-y,-z
_cell_length_a                   7.9974(18)
_cell_length_b                   10.3744(13)
_cell_length_c                   12.6106(15)
_cell_angle_alpha                90.316(10)
_cell_angle_beta                 90.311(14)
_cell_angle_gamma                107.047(15)
_cell_volume                     1000.27
loop_
_atom_site_label
_atom_site_type_symbol
_atom_site_fract_x
_atom_site_fract_y
_atom_site_fract_z
C1 C 0.3792(11) 0.3982(7) 0.8666(7)
O1 O 0.6674(9) 0.9118(6) 0.3374(5)
O2 O 0.4298(8) 0.7804(7) 0.3997(5)
C2 C 0.5795(13) 0.8613(9) 0.4145(8)
O3 O 0.9588(6) 1.0923(5) 0.8590(4)
O4 O 0.8313(7) 0.8792(5) 0.9013(4)
C3 C 0.8592(9) 0.9749(7) 0.8377(6)
C4 C 0.7761(9) 0.9506(7) 0.7314(6)
C5 C 0.3997(11) 0.9614(7) 0.8768(6)
C6 C 0.4051(9) 0.8161(7) 0.8735(6)
C7 C 0.3027(10) 0.7272(7) 0.9454(6)
H1 H 0.2393 0.7598 0.9950
C8 C 0.2915(10) 0.5928(7) 0.9459(7)
H2 H 0.2202 0.5347 0.9942
C9 C 0.3890(9) 0.5453(6) 0.8730(6)
C10 C 0.4947(10) 0.6329(6) 0.8021(6)
H3 H 0.5583 0.5991 0.7534
C11 C 0.5096(10) 0.7695(6) 0.8009(6)
C12 C 0.6117(9) 0.8518(6) 0.7151(6)
C13 C 0.5487(10) 0.8291(7) 0.6128(7)
H4 H 0.4407 0.7658 0.6007
C14 C 0.6417(11) 0.8981(7) 0.5265(6)
C15 C 0.7973(10) 0.9943(8) 0.5439(6)
H5 H 0.8579 1.0425 0.4870
C16 C 0.8649(10) 1.0203(7) 0.6438(6)
H6 H 0.9718 1.0855 0.6541
O5 O 0.5375(6) 1.0532(4) 0.8536(4)
O6 O 0.2584(7) 0.9772(5) 0.9045(4)
O7 O 0.4821(8) 0.3639(5) 0.8068(5)
O8 O 0.2675(7) 0.3205(5) 0.9259(5)
O9 O 0.8163(7) 1.2929(5) 0.7925(5)
Zn1 Zn 0.17760(11) 1.12851(7) 0.94333(7)
Zn2 Zn 0.55635(11) 1.21007(8) 0.76248(7)
O1A O 0.3326(9) 1.0882(6) 0.6626(5)
O2A O 0.5702(8) 1.2196(7) 0.6003(5)
O3_2 O -0.0412(6) 1.0923(5) 0.8590(4)
O4A O 0.1687(7) 1.1208(5) 1.0987(4)
O7_2 O 0.4821(8) 1.3639(5) 0.8068(5)
O8_2 O 0.2675(7) 1.3205(5) 0.9259(5)
Zn1_2 Zn 0.17760(11) 0.12851(7) 0.94333(7)
Zn1_3 Zn 1.17760(11) 1.12851(7) 0.94333(7)
Zn1A Zn 0.82240(11) 0.87149(7) 1.05667(7)
Zn2_2 Zn 0.55635(11) 0.21007(8) 0.76248(7)
Zn2A Zn 0.44365(11) 0.78993(8) 0.23752(7)
loop_
_geom_bond_atom_site_label_1
_geom_bond_atom_site_label_2
_geom_bond_site_symmetry_1
_geom_bond_site_symmetry_2
C1 C9 1_555 1_555
O1 C2 1_555 1_555
O2 C2 1_555 1_555
C2 C14 1_555 1_555
O3 C3 1_555 1_555
O4 C3 1_555 1_555
C3 C4 1_555 1_555
C4 C12 1_555 1_555
C5 C6 1_555 1_555
C6 C7 1_555 1_555
C7 H1 1_555 1_555
C8 C7 1_555 1_555
H2 C8 1_555 1_555
C9 C8 1_555 1_555
C10 C9 1_555 1_555
H3 C10 1_555 1_555
C11 C6 1_555 1_555
C12 C11 1_555 1_555
C13 C12 1_555 1_555
H4 C13 1_555 1_555
C14 C13 1_555 1_555
C15 C14 1_555 1_555
H5 C15 1_555 1_555
C16 C4 1_555 1_555
H6 C16 1_555 1_555
O5 C5 1_555 1_555
O6 C5 1_555 1_555
O7 C1 1_555 1_555
O8 C1 1_555 1_555
O9 Zn2 1_555 1_555
Zn1 O6 1_555 1_555
Zn2 O5 1_555 1_555
O1A Zn2 1_555 1_555
O2A Zn2 1_555 1_555
O3_2 Zn1 1_555 1_555
O4A Zn1 1_555 1_555
O7_2 Zn2 1_555 1_555
O8_2 Zn1 1_555 1_555
Zn1_2 O8 1_555 1_555
Zn1_3 O3 1_555 1_555
Zn1A O4 1_555 1_555
Zn2_2 O7 1_555 1_555
Zn2A O1 1_555 1_555
O2 Zn2A 1_555 1_555
C10 C11 1_555 1_555
C15 C16 1_555 1_555

#END
