
#######################################################################
#
#                 Cambridge Crystallographic Data Centre
#                                CCDC 
#
#######################################################################
#
# If this CIF has been generated from an entry in the Cambridge 
# Structural Database, then it will include bibliographic, chemical, 
# crystal, experimental, refinement or atomic coordinate data resulting 
# from the CCDC's data processing and validation procedures.
#
#######################################################################

data_WIZFES
_symmetry_cell_setting           orthorhombic
_symmetry_space_group_name_H-M   'P b a m'
_symmetry_Int_Tables_number      55
_space_group_name_Hall           '-P 2 2ab'
loop_
_symmetry_equiv_pos_site_id
_symmetry_equiv_pos_as_xyz
1 x,y,z
2 -x,-y,z
3 1/2-x,1/2+y,-z
4 1/2+x,1/2-y,-z
5 -x,-y,-z
6 x,y,-z
7 1/2+x,1/2-y,z
8 1/2-x,1/2+y,z
_cell_length_a                   14.857(5)
_cell_length_b                   23.615(9)
_cell_length_c                   3.7317(13)
_cell_angle_alpha                90
_cell_angle_beta                 90
_cell_angle_gamma                90
_cell_volume                     1309.26
loop_
_atom_site_label
_atom_site_type_symbol
_atom_site_fract_x
_atom_site_fract_y
_atom_site_fract_z
Cd1 Cd 0.77229(13) 0.26032(8) 0.5000
Cl1 Cl 0.7011(5) 0.1963(3) 0.0000
Cl2 Cl 0.8461(4) 0.3249(3) 0.0000
N1 N 0.9388(15) 0.1015(10) 0.5000
N2 N 0.9004(15) 0.1996(14) 0.5000
C1 C 1.023(2) 0.1216(10) 0.5000
C2 C 1.066(2) 0.1733(10) 0.5000
N3 N 1.1496(13) 0.1757(11) 0.5000
C3 C 0.877(2) 0.1452(14) 0.5000
H1 H 0.8162 0.1361 0.5000
N4 N 1.0191(15) 0.2752(10) 0.5000
H2 H 1.0738 0.2871 0.5000
H3 H 0.9754 0.2992 0.5000
C4 C 1.0011(14) 0.2173(10) 0.5000
N5 N 1.0964(15) 0.0868(9) 0.5000
C5 C 1.174(2) 0.1223(13) 0.5000
H4 H 1.2329 0.1095 0.5000
Cd2 Cd 0.88937(14) 0.00827(10) 0.5000
Cl3 Cl 0.7690(6) 0.0177(6) 0.0000
Cl4 Cl 1.0000 0.0000 1.0000
Cd1A Cd 1.22771(13) -0.26032(8) 0.5000
Cl1A Cl 1.2989(5) -0.1963(3) 0.0000
Cl2A Cl 1.1539(4) -0.3249(3) 0.0000
N1A N 1.0612(15) -0.1015(10) 0.5000
N2A N 1.0996(15) -0.1996(14) 0.5000
C1A C 0.977(2) -0.1216(10) 0.5000
C2A C 0.934(2) -0.1733(10) 0.5000
N3A N 0.8504(13) -0.1757(11) 0.5000
C3A C 1.123(2) -0.1452(14) 0.5000
H1A H 1.1838 -0.1361 0.5000
N4A N 0.9809(15) -0.2752(10) 0.5000
H2A H 0.9262 -0.2871 0.5000
H3A H 1.0246 -0.2992 0.5000
C4A C 0.9989(14) -0.2173(10) 0.5000
N5A N 0.9036(15) -0.0868(9) 0.5000
C5A C 0.826(2) -0.1223(13) 0.5000
H4A H 0.7671 -0.1095 0.5000
Cd2A Cd 1.11063(14) -0.00827(10) 0.5000
Cl3A Cl 1.2310(6) -0.0177(6) 0.0000
Cd1_2 Cd 0.77229(13) 0.26032(8) -0.5000
Cd1A_2 Cd 1.22771(13) -0.26032(8) -0.5000
Cd1B Cd 0.72771(13) -0.23968(8) 0.5000
Cd1C Cd 1.27229(13) 0.23968(8) 0.5000
Cl1_2 Cl 0.7011(5) 0.1963(3) 1.0000
Cl1A_2 Cl 1.2989(5) -0.1963(3) 1.0000
Cl2_2 Cl 0.8461(4) 0.3249(3) 1.0000
Cl2A_2 Cl 1.1539(4) -0.3249(3) 1.0000
N3B N 1.3504(13) -0.3243(11) 0.5000
N3C N 0.6496(13) 0.3243(11) 0.5000
Cd2_2 Cd 0.88937(14) 0.00827(10) -0.5000
Cd2_3 Cd 0.88937(14) 0.00827(10) 1.5000
Cd2A_2 Cd 1.11063(14) -0.00827(10) -0.5000
Cd2A_3 Cd 1.11063(14) -0.00827(10) 1.5000
Cl3_2 Cl 0.7690(6) 0.0177(6) 1.0000
Cl3A_2 Cl 1.2310(6) -0.0177(6) 1.0000
Cl4_2 Cl 1.0000 0.0000 0.0000
loop_
_geom_bond_atom_site_label_1
_geom_bond_atom_site_label_2
_geom_bond_site_symmetry_1
_geom_bond_site_symmetry_2
Cd1 Cl1 1_555 1_555
Cl1 Cd1_2 1_555 1_555
Cl2 Cd1 1_555 1_555
N1 C1 1_555 1_555
N2 Cd1 1_555 1_555
C1 C2 1_555 1_555
C2 N3 1_555 1_555
N3 C5 1_555 1_555
C3 N1 1_555 1_555
H1 C3 1_555 1_555
N4 H2 1_555 1_555
H3 N4 1_555 1_555
C4 N2 1_555 1_555
N5 C1 1_555 1_555
C5 N5 1_555 1_555
H4 C5 1_555 1_555
Cd2 N1 1_555 1_555
Cl3 Cd2 1_555 1_555
Cl4 Cd2 1_555 1_555
Cd1A Cl1A 1_555 1_555
Cl1A Cd1A_2 1_555 1_555
Cl2A Cd1A 1_555 1_555
N1A C1A 1_555 1_555
N2A Cd1A 1_555 1_555
C1A C2A 1_555 1_555
C2A N3A 1_555 1_555
N3A C5A 1_555 1_555
C3A N1A 1_555 1_555
H1A C3A 1_555 1_555
N4A H2A 1_555 1_555
H3A N4A 1_555 1_555
C4A N2A 1_555 1_555
N5A Cd2 1_555 1_555
C5A N5A 1_555 1_555
H4A C5A 1_555 1_555
Cd2A N5 1_555 1_555
Cl3A Cd2A 1_555 1_555
Cd1_2 Cl2 1_555 1_555
Cd1A_2 Cl2A 1_555 1_555
Cd1B N3A 1_555 1_555
Cd1C N3 1_555 1_555
Cl1_2 Cd1 1_555 1_555
Cl1A_2 Cd1A 1_555 1_555
Cl2_2 Cd1 1_555 1_555
Cl2A_2 Cd1A 1_555 1_555
N3B Cd1A 1_555 1_555
N3C Cd1 1_555 1_555
Cd2_2 Cl3 1_555 1_555
Cd2_3 Cl4 1_555 1_555
Cd2A_2 Cl3A 1_555 1_555
Cd2A_3 Cl4 1_555 1_555
Cl3_2 Cd2 1_555 1_555
Cl3A_2 Cd2A 1_555 1_555
Cl4_2 Cd2 1_555 1_555
N2 C3 1_555 1_555
C2 C4 1_555 1_555
N4 C4 1_555 1_555
Cl4 Cd2A 1_555 1_555
N1A Cd2A 1_555 1_555
N2A C3A 1_555 1_555
C1A N5A 1_555 1_555
C2A C4A 1_555 1_555
N4A C4A 1_555 1_555
Cd2A Cl4_2 1_555 1_555
Cd2_2 Cl4_2 1_555 1_555
Cd2_3 Cl3_2 1_555 1_555
Cd2A_2 Cl4_2 1_555 1_555
Cd2A_3 Cl3A_2 1_555 1_555

#END
