
#######################################################################
#
#                 Cambridge Crystallographic Data Centre
#                                CCDC 
#
#######################################################################
#
# If this CIF has been generated from an entry in the Cambridge 
# Structural Database, then it will include bibliographic, chemical, 
# crystal, experimental, refinement or atomic coordinate data resulting 
# from the CCDC's data processing and validation procedures.
#
#######################################################################

data_WOCVUG01
_symmetry_cell_setting           monoclinic
_symmetry_space_group_name_H-M   'C 2'
_symmetry_Int_Tables_number      5
_space_group_name_Hall           'C 2y'
loop_
_symmetry_equiv_pos_site_id
_symmetry_equiv_pos_as_xyz
1 x,y,z
2 -x,y,-z
3 1/2+x,1/2+y,z
4 1/2-x,1/2+y,-z
_cell_length_a                   20.9834(4)
_cell_length_b                   13.6998(2)
_cell_length_c                   9.1183(2)
_cell_angle_alpha                90
_cell_angle_beta                 103.8970(10)
_cell_angle_gamma                90
_cell_volume                     2544.5
loop_
_atom_site_label
_atom_site_type_symbol
_atom_site_fract_x
_atom_site_fract_y
_atom_site_fract_z
Cu1 Cu 0.29958(2) 0.47329(3) 0.31672(5)
Cu2 Cu 0.19487(2) 0.56638(3) 0.17091(5)
O1 O 0.24566(11) 0.4641(2) 0.4666(3)
O2 O 0.15140(12) 0.5268(2) 0.3322(3)
O3 O 0.17023(12) 0.1035(2) 0.6042(3)
O4 O 0.26462(12) 0.1797(2) 0.7086(3)
O5 O 0.33946(12) 0.49696(19) 0.1447(3)
O6 O 0.25293(12) 0.58884(19) 0.0327(3)
O7 O 0.24647(12) 0.8560(2) -0.2153(3)
O8 O 0.33159(13) 0.9385(2) -0.0755(3)
N1 N 0.37776(14) 0.3970(2) 0.4704(3)
N2 N 0.61724(14) 0.1455(2) 1.0212(3)
C1 C 0.4263(3) 0.4428(3) 0.5632(7)
H1 H 0.4290 0.5117 0.5538
C2 C 0.4736(2) 0.3973(3) 0.6730(6)
H2 H 0.5073 0.4347 0.7368
C3 C 0.47189(16) 0.2990(3) 0.6897(4)
C4 C 0.4213(3) 0.2517(4) 0.5945(7)
H3 H 0.4173 0.1829 0.6026
C5 C 0.3759(3) 0.3021(4) 0.4866(7)
H4 H 0.3418 0.2664 0.4211
C6 C 0.62259(19) 0.2404(3) 0.9957(5)
H5 H 0.6596 0.2743 1.0538
C7 C 0.5772(2) 0.2924(3) 0.8894(6)
H6 H 0.5835 0.3602 0.8757
C8 C 0.52281(16) 0.2459(3) 0.8035(4)
C9 C 0.51816(17) 0.1463(3) 0.8259(4)
H7 H 0.4824 0.1102 0.7671
C10 C 0.56580(17) 0.1000(3) 0.9342(4)
H8 H 0.5617 0.0317 0.9474
C11 C 0.18582(15) 0.4823(3) 0.4444(4)
C12 C 0.15177(17) 0.4490(3) 0.5666(4)
H9 H 0.1048 0.4343 0.5178
C13 C 0.18326(18) 0.3574(3) 0.6491(4)
H10 H 0.1606 0.3407 0.7293
H11 H 0.2298 0.3714 0.6982
C14 C 0.17998(18) 0.2695(3) 0.5429(4)
H12 H 0.1337 0.2582 0.4890
H13 H 0.2050 0.2849 0.4665
C15 C 0.20717(17) 0.1778(3) 0.6249(4)
C16 C 0.1541(2) 0.5329(3) 0.6793(4)
H14 H 0.1332 0.5909 0.6255
H15 H 0.2000 0.5478 0.7285
H16 H 0.1308 0.5137 0.7558
C17 C 0.30917(17) 0.5543(3) 0.0418(4)
C18 C 0.34275(18) 0.5810(3) -0.0833(5)
H17 H 0.3286 0.5309 -0.1643
C19 C 0.3185(2) 0.6801(3) -0.1558(4)
H18 H 0.3410 0.6935 -0.2374
H19 H 0.2709 0.6750 -0.2028
C20 C 0.32967(12) 0.7657(2) -0.0475(3)
H20 H 0.3775 0.7743 -0.0066
H21 H 0.3100 0.7504 0.0382
C21 C 0.30068(12) 0.8615(2) -0.1195(3)
C22 C 0.41518(12) 0.5766(2) -0.0389(3)
H22 H 0.4329 0.5943 -0.1254
H23 H 0.4291 0.5102 -0.0060
H24 H 0.4316 0.6223 0.0443
Cu1C Cu 0.20042(2) -0.02671(3) 0.68328(5)
Cu1C_2 Cu 0.20042(2) 0.97329(3) -0.31672(5)
Cu2C Cu 0.30513(2) 0.06638(3) 0.82909(5)
Cu2C_2 Cu 0.30513(2) 1.06638(3) -0.17091(5)
Cu2B Cu 0.69487(2) 0.06638(3) 1.17091(5)
O3C O 0.32977(12) 0.6035(2) 0.3958(3)
O4C O 0.23538(12) 0.6797(2) 0.2914(3)
O7C O 0.25353(12) 0.3560(2) 0.2153(3)
O8C O 0.16841(13) 0.4385(2) 0.0755(3)
N2B N 0.11724(14) 0.6455(2) 0.0212(3)
loop_
_geom_bond_atom_site_label_1
_geom_bond_atom_site_label_2
_geom_bond_site_symmetry_1
_geom_bond_site_symmetry_2
Cu1 O1 1_555 1_555
Cu2 O2 1_555 1_555
O1 C11 1_555 1_555
O2 C11 1_555 1_555
O3 C15 1_555 1_555
O4 C15 1_555 1_555
O5 Cu1 1_555 1_555
O6 Cu2 1_555 1_555
O7 C21 1_555 1_555
O8 C21 1_555 1_555
N1 Cu1 1_555 1_555
N2 C6 1_555 1_555
C1 N1 1_555 1_555
H1 C1 1_555 1_555
C2 C1 1_555 1_555
H2 C2 1_555 1_555
C3 C2 1_555 1_555
C4 C3 1_555 1_555
H3 C4 1_555 1_555
C5 N1 1_555 1_555
H4 C5 1_555 1_555
C6 H5 1_555 1_555
C7 C6 1_555 1_555
H6 C7 1_555 1_555
C8 C3 1_555 1_555
C9 C8 1_555 1_555
H7 C9 1_555 1_555
C10 N2 1_555 1_555
H8 C10 1_555 1_555
C11 C12 1_555 1_555
C12 H9 1_555 1_555
C13 C12 1_555 1_555
H10 C13 1_555 1_555
H11 C13 1_555 1_555
C14 C13 1_555 1_555
H12 C14 1_555 1_555
H13 C14 1_555 1_555
C15 C14 1_555 1_555
C16 C12 1_555 1_555
H14 C16 1_555 1_555
H15 C16 1_555 1_555
H16 C16 1_555 1_555
C17 O5 1_555 1_555
C18 C17 1_555 1_555
H17 C18 1_555 1_555
C19 C18 1_555 1_555
H18 C19 1_555 1_555
H19 C19 1_555 1_555
C20 C19 1_555 1_555
H20 C20 1_555 1_555
H21 C20 1_555 1_555
C21 C20 1_555 1_555
C22 C18 1_555 1_555
H22 C22 1_555 1_555
H23 C22 1_555 1_555
H24 C22 1_555 1_555
Cu1C O3 1_555 1_555
Cu1C_2 O7 1_555 1_555
Cu2C O4 1_555 1_555
Cu2C_2 O8 1_555 1_555
Cu2B N2 1_555 1_555
O3C Cu1 1_555 1_555
O4C Cu2 1_555 1_555
O7C Cu1 1_555 1_555
O8C Cu2 1_555 1_555
N2B Cu2 1_555 1_555
O6 C17 1_555 1_555
C4 C5 1_555 1_555
C7 C8 1_555 1_555
C9 C10 1_555 1_555

#END
