
#######################################################################
#
#                 Cambridge Crystallographic Data Centre
#                                CCDC 
#
#######################################################################
#
# If this CIF has been generated from an entry in the Cambridge 
# Structural Database, then it will include bibliographic, chemical, 
# crystal, experimental, refinement or atomic coordinate data resulting 
# from the CCDC's data processing and validation procedures.
#
#######################################################################

data_WOGHEG
_symmetry_cell_setting           triclinic
_symmetry_space_group_name_H-M   'P 1'
_symmetry_Int_Tables_number      1
_space_group_name_Hall           'P 1'
loop_
_symmetry_equiv_pos_site_id
_symmetry_equiv_pos_as_xyz
1 x,y,z
_cell_length_a                   7.9273(16)
_cell_length_b                   10.556(2)
_cell_length_c                   13.155(3)
_cell_angle_alpha                107.26(3)
_cell_angle_beta                 107.06(3)
_cell_angle_gamma                90.65(3)
_cell_volume                     999.136
loop_
_atom_site_label
_atom_site_type_symbol
_atom_site_fract_x
_atom_site_fract_y
_atom_site_fract_z
Zn1 Zn 0.72617(12) 1.04537(9) 1.29817(8)
Zn2 Zn 0.38573(11) 0.87077(9) 1.17794(8)
O1 O 0.476(2) 0.9188(13) 1.0599(10)
O2 O 0.740(2) 1.0499(15) 1.1474(11)
O3 O 0.381(2) 0.8624(13) 0.3323(10)
O4 O 0.627(2) 1.0060(18) 0.4159(12)
O5 O 0.558(2) 0.7266(14) 1.1815(14)
O6 O 0.8228(19) 0.8644(12) 1.2640(13)
O7 O 1.299(2) 0.0539(14) 1.2067(12)
O8 O 1.5502(19) 0.1824(12) 1.2953(11)
C1 C 0.607(3) 0.983(2) 1.0564(16)
C2 C 0.609(2) 0.994(2) 0.9532(12)
C3 C 0.518(4) 0.912(2) 0.8567(18)
H1 H 0.4498 0.8414 0.8594
C4 C 0.508(4) 0.913(3) 0.7398(17)
H2 H 0.4340 0.8482 0.6774
C5 C 0.608(4) 1.011(3) 0.7255(18)
C6 C 0.693(2) 1.0868(15) 0.8238(13)
H3 H 0.7619 1.1585 0.8239
C7 C 0.704(2) 1.0851(16) 0.9333(12)
H4 H 0.7804 1.1506 0.9942
C8 C 0.612(4) 1.009(3) 0.6250(18)
H5 H 0.6933 1.0672 0.6181
C9 C 0.498(4) 0.921(2) 0.5327(19)
H6 H 0.4203 0.8596 0.5391
C10 C 0.499(3) 0.9240(17) 0.4105(15)
C11 C 0.721(3) 0.7506(16) 1.2205(15)
C12 C 0.825(3) 0.6308(18) 1.2200(16)
H7 H 0.7597 0.5479 1.1972
C13 C 1.012(3) 0.634(2) 1.2511(19)
H8 H 1.0819 0.7141 1.2712
C14 C 1.091(3) 0.515(2) 1.2514(17)
C15 C 0.998(3) 0.3868(19) 1.213(2)
H9 H 0.8748 0.3727 1.1885
C16 C 1.109(3) 0.278(2) 1.2150(18)
H10 H 1.0494 0.1924 1.1817
C17 C 1.285(3) 0.2859(18) 1.2587(19)
C18 C 1.380(3) 0.168(2) 1.2528(15)
C19 C 1.3697(19) 0.4116(14) 1.2873(14)
H11 H 1.4930 0.4244 1.3098
C20 C 1.272(2) 0.5208(14) 1.2828(14)
H12 H 1.3351 0.6038 1.3028
N1 N 2.1600(8) 1.7599(6) 2.0656(5)
C21 C 2.1758(7) 1.6346(6) 1.9977(5)
H13 H 2.2872 1.6047 2.0037
C22 C 2.0252(7) 1.5539(6) 1.9208(5)
H14 H 2.0357 1.4700 1.8753
C23 C 1.8587(7) 1.5985(5) 1.9118(4)
C24 C 1.8429(8) 1.7238(6) 1.9798(5)
H15 H 1.7316 1.7536 1.9738
C25 C 1.9936(8) 1.8045(6) 2.0566(5)
H16 H 1.9830 1.8884 2.1021
C26 C 1.6952(7) 1.5173(5) 1.8284(4)
N2 N 1.5327(7) 1.5688(6) 1.8185(5)
N3 N 1.3795(7) 1.4944(6) 1.7389(5)
C27 C 1.3889(7) 1.3684(5) 1.6693(4)
N4 N 1.5514(7) 1.3169(5) 1.6793(5)
N5 N 1.7046(7) 1.3913(5) 1.7589(5)
C28 C 1.2510(7) 1.3126(5) 1.5793(4)
C29 C 1.2675(7) 1.2026(6) 1.4943(5)
H17 H 1.3794 1.1786 1.4927
C30 C 1.1167(8) 1.1287(6) 1.4117(5)
H18 H 1.1277 1.0551 1.3549
N6 N 0.9494(7) 1.1646(6) 1.4141(5)
C31 C 0.9330(7) 1.2745(7) 1.4991(6)
H19 H 0.8211 1.2986 1.5007
C32 C 1.0838(7) 1.3485(6) 1.5817(5)
H20 H 1.0728 1.4220 1.6385
Zn1_2 Zn 0.72617(12) 1.04537(9) 0.29817(8)
Zn1_3 Zn 1.72617(12) 0.04537(9) 1.29817(8)
Zn2_2 Zn 0.38573(11) 0.87077(9) 0.17794(8)
Zn2_3 Zn 1.38573(11) -0.12923(9) 1.17794(8)
Zn2_4 Zn 2.38573(11) 1.87077(9) 2.17794(8)
O3_2 O 0.381(2) 0.8624(13) 1.3323(10)
O4_2 O 0.627(2) 1.0060(18) 1.4159(12)
O7_2 O 0.299(2) 1.0539(14) 1.2067(12)
O8_2 O 0.5502(19) 1.1824(12) 1.2953(11)
N1_2 N 0.1600(8) 0.7599(6) 1.0656(5)
N7 N 0.233(3) 0.200(2) 0.8937(19)
C33 C 0.366(4) 0.298(3) 0.956(3)
H21 H 0.3969 0.3329 1.0333
C34 C 0.174(5) 0.118(4) 0.942(3)
H22 H 0.0937 0.1620 0.9790
H23 H 0.2735 0.0983 0.9949
H24 H 0.1146 0.0372 0.8847
O9 O 0.452(6) 0.341(2) 0.890(3)
C35 C 0.184(6) 0.167(4) 0.776(3)
H25 H 0.1243 0.2373 0.7536
H26 H 0.1060 0.0854 0.7426
H27 H 0.2882 0.1558 0.7529
loop_
_geom_bond_atom_site_label_1
_geom_bond_atom_site_label_2
_geom_bond_site_symmetry_1
_geom_bond_site_symmetry_2
Zn1 O2 1_555 1_555
Zn2 O1 1_555 1_555
O1 C1 1_555 1_555
O2 C1 1_555 1_555
O3 C10 1_555 1_555
O4 C10 1_555 1_555
O5 Zn2 1_555 1_555
O6 Zn1 1_555 1_555
O7 C18 1_555 1_555
O8 C18 1_555 1_555
C1 C2 1_555 1_555
C2 C3 1_555 1_555
C3 H1 1_555 1_555
C4 C3 1_555 1_555
H2 C4 1_555 1_555
C5 C4 1_555 1_555
C6 C5 1_555 1_555
H3 C6 1_555 1_555
C7 C2 1_555 1_555
H4 C7 1_555 1_555
C8 C5 1_555 1_555
H5 C8 1_555 1_555
C9 C8 1_555 1_555
H6 C9 1_555 1_555
C10 C9 1_555 1_555
C11 O5 1_555 1_555
C12 C11 1_555 1_555
H7 C12 1_555 1_555
C13 C12 1_555 1_555
H8 C13 1_555 1_555
C14 C13 1_555 1_555
C15 C14 1_555 1_555
H9 C15 1_555 1_555
C16 C15 1_555 1_555
H10 C16 1_555 1_555
C17 C16 1_555 1_555
C18 C17 1_555 1_555
C19 C17 1_555 1_555
H11 C19 1_555 1_555
C20 C14 1_555 1_555
H12 C20 1_555 1_555
N1 C21 1_555 1_555
C21 H13 1_555 1_555
C22 C21 1_555 1_555
H14 C22 1_555 1_555
C23 C22 1_555 1_555
C24 C23 1_555 1_555
H15 C24 1_555 1_555
C25 N1 1_555 1_555
H16 C25 1_555 1_555
C26 C23 1_555 1_555
N2 C26 1_555 1_555
N3 N2 1_555 1_555
C27 N3 1_555 1_555
N4 C27 1_555 1_555
N5 C26 1_555 1_555
C28 C27 1_555 1_555
C29 C28 1_555 1_555
H17 C29 1_555 1_555
C30 C29 1_555 1_555
H18 C30 1_555 1_555
N6 Zn1 1_555 1_555
C31 N6 1_555 1_555
H19 C31 1_555 1_555
C32 C28 1_555 1_555
H20 C32 1_555 1_555
N7 C33 1_555 1_555
C33 H21 1_555 1_555
C34 N7 1_555 1_555
H22 C34 1_555 1_555
H23 C34 1_555 1_555
H24 C34 1_555 1_555
O9 C33 1_555 1_555
C35 N7 1_555 1_555
H25 C35 1_555 1_555
H26 C35 1_555 1_555
H27 C35 1_555 1_555
Zn1_2 O4 1_555 1_555
Zn1_3 O8 1_555 1_555
Zn2_2 O3 1_555 1_555
Zn2_3 O7 1_555 1_555
Zn2_4 N1 1_555 1_555
O3_2 Zn2 1_555 1_555
O4_2 Zn1 1_555 1_555
O7_2 Zn2 1_555 1_555
O8_2 Zn1 1_555 1_555
N1_2 Zn2 1_555 1_555
O6 C11 1_555 1_555
C6 C7 1_555 1_555
C19 C20 1_555 1_555
C24 C25 1_555 1_555
N4 N5 1_555 1_555
C30 N6 1_555 1_555
C31 C32 1_555 1_555

#END
