
#######################################################################
#
#                 Cambridge Crystallographic Data Centre
#                                CCDC 
#
#######################################################################
#
# If this CIF has been generated from an entry in the Cambridge 
# Structural Database, then it will include bibliographic, chemical, 
# crystal, experimental, refinement or atomic coordinate data resulting 
# from the CCDC's data processing and validation procedures.
#
#######################################################################

data_WOHBIF
_symmetry_cell_setting           monoclinic
_symmetry_space_group_name_H-M   'C 2'
_symmetry_Int_Tables_number      5
_space_group_name_Hall           'C 2y'
loop_
_symmetry_equiv_pos_site_id
_symmetry_equiv_pos_as_xyz
1 x,y,z
2 -x,y,-z
3 1/2+x,1/2+y,z
4 1/2-x,1/2+y,-z
_cell_length_a                   20.9211(3)
_cell_length_b                   13.7081(3)
_cell_length_c                   9.1075(2)
_cell_angle_alpha                90
_cell_angle_beta                 103.665(2)
_cell_angle_gamma                90
_cell_volume                     2537.99
loop_
_atom_site_label
_atom_site_type_symbol
_atom_site_fract_x
_atom_site_fract_y
_atom_site_fract_z
Cu1 Cu 0.30000(3) 0.47371(4) 0.31601(7)
Cu2 Cu 0.19453(3) 0.56581(4) 0.17073(7)
O1 O 0.24601(17) 0.4650(3) 0.4659(4)
O2 O 0.15064(19) 0.5259(3) 0.3318(4)
O3 O 0.17024(18) 0.1043(3) 0.6062(4)
O4 O 0.26516(19) 0.1789(3) 0.7087(4)
O5 O 0.33976(19) 0.4980(3) 0.1436(4)
O6 O 0.25273(19) 0.5881(3) 0.0318(4)
O7 O 0.24589(19) 0.8568(3) -0.2150(4)
O8 O 0.33201(19) 0.9376(3) -0.0760(4)
N1 N 0.3781(2) 0.3983(3) 0.4703(5)
N2 N 0.6171(2) 0.1462(4) 1.0216(5)
C1 C 0.4258(4) 0.4435(5) 0.5654(8)
H1 H 0.4275 0.5126 0.5592
C2 C 0.4732(4) 0.3982(5) 0.6724(7)
H2 H 0.5072 0.4356 0.7351
C3 C 0.4720(3) 0.3005(5) 0.6893(6)
C4 C 0.4218(4) 0.2524(6) 0.5931(10)
H3 H 0.4181 0.1836 0.6005
C5 C 0.3766(4) 0.3029(5) 0.4858(9)
H4 H 0.3428 0.2672 0.4196
C6 C 0.6222(3) 0.2401(5) 0.9966(7)
H5 H 0.6591 0.2739 1.0556
C7 C 0.5775(3) 0.2926(5) 0.8906(7)
H6 H 0.5844 0.3602 0.8774
C8 C 0.5228(3) 0.2466(4) 0.8035(5)
C9 C 0.5178(3) 0.1467(4) 0.8248(6)
H7 H 0.4822 0.1108 0.7652
C10 C 0.5653(3) 0.1001(5) 0.9336(5)
H8 H 0.5612 0.0319 0.9468
C11 C 0.1860(2) 0.4831(4) 0.4456(5)
C12 C 0.1517(3) 0.4485(4) 0.5679(5)
H9 H 0.1047 0.4332 0.5188
C13 C 0.1837(3) 0.3572(4) 0.6504(6)
H10 H 0.2303 0.3717 0.6992
H11 H 0.1611 0.3401 0.7309
C14 C 0.1809(3) 0.2705(4) 0.5449(6)
H12 H 0.1346 0.2591 0.4906
H13 H 0.2062 0.2860 0.4688
C15 C 0.2079(3) 0.1791(4) 0.6268(5)
C16 C 0.1532(3) 0.5323(4) 0.6797(6)
H14 H 0.1322 0.5900 0.6253
H15 H 0.1989 0.5476 0.7295
H16 H 0.1294 0.5130 0.7558
C17 C 0.3094(3) 0.5547(4) 0.0408(5)
C18 C 0.3422(3) 0.5810(4) -0.0863(6)
H17 H 0.3281 0.5306 -0.1669
C19 C 0.3180(3) 0.6797(5) -0.1574(6)
H18 H 0.3406 0.6936 -0.2391
H19 H 0.2703 0.6747 -0.2041
C20 C 0.32919(18) 0.7659(3) -0.0472(4)
H20 H 0.3093 0.7504 0.0385
H21 H 0.3771 0.7745 -0.0061
C21 C 0.30020(18) 0.8617(3) -0.1191(4)
C22 C 0.41566(18) 0.5768(3) -0.0392(4)
H22 H 0.4341 0.5944 -0.1250
H23 H 0.4295 0.5105 -0.0057
H24 H 0.4315 0.6226 0.0439
Cu1C Cu 0.20000(3) -0.02629(4) 0.68399(7)
Cu1C_2 Cu 0.20000(3) 0.97371(4) -0.31601(7)
Cu2C Cu 0.30547(3) 0.06581(4) 0.82927(7)
Cu2C_2 Cu 0.30547(3) 1.06581(4) -0.17073(7)
Cu2B Cu 0.69453(3) 0.06581(4) 1.17073(7)
O3C O 0.32976(18) 0.6043(3) 0.3938(4)
O4C O 0.23484(19) 0.6789(3) 0.2913(4)
O7C O 0.25411(19) 0.3568(3) 0.2150(4)
O8C O 0.16799(19) 0.4376(3) 0.0760(4)
N2B N 0.1171(2) 0.6462(4) 0.0216(5)
O9 O 0.4634(9) 0.6410(13) 0.359(3)
O10 O 0.0267(15) 0.379(3) 0.189(4)
loop_
_geom_bond_atom_site_label_1
_geom_bond_atom_site_label_2
_geom_bond_site_symmetry_1
_geom_bond_site_symmetry_2
Cu1 O1 1_555 1_555
Cu2 O2 1_555 1_555
O1 C11 1_555 1_555
O2 C11 1_555 1_555
O3 C15 1_555 1_555
O4 C15 1_555 1_555
O5 Cu1 1_555 1_555
O6 Cu2 1_555 1_555
O7 C21 1_555 1_555
O8 C21 1_555 1_555
N1 Cu1 1_555 1_555
N2 C6 1_555 1_555
C1 N1 1_555 1_555
H1 C1 1_555 1_555
C2 C1 1_555 1_555
H2 C2 1_555 1_555
C3 C2 1_555 1_555
C4 C3 1_555 1_555
H3 C4 1_555 1_555
C5 N1 1_555 1_555
H4 C5 1_555 1_555
C6 H5 1_555 1_555
C7 C6 1_555 1_555
H6 C7 1_555 1_555
C8 C3 1_555 1_555
C9 C8 1_555 1_555
H7 C9 1_555 1_555
C10 N2 1_555 1_555
H8 C10 1_555 1_555
C11 C12 1_555 1_555
C12 H9 1_555 1_555
C13 C12 1_555 1_555
H10 C13 1_555 1_555
H11 C13 1_555 1_555
C14 C13 1_555 1_555
H12 C14 1_555 1_555
H13 C14 1_555 1_555
C15 C14 1_555 1_555
C16 C12 1_555 1_555
H14 C16 1_555 1_555
H15 C16 1_555 1_555
H16 C16 1_555 1_555
C17 O5 1_555 1_555
C18 C17 1_555 1_555
H17 C18 1_555 1_555
C19 C18 1_555 1_555
H18 C19 1_555 1_555
H19 C19 1_555 1_555
C20 C19 1_555 1_555
H20 C20 1_555 1_555
H21 C20 1_555 1_555
C21 C20 1_555 1_555
C22 C18 1_555 1_555
H22 C22 1_555 1_555
H23 C22 1_555 1_555
H24 C22 1_555 1_555
Cu1C O3 1_555 1_555
Cu1C_2 O7 1_555 1_555
Cu2C O4 1_555 1_555
Cu2C_2 O8 1_555 1_555
Cu2B N2 1_555 1_555
O3C Cu1 1_555 1_555
O4C Cu2 1_555 1_555
O7C Cu1 1_555 1_555
O8C Cu2 1_555 1_555
N2B Cu2 1_555 1_555
O6 C17 1_555 1_555
C4 C5 1_555 1_555
C7 C8 1_555 1_555
C9 C10 1_555 1_555

#END
