
#######################################################################
#
#                 Cambridge Crystallographic Data Centre
#                                CCDC 
#
#######################################################################
#
# If this CIF has been generated from an entry in the Cambridge 
# Structural Database, then it will include bibliographic, chemical, 
# crystal, experimental, refinement or atomic coordinate data resulting 
# from the CCDC's data processing and validation procedures.
#
#######################################################################

data_WOHBOL
_symmetry_cell_setting           monoclinic
_symmetry_space_group_name_H-M   'C 2/c'
_symmetry_Int_Tables_number      15
_space_group_name_Hall           '-C 2yn'
loop_
_symmetry_equiv_pos_site_id
_symmetry_equiv_pos_as_xyz
1 x,y,z
2 1/2+x,1/2+y,z
3 -x,y,1/2-z
4 1/2-x,1/2+y,1/2-z
5 -x,-y,-z
6 1/2-x,1/2-y,-z
7 x,-y,1/2+z
8 1/2+x,1/2-y,1/2+z
_cell_length_a                   24.812(7)
_cell_length_b                   13.157(4)
_cell_length_c                   8.551(3)
_cell_angle_alpha                90
_cell_angle_beta                 91.263(10)
_cell_angle_gamma                90
_cell_volume                     2790.81
loop_
_atom_site_label
_atom_site_type_symbol
_atom_site_fract_x
_atom_site_fract_y
_atom_site_fract_z
Cu1 Cu 0.706309(10) 0.795842(18) 0.44627(3)
O1 O 0.67732(7) 0.78068(13) 0.65843(19)
O2 O 0.75271(7) 0.70577(12) 0.74881(19)
O3 O 0.68030(6) 0.34290(11) 0.9012(2)
O4 O 0.75470(7) 0.42106(11) 0.9907(2)
N1 N 0.64019(7) 0.87104(13) 0.3224(2)
C1 C 0.64252(9) 0.97092(17) 0.2918(3)
H1 H 0.6704 1.0097 0.3410
C2 C 0.60521(9) 1.02044(17) 0.1971(3)
H2 H 0.6071 1.0921 0.1847
C3 C 0.56259(9) 0.96568(17) 0.1284(3)
C4 C 0.56125(9) 0.86126(17) 0.1562(3)
H3 H 0.5345 0.8205 0.1054
C5 C 0.60007(9) 0.81796(17) 0.2532(3)
H4 H 0.5991 0.7463 0.2674
C6 C 0.52223(9) 1.01967(18) 0.0305(3)
H5 H 0.5265 1.0911 0.0193
C7 C 0.70477(9) 0.73512(15) 0.7624(3)
C8 C 0.67790(9) 0.71236(16) 0.9168(3)
H6 H 0.6382 0.7095 0.9002
H7 H 0.6859 0.7682 0.9915
C9 C 0.69656(9) 0.61104(16) 0.9884(3)
H8 H 0.6777 0.5985 1.0885
H9 H 0.7359 0.6150 1.0112
C10 C 0.68415(9) 0.52200(16) 0.8786(3)
H10 H 0.6445 0.5146 0.8651
H11 H 0.6992 0.5397 0.7748
C11 C 0.70814(9) 0.42029(16) 0.9292(2)
Cu1E Cu 0.793691(10) 0.704158(18) 0.55373(3)
Cu1F Cu 0.706309(10) 0.204158(18) 0.94627(3)
Cu1C Cu 0.793691(10) 0.295842(18) 1.05373(3)
Cu1D Cu 0.293691(10) 1.204158(18) -0.44627(3)
Cu1C_2 Cu 0.793691(10) 1.295842(18) 0.05373(3)
Cu1F_2 Cu 0.706309(10) 1.204158(18) -0.05373(3)
O1E O 0.82268(7) 0.71932(13) 0.34157(19)
O2E O 0.74729(7) 0.79423(12) 0.25119(19)
O3E O 0.81970(6) 1.15710(11) 0.0988(2)
O3F O 0.68030(6) 0.65710(11) 0.4012(2)
O3C O 0.81970(6) 0.84290(11) 0.5988(2)
O4E O 0.74530(7) 1.07894(11) 0.0093(2)
O4C O 0.74530(7) 0.92106(11) 0.5093(2)
O4F O 0.75470(7) 0.57894(11) 0.4907(2)
N1D N 0.35981(7) 1.12896(13) -0.3224(2)
N1E N 0.85981(7) 0.62896(13) 0.6776(2)
C1D C 0.35748(9) 1.02908(17) -0.2918(3)
H1D H 0.3296 0.9903 -0.3410
C2D C 0.39479(9) 0.97956(17) -0.1971(3)
H2D H 0.3929 0.9079 -0.1847
C3D C 0.43741(9) 1.03432(17) -0.1284(3)
C4D C 0.43875(9) 1.13874(17) -0.1562(3)
H3D H 0.4655 1.1795 -0.1054
C5D C 0.39993(9) 1.18204(17) -0.2532(3)
H4D H 0.4009 1.2537 -0.2674
C6D C 0.47777(9) 0.98033(18) -0.0305(3)
H5D H 0.4735 0.9089 -0.0193
C7E C 0.79523(9) 0.76488(15) 0.2376(3)
C8E C 0.82210(9) 0.78764(16) 0.0832(3)
H6E H 0.8618 0.7905 0.0998
H7E H 0.8141 0.7318 0.0085
C9E C 0.80344(9) 0.88896(16) 0.0116(3)
H8E H 0.8223 0.9015 -0.0885
H9E H 0.7641 0.8850 -0.0112
C10E C 0.81585(9) 0.97800(16) 0.1214(3)
H10E H 0.8555 0.9854 0.1349
H11E H 0.8008 0.9603 0.2252
C11E C 0.79186(9) 1.07971(16) 0.0708(2)
loop_
_geom_bond_atom_site_label_1
_geom_bond_atom_site_label_2
_geom_bond_site_symmetry_1
_geom_bond_site_symmetry_2
Cu1 O1 1_555 1_555
O1 C7 1_555 1_555
O2 C7 1_555 1_555
O3 C11 1_555 1_555
O4 C11 1_555 1_555
N1 Cu1 1_555 1_555
C1 N1 1_555 1_555
H1 C1 1_555 1_555
C2 C1 1_555 1_555
H2 C2 1_555 1_555
C3 C2 1_555 1_555
C4 C3 1_555 1_555
H3 C4 1_555 1_555
C5 N1 1_555 1_555
H4 C5 1_555 1_555
C6 C3 1_555 1_555
H5 C6 1_555 1_555
C7 C8 1_555 1_555
C8 H6 1_555 1_555
H7 C8 1_555 1_555
C9 C8 1_555 1_555
H8 C9 1_555 1_555
H9 C9 1_555 1_555
C10 C9 1_555 1_555
H10 C10 1_555 1_555
H11 C10 1_555 1_555
C11 C10 1_555 1_555
Cu1E O2 1_555 1_555
Cu1F O3 1_555 1_555
Cu1C O4 1_555 1_555
Cu1D N1D 1_555 1_555
Cu1C_2 O3E 1_555 1_555
Cu1F_2 O4E 1_555 1_555
O1E Cu1E 1_555 1_555
O2E Cu1 1_555 1_555
O3E C11E 1_555 1_555
O3F Cu1 1_555 1_555
O3C Cu1E 1_555 1_555
O4E C11E 1_555 1_555
O4C Cu1 1_555 1_555
O4F Cu1E 1_555 1_555
N1D C1D 1_555 1_555
N1E Cu1E 1_555 1_555
C1D H1D 1_555 1_555
C2D C1D 1_555 1_555
H2D C2D 1_555 1_555
C3D C2D 1_555 1_555
C4D C3D 1_555 1_555
H3D C4D 1_555 1_555
C5D N1D 1_555 1_555
H4D C5D 1_555 1_555
C6D C6 1_555 1_555
H5D C6D 1_555 1_555
C7E O1E 1_555 1_555
C8E C7E 1_555 1_555
H6E C8E 1_555 1_555
H7E C8E 1_555 1_555
C9E C8E 1_555 1_555
H8E C9E 1_555 1_555
H9E C9E 1_555 1_555
C10E C9E 1_555 1_555
H10E C10E 1_555 1_555
H11E C10E 1_555 1_555
C11E C10E 1_555 1_555
C4 C5 1_555 1_555
O2E C7E 1_555 1_555
C3D C6D 1_555 1_555
C4D C5D 1_555 1_555

#END
