
#######################################################################
#
#                 Cambridge Crystallographic Data Centre
#                                CCDC 
#
#######################################################################
#
# If this CIF has been generated from an entry in the Cambridge 
# Structural Database, then it will include bibliographic, chemical, 
# crystal, experimental, refinement or atomic coordinate data resulting 
# from the CCDC's data processing and validation procedures.
#
#######################################################################

data_WUZRUE
_symmetry_cell_setting           monoclinic
_symmetry_space_group_name_H-M   'P 21/c'
_symmetry_Int_Tables_number      14
_space_group_name_Hall           '-P 2ybc'
loop_
_symmetry_equiv_pos_site_id
_symmetry_equiv_pos_as_xyz
1 x,y,z
2 -x,1/2+y,1/2-z
3 -x,-y,-z
4 x,1/2-y,1/2+z
_cell_length_a                   10.75(1)
_cell_length_b                   19.60(2)
_cell_length_c                   13.79(1)
_cell_angle_alpha                90
_cell_angle_beta                 104.2(1)
_cell_angle_gamma                90
_cell_volume                     2816.77
loop_
_atom_site_label
_atom_site_type_symbol
_atom_site_fract_x
_atom_site_fract_y
_atom_site_fract_z
Ni1 Ni 0.59551(15) -0.11806(8) 0.36075(11)
Ni2 Ni 0.75426(15) -0.02508(8) 0.20458(11)
O1 O 0.7077(8) -0.0972(4) 0.5029(6)
O2 O 0.9075(9) -0.0946(5) 0.4817(6)
O3 O 0.7283(8) 0.0407(4) 0.3119(6)
O4 O 0.5656(8) -0.0125(4) 0.3554(6)
O5 O 0.4797(8) -0.1307(4) 0.2225(6)
O6 O 0.5591(8) -0.0449(5) 0.1462(6)
O7 O 0.7771(9) -0.4122(5) 0.5901(6)
O8 O 0.7660(10) -0.3086(5) 0.6546(7)
O9 O 0.7622(7) -0.1091(4) 0.3023(5)
N1 N 1.0475(10) 0.0113(5) 0.7433(7)
N2 N 0.5608(10) 0.1236(5) 0.5771(7)
N3 N 0.2576(9) -0.0556(5) -0.1016(7)
N4 N 0.6253(9) -0.2243(5) 0.3743(7)
C1 C 0.9956(12) -0.0234(6) 0.6582(9)
H1 H 1.0505 -0.0354 0.6184
C2 C 0.9630(16) 0.0308(7) 0.7957(10)
H2 H 0.9930 0.0556 0.8542
C3 C 0.8346(15) 0.0157(8) 0.7664(11)
H3 H 0.7803 0.0307 0.8052
C4 C 0.7846(13) -0.0211(7) 0.6811(10)
H4 H 0.6976 -0.0313 0.6616
C5 C 0.8682(11) -0.0428(6) 0.6247(8)
C6 C 0.8243(16) -0.0815(6) 0.5274(9)
C7 C 0.6490(14) 0.0323(7) 0.3652(9)
C8 C 0.7672(17) 0.1198(7) 0.4897(11)
H5 H 0.8357 0.1193 0.4596
C9 C 0.7720(16) 0.1596(8) 0.5746(13)
H6 H 0.8446 0.1850 0.6036
C10 C 0.6684(15) 0.1601(7) 0.6136(11)
H7 H 0.6714 0.1874 0.6693
C11 C 0.5604(13) 0.0852(6) 0.4962(9)
H8 H 0.4874 0.0595 0.4690
C12 C 0.6597(13) 0.0816(6) 0.4518(9)
C13 C 0.4773(13) -0.0896(7) 0.1499(9)
C14 C 0.3675(12) -0.0978(7) 0.0592(9)
C15 C 0.2856(17) -0.1503(8) 0.0483(12)
H9 H 0.2945 -0.1825 0.0990
C16 C 0.1865(19) -0.1572(8) -0.0384(13)
H10 H 0.1304 -0.1940 -0.0468
C17 C 0.1748(18) -0.1083(8) -0.1102(12)
H11 H 0.1074 -0.1113 -0.1671
C18 C 0.3471(12) -0.0502(7) -0.0156(9)
H12 H 0.3988 -0.0115 -0.0059
C19 C 0.7538(12) -0.3495(8) 0.5838(10)
C20 C 0.7001(13) -0.3206(7) 0.4803(9)
C21 C 0.6666(17) -0.3639(8) 0.3982(12)
H13 H 0.6765 -0.4109 0.4060
C22 C 0.619(2) -0.3360(9) 0.3056(11)
H14 H 0.5991 -0.3637 0.2491
C23 C 0.5991(16) -0.2661(7) 0.2965(11)
H15 H 0.5662 -0.2478 0.2331
C24 C 0.6743(11) -0.2528(7) 0.4642(9)
H16 H 0.6919 -0.2241 0.5196
N2B N 0.4392(10) -0.1236(5) 0.4229(7)
O7C O 0.7771(9) -0.0878(5) 0.0901(6)
N1B N 0.9525(10) -0.0113(5) 0.2567(7)
N3B N 0.7424(9) 0.0556(5) 0.1016(7)
Ni2C Ni 0.75426(15) -0.47492(8) 0.70458(11)
Ni2B Ni 1.24574(15) 0.02508(8) 0.79542(11)
Ni1B Ni 0.40449(15) 0.11806(8) 0.63925(11)
Ni2B_2 Ni 0.24574(15) 0.02508(8) -0.20458(11)
loop_
_geom_bond_atom_site_label_1
_geom_bond_atom_site_label_2
_geom_bond_site_symmetry_1
_geom_bond_site_symmetry_2
Ni1 O1 1_555 1_555
Ni2 O3 1_555 1_555
O1 C6 1_555 1_555
O2 C6 1_555 1_555
O3 C7 1_555 1_555
O4 Ni1 1_555 1_555
O5 Ni1 1_555 1_555
O6 Ni2 1_555 1_555
O7 C19 1_555 1_555
O8 C19 1_555 1_555
O9 Ni1 1_555 1_555
N1 C1 1_555 1_555
N2 C10 1_555 1_555
N3 C17 1_555 1_555
N4 Ni1 1_555 1_555
C1 H1 1_555 1_555
C2 N1 1_555 1_555
H2 C2 1_555 1_555
C3 C2 1_555 1_555
H3 C3 1_555 1_555
C4 C3 1_555 1_555
H4 C4 1_555 1_555
C5 C1 1_555 1_555
C6 C5 1_555 1_555
C7 O4 1_555 1_555
C8 H5 1_555 1_555
C9 C8 1_555 1_555
H6 C9 1_555 1_555
C10 C9 1_555 1_555
H7 C10 1_555 1_555
C11 N2 1_555 1_555
H8 C11 1_555 1_555
C12 C7 1_555 1_555
C13 O5 1_555 1_555
C14 C13 1_555 1_555
C15 C14 1_555 1_555
H9 C15 1_555 1_555
C16 C15 1_555 1_555
H10 C16 1_555 1_555
C17 C16 1_555 1_555
H11 C17 1_555 1_555
C18 N3 1_555 1_555
H12 C18 1_555 1_555
C19 C20 1_555 1_555
C20 C21 1_555 1_555
C21 H13 1_555 1_555
C22 C21 1_555 1_555
H14 C22 1_555 1_555
C23 N4 1_555 1_555
H15 C23 1_555 1_555
C24 N4 1_555 1_555
H16 C24 1_555 1_555
N2B Ni1 1_555 1_555
O7C Ni2 1_555 1_555
N1B Ni2 1_555 1_555
N3B Ni2 1_555 1_555
Ni2C O7 1_555 1_555
Ni2B N1 1_555 1_555
Ni1B N2 1_555 1_555
Ni2B_2 N3 1_555 1_555
Ni2 O9 1_555 1_555
O6 C13 1_555 1_555
C4 C5 1_555 1_555
C8 C12 1_555 1_555
C11 C12 1_555 1_555
C14 C18 1_555 1_555
C20 C24 1_555 1_555
C22 C23 1_555 1_555

#END
