
#######################################################################
#
#                 Cambridge Crystallographic Data Centre
#                                CCDC 
#
#######################################################################
#
# If this CIF has been generated from an entry in the Cambridge 
# Structural Database, then it will include bibliographic, chemical, 
# crystal, experimental, refinement or atomic coordinate data resulting 
# from the CCDC's data processing and validation procedures.
#
#######################################################################

data_XAKQOR
_symmetry_cell_setting           triclinic
_symmetry_space_group_name_H-M   'P -1'
_symmetry_Int_Tables_number      2
_space_group_name_Hall           '-P 1'
loop_
_symmetry_equiv_pos_site_id
_symmetry_equiv_pos_as_xyz
1 x,y,z
2 -x,-y,-z
_cell_length_a                   12.8829(5)
_cell_length_b                   14.1565(6)
_cell_length_c                   18.6819(7)
_cell_angle_alpha                104.822(2)
_cell_angle_beta                 98.409(2)
_cell_angle_gamma                113.3670(10)
_cell_volume                     2903.46
loop_
_atom_site_label
_atom_site_type_symbol
_atom_site_fract_x
_atom_site_fract_y
_atom_site_fract_z
Cu1 Cu 0.05740(5) 0.11010(4) 0.03205(3)
O1 O -0.4571(3) 0.3578(3) 0.45245(18)
N1 N 0.1482(3) 0.2869(3) 0.0733(2)
C1 C 0.1422(4) 0.3632(4) 0.1296(3)
O7 O 0.4129(3) 0.3854(3) -0.44596(19)
Cu2 Cu -0.42987(5) 0.47693(5) 0.54555(3)
N7 N 0.2176(3) 0.3426(3) 0.0352(2)
H16 H 0.2351 0.3112 -0.0052
C7 C 0.2085(4) 0.4676(4) 0.1268(3)
O8 O 0.2936(3) 0.4249(3) -0.52013(19)
O9 O -0.5804(3) 0.3924(3) 0.37783(18)
O10 O -0.0984(3) 0.0905(3) 0.04404(19)
O11 O 0.0073(3) 0.0964(3) -0.07659(18)
C13 C 0.2562(4) 0.4513(4) 0.0663(3)
N8 N 0.3416(4) 0.5692(3) 0.3737(2)
O12 O -0.1956(3) -0.0933(3) -0.01066(18)
O13 O -0.0896(3) -0.0879(3) -0.13162(17)
C19 C 0.3438(4) 0.5614(4) 0.3015(3)
N9 N 0.2557(4) 0.5995(4) 0.3839(2)
H37 H 0.2354 0.6106 0.4271
O14 O -0.5792(3) -0.0051(3) 0.12923(19)
O15 O -0.0783(3) 0.0571(3) -0.42677(19)
C20 C 0.2585(4) 0.5856(4) 0.2654(3)
C21 C 0.2050(5) 0.6109(4) 0.3202(3)
C22 C 0.2273(5) 0.5759(4) 0.1824(3)
H38 H 0.2912 0.6365 0.1743
H39 H 0.1546 0.5841 0.1706
C23 C 0.0725(5) 0.3299(4) 0.1841(3)
H40 H 0.0290 0.2498 0.1664
H41 H 0.0168 0.3611 0.1857
H42 H 0.1259 0.3571 0.2358
C24 C 0.3341(5) 0.5295(4) 0.0334(3)
H43 H 0.4018 0.5154 0.0287
H44 H 0.3618 0.6050 0.0677
H45 H 0.2894 0.5191 -0.0175
C25 C 0.4284(4) 0.5303(4) 0.2675(3)
H46 H 0.4961 0.5471 0.3089
H47 H 0.4554 0.5717 0.2335
H48 H 0.3894 0.4516 0.2377
C26 C 0.1107(6) 0.6470(6) 0.3189(3)
H49 H 0.0624 0.6184 0.3515
H50 H 0.0610 0.6191 0.2659
H51 H 0.1467 0.7273 0.3384
C27 C -0.5422(4) 0.2450(4) 0.3210(3)
C28 C 0.2100(4) 0.2925(4) -0.4618(3)
C29 C -0.4805(4) 0.1853(4) 0.3283(3)
H52 H -0.4303 0.2017 0.3771
C30 C 0.2252(5) 0.2257(4) -0.4226(3)
H53 H 0.3021 0.2339 -0.4041
C31 C -0.4917(4) 0.1018(4) 0.2647(3)
H54 H -0.4496 0.0608 0.2698
C32 C 0.1314(5) 0.1479(5) -0.4101(3)
H55 H 0.1430 0.1024 -0.3835
C33 C -0.5644(4) 0.0789(4) 0.1943(3)
C34 C 0.0204(5) 0.1369(4) -0.4365(3)
C35 C -0.6278(4) 0.1376(4) 0.1862(3)
H56 H -0.6780 0.1213 0.1374
C36 C 0.0020(5) 0.2007(4) -0.4759(3)
H57 H -0.0752 0.1921 -0.4939
C37 C -0.6166(4) 0.2199(4) 0.2501(3)
H58 H -0.6602 0.2596 0.2453
C38 C 0.0969(5) 0.2779(4) -0.4893(3)
H59 H 0.0842 0.3213 -0.5175
C39 C -0.2919(4) 0.0006(4) 0.0505(3)
C40 C -0.0597(4) 0.0200(4) -0.2120(3)
C41 C -0.2861(4) 0.0976(4) 0.0979(3)
H60 H -0.2161 0.1643 0.1117
C42 C -0.1123(4) -0.0713(4) -0.2796(3)
H61 H -0.1455 -0.1429 -0.2768
C43 C -0.3794(4) 0.0985(4) 0.1250(3)
H62 H -0.3739 0.1652 0.1571
C44 C -0.1165(4) -0.0580(4) -0.3508(3)
H63 H -0.1519 -0.1202 -0.3969
C45 C -0.4814(4) 0.0015(4) 0.1053(3)
C46 C -0.0684(5) 0.0466(4) -0.3538(3)
C47 C -0.4911(4) -0.0962(4) 0.0565(3)
H64 H -0.5619 -0.1623 0.0422
C48 C -0.0179(4) 0.1383(4) -0.2877(3)
H65 H 0.0133 0.2098 -0.2907
C49 C -0.3972(4) -0.0964(4) 0.0293(3)
H66 H -0.4039 -0.1628 -0.0042
C50 C -0.0139(4) 0.1239(4) -0.2176(3)
H67 H 0.0211 0.1864 -0.1718
C51 C -0.5248(4) 0.3383(4) 0.3891(3)
C52 C 0.3132(4) 0.3748(4) -0.4771(3)
C53 C -0.0474(4) 0.0080(4) -0.1344(3)
C54 C -0.1875(4) -0.0006(4) 0.0260(3)
Cu1A Cu -0.05740(5) -0.11010(4) -0.03205(3)
O7_2 O -0.5871(3) 0.3854(3) 0.55404(19)
Cu2_2 Cu 0.57013(5) 0.47693(5) -0.45445(3)
Cu2A Cu 0.42987(5) 0.52307(5) -0.54555(3)
Cu2A_2 Cu -0.57013(5) 0.52307(5) 0.45445(3)
Cu2A_3 Cu 0.42987(5) 0.52307(5) 0.45445(3)
O8A O -0.2936(3) 0.5751(3) 0.52013(19)
O9A O -0.4196(3) 0.6076(3) 0.62217(18)
N8A N -0.3416(4) 0.4308(3) 0.6263(2)
O12A O 0.1956(3) 0.0933(3) 0.01066(18)
O13A O 0.0896(3) 0.0879(3) 0.13162(17)
O2 O 0.9754(3) 0.6258(3) 0.1255(2)
N2 N 1.1068(4) 0.6961(4) 0.0612(3)
C2 C 1.1315(6) 0.6905(6) -0.0132(4)
H1 H 1.0668 0.6260 -0.0538
H2 H 1.2050 0.6848 -0.0119
H3 H 1.1391 0.7568 -0.0238
C8 C 1.1912(5) 0.7879(5) 0.1279(4)
H17 H 1.1661 0.7809 0.1741
H18 H 1.1963 0.8562 0.1217
H19 H 1.2686 0.7891 0.1332
C14 C 1.0072(5) 0.6267(5) 0.0663(4)
H32 H 0.9534 0.5711 0.0195
O3 O 0.3154(3) 0.2864(3) -0.0880(2)
N3 N 0.2956(4) 0.1487(4) -0.1924(2)
C3 C 0.4002(6) 0.2130(5) -0.2108(4)
H4 H 0.4285 0.2909 -0.1819
H5 H 0.3817 0.2005 -0.2662
H6 H 0.4614 0.1911 -0.1968
C9 C 0.2324(5) 0.0316(4) -0.2375(3)
H20 H 0.1574 -0.0008 -0.2253
H21 H 0.2802 -0.0043 -0.2249
H22 H 0.2171 0.0214 -0.2926
C15 C 0.2631(5) 0.1895(5) -0.1313(3)
H33 H 0.1961 0.1412 -0.1208
O4 O 0.8038(5) 0.3573(4) 0.1853(3)
N4 N 0.7323(7) 0.4803(5) 0.2151(5)
C4 C 0.7281(7) 0.5777(5) 0.2088(5)
H7 H 0.7849 0.6105 0.1819
H8 H 0.7479 0.6303 0.2605
H9 H 0.6487 0.5590 0.1797
C10 C 0.6570(13) 0.4252(9) 0.2563(10)
H23 H 0.6694 0.3623 0.2595
H24 H 0.5746 0.3997 0.2290
H25 H 0.6756 0.4761 0.3084
C16 C 0.7973(6) 0.4411(5) 0.1829(4)
H34 H 0.8432 0.4806 0.1552
O5 O 0.7805(6) 0.2872(6) 0.4816(4)
N5 N 0.8469(10) 0.3325(8) 0.3820(6)
C5 C 0.9042(15) 0.3105(14) 0.3271(10)
H10 H 0.8994 0.2375 0.3188
H11 H 0.9870 0.3656 0.3454
H12 H 0.8666 0.3130 0.2786
C11 C 0.8307(12) 0.4288(11) 0.4016(8)
H26 H 0.7497 0.4092 0.4040
H27 H 0.8458 0.4631 0.3623
H28 H 0.8855 0.4804 0.4519
C17 C 0.8200(11) 0.2714(11) 0.4274(7)
H35 H 0.8337 0.2087 0.4154
O6 O -0.6647(9) -0.0037(10) 0.6138(7)
N6 N -0.5538(6) 0.0855(6) 0.5633(4)
C6 C -0.4521(9) 0.1180(8) 0.6232(6)
H13 H -0.4741 0.0790 0.6592
H14 H -0.4171 0.1972 0.6507
H15 H -0.3948 0.1003 0.6011
C12 C -0.5440(11) 0.1388(10) 0.5037(7)
H29 H -0.6198 0.1032 0.4643
H30 H -0.4835 0.1316 0.4796
H31 H -0.5221 0.2166 0.5280
C18 C -0.6599(12) 0.0167(10) 0.5635(8)
H36 H -0.7272 -0.0123 0.5209
C55? C 0.9877(10) 0.4358(9) 0.3843(7)
C56? C -0.5152(18) 0.1598(16) 0.5392(13)
C57? C 0.8585(11) 0.2353(9) 0.3318(7)
C58? C -0.6361(18) -0.0031(16) 0.4210(11)
C59? C 0.8440(10) 0.3499(10) 0.4500(7)
C60? C -0.6632(12) -0.0174(12) 0.5420(8)
H68? H 1.0644 0.4363 0.3978
H69? H 0.9687 0.4331 0.3309
H70? H 0.9907 0.5024 0.4188
H71? H -0.4753 0.1779 0.5932
H72? H -0.5518 0.2080 0.5359
H73? H -0.4577 0.1701 0.5092
H74? H 0.8266 0.2391 0.2823
H75? H 0.9253 0.2190 0.3293
H76? H 0.7973 0.1773 0.3429
H77? H -0.6965 -0.0796 0.4036
H78? H -0.5656 -0.0004 0.4058
H79? H -0.6662 0.0385 0.3972
H80? H 0.7775 0.2857 0.4466
H81? H -0.7393 -0.0561 0.5063
N10? N 0.8976(10) 0.3399(8) 0.3925(6)
N11? N -0.6050(13) 0.0467(12) 0.5086(9)
O16? O 0.8698(7) 0.4260(7) 0.5010(5)
O17? O -0.6789(9) -0.0590(9) 0.5936(6)
loop_
_geom_bond_atom_site_label_1
_geom_bond_atom_site_label_2
_geom_bond_site_symmetry_1
_geom_bond_site_symmetry_2
Cu1 N1 1_555 1_555
O1 Cu2 1_555 1_555
N1 C1 1_555 1_555
C1 C7 1_555 1_555
O2 C14 1_555 1_555
N2 C2 1_555 1_555
C2 H1 1_555 1_555
H2 C2 1_555 1_555
H3 C2 1_555 1_555
O3 C15 1_555 1_555
N3 C3 1_555 1_555
C3 H4 1_555 1_555
H5 C3 1_555 1_555
H6 C3 1_555 1_555
O4 C16 1_555 1_555
N4 C4 1_555 1_555
C4 H7 1_555 1_555
H8 C4 1_555 1_555
H9 C4 1_555 1_555
O5 C17 1_555 1_555
N5 C5 1_555 1_555
C5 H10 1_555 1_555
H11 C5 1_555 1_555
H12 C5 1_555 1_555
O6 C18 1_555 1_555
N6 C6 1_555 1_555
C6 H13 1_555 1_555
H14 C6 1_555 1_555
H15 C6 1_555 1_555
O7 C52 1_555 1_555
Cu2 O7_2 1_555 1_555
N7 N1 1_555 1_555
H16 N7 1_555 1_555
C7 C13 1_555 1_555
C8 N2 1_555 1_555
H17 C8 1_555 1_555
H18 C8 1_555 1_555
H19 C8 1_555 1_555
C9 N3 1_555 1_555
H20 C9 1_555 1_555
H21 C9 1_555 1_555
H22 C9 1_555 1_555
C10 N4 1_555 1_555
H23 C10 1_555 1_555
H24 C10 1_555 1_555
H25 C10 1_555 1_555
C11 N5 1_555 1_555
H26 C11 1_555 1_555
H27 C11 1_555 1_555
H28 C11 1_555 1_555
C12 N6 1_555 1_555
H29 C12 1_555 1_555
H30 C12 1_555 1_555
H31 C12 1_555 1_555
O8 C52 1_555 1_555
O9 C51 1_555 1_555
O10 Cu1 1_555 1_555
O11 Cu1 1_555 1_555
C13 N7 1_555 1_555
C14 N2 1_555 1_555
H32 C14 1_555 1_555
C15 N3 1_555 1_555
H33 C15 1_555 1_555
C16 N4 1_555 1_555
H34 C16 1_555 1_555
C17 N5 1_555 1_555
H35 C17 1_555 1_555
C18 N6 1_555 1_555
H36 C18 1_555 1_555
N8 C19 1_555 1_555
O12 C54 1_555 1_555
O13 C53 1_555 1_555
C19 C20 1_555 1_555
N9 N8 1_555 1_555
H37 N9 1_555 1_555
O14 C33 1_555 1_555
O15 C34 1_555 1_555
C20 C21 1_555 1_555
C21 N9 1_555 1_555
C22 C7 1_555 1_555
H38 C22 1_555 1_555
H39 C22 1_555 1_555
C23 C1 1_555 1_555
H40 C23 1_555 1_555
H41 C23 1_555 1_555
H42 C23 1_555 1_555
C24 C13 1_555 1_555
H43 C24 1_555 1_555
H44 C24 1_555 1_555
H45 C24 1_555 1_555
C25 C19 1_555 1_555
H46 C25 1_555 1_555
H47 C25 1_555 1_555
H48 C25 1_555 1_555
C26 C21 1_555 1_555
H49 C26 1_555 1_555
H50 C26 1_555 1_555
H51 C26 1_555 1_555
C27 C29 1_555 1_555
C28 C30 1_555 1_555
C29 H52 1_555 1_555
C30 H53 1_555 1_555
C31 C29 1_555 1_555
H54 C31 1_555 1_555
C32 C30 1_555 1_555
H55 C32 1_555 1_555
C33 C31 1_555 1_555
C34 C32 1_555 1_555
C35 C33 1_555 1_555
H56 C35 1_555 1_555
C36 C34 1_555 1_555
H57 C36 1_555 1_555
C37 C27 1_555 1_555
H58 C37 1_555 1_555
C38 C28 1_555 1_555
H59 C38 1_555 1_555
C39 C41 1_555 1_555
C40 C42 1_555 1_555
C41 H60 1_555 1_555
C42 H61 1_555 1_555
C43 C41 1_555 1_555
H62 C43 1_555 1_555
C44 C42 1_555 1_555
H63 C44 1_555 1_555
C45 O14 1_555 1_555
C46 O15 1_555 1_555
C47 C45 1_555 1_555
H64 C47 1_555 1_555
C48 C46 1_555 1_555
H65 C48 1_555 1_555
C49 C39 1_555 1_555
H66 C49 1_555 1_555
C50 C40 1_555 1_555
H67 C50 1_555 1_555
C51 O1 1_555 1_555
C52 C28 1_555 1_555
C53 O11 1_555 1_555
C54 O10 1_555 1_555
Cu1A O12 1_555 1_555
Cu2_2 O7 1_555 1_555
Cu2A O8 1_555 1_555
Cu2A_2 O9 1_555 1_555
Cu2A_3 N8 1_555 1_555
O8A Cu2 1_555 1_555
O9A Cu2 1_555 1_555
N8A Cu2 1_555 1_555
O12A Cu1 1_555 1_555
O13A Cu1 1_555 1_555
O13 Cu1A 1_555 1_555
C20 C22 1_555 1_555
C27 C51 1_555 1_555
C35 C37 1_555 1_555
C36 C38 1_555 1_555
C39 C54 1_555 1_555
C40 C53 1_555 1_555
C43 C45 1_555 1_555
C44 C46 1_555 1_555
C47 C49 1_555 1_555
C48 C50 1_555 1_555

#END
