
#######################################################################
#
#                 Cambridge Crystallographic Data Centre
#                                CCDC 
#
#######################################################################
#
# If this CIF has been generated from an entry in the Cambridge 
# Structural Database, then it will include bibliographic, chemical, 
# crystal, experimental, refinement or atomic coordinate data resulting 
# from the CCDC's data processing and validation procedures.
#
#######################################################################

data_XEDGIY
_symmetry_cell_setting           monoclinic
_symmetry_space_group_name_H-M   'P 21/c'
_symmetry_Int_Tables_number      14
_space_group_name_Hall           '-P 2ybc'
loop_
_symmetry_equiv_pos_site_id
_symmetry_equiv_pos_as_xyz
1 x,y,z
2 -x,1/2+y,1/2-z
3 -x,-y,-z
4 x,1/2-y,1/2+z
_cell_length_a                   14.306(2)
_cell_length_b                   19.509(3)
_cell_length_c                   36.482(5)
_cell_angle_alpha                90
_cell_angle_beta                 99.6290(9)
_cell_angle_gamma                90
_cell_volume                     10038.5
loop_
_atom_site_label
_atom_site_type_symbol
_atom_site_fract_x
_atom_site_fract_y
_atom_site_fract_z
Cd1 Cd 0.31783(3) 1.01968(2) 0.304934(11)
Cd2 Cd 0.55313(3) 0.99989(2) 0.337326(11)
Cd3 Cd -0.18127(4) 0.55438(2) -0.163450(13)
C1 C 0.3664(5) 0.9094(3) 0.34990(16)
C2 C 0.3840(4) 0.8460(3) 0.37364(15)
C3 C 0.3414(4) 0.8368(3) 0.40381(15)
H1 H 0.3044 0.8731 0.4112
C4 C 0.3499(4) 0.7751(3) 0.42470(14)
C5 C 0.4042(4) 0.7215(3) 0.41312(14)
C6 C 0.4538(4) 0.7332(3) 0.38212(15)
H2 H 0.4938 0.6986 0.3749
C7 C 0.4433(4) 0.7929(3) 0.36351(16)
H3 H 0.4760 0.7999 0.3432
C8 C 0.4096(4) 0.6586(3) 0.43180(13)
H4 H 0.4445 0.6220 0.4235
C9 C 0.3649(4) 0.6489(3) 0.46208(14)
C10 C 0.3149(4) 0.7046(3) 0.47452(14)
H5 H 0.2859 0.6993 0.4960
C11 C 0.3078(4) 0.7657(3) 0.45613(14)
H6 H 0.2736 0.8023 0.4648
C12 C 0.4079(5) 0.1136(3) 0.36491(17)
C13 C 0.4092(4) 0.1721(3) 0.39131(16)
C14 C 0.4707(5) 0.1719(3) 0.42669(17)
H7 H 0.5128 0.1345 0.4328
C15 C 0.4707(4) 0.2232(3) 0.45172(16)
H8 H 0.5126 0.2214 0.4748
C16 C 0.4084(4) 0.2795(3) 0.44345(14)
C17 C 0.3463(4) 0.2817(3) 0.40827(15)
C18 C 0.3493(4) 0.2262(3) 0.38297(16)
H9 H 0.3082 0.2270 0.3596
C19 C 0.4090(4) 0.3366(3) 0.46731(14)
H10 H 0.4489 0.3357 0.4909
C20 C 0.3539(4) 0.3936(3) 0.45749(13)
C21 C 0.2893(4) 0.3927(3) 0.42298(14)
H11 H 0.2478 0.4304 0.4167
C22 C 0.2860(4) 0.3396(3) 0.39932(15)
H12 H 0.2432 0.3406 0.3764
C23 C 0.4886(5) 0.4818(3) 0.76191(17)
C24 C 0.4633(5) 0.4770(3) 0.71928(17)
C25 C 0.4967(5) 0.5258(3) 0.69878(17)
H13 H 0.5355 0.5614 0.7107
C26 C 0.4738(4) 0.5243(3) 0.65897(16)
C27 C 0.4154(4) 0.4699(3) 0.64271(16)
C28 C 0.3810(5) 0.4209(3) 0.66454(16)
H14 H 0.3416 0.3849 0.6533
C29 C 0.4044(5) 0.4249(4) 0.70294(16)
H15 H 0.3802 0.3920 0.7181
C30 C 0.5061(4) 0.5726(3) 0.63730(17)
H16 H 0.5454 0.6088 0.6484
C31 C 0.4815(4) 0.5691(3) 0.59899(14)
H17 H 0.5046 0.6034 0.5843
C32 C 0.4239(4) 0.5169(3) 0.58102(14)
C33 C 0.3915(4) 0.4659(3) 0.60208(15)
H18 H 0.3544 0.4291 0.5905
C34 C 0.3698(3) 0.5809(3) 0.48177(13)
C35 C 0.3574(4) 0.5209(3) 0.46215(14)
H19 H 0.3430 0.5227 0.4358
C36 C 0.3655(3) 0.4566(3) 0.47998(14)
C37 C 0.3875(4) 0.4563(3) 0.51864(13)
H20 H 0.3945 0.4135 0.5313
C38 C 0.3997(3) 0.5169(3) 0.53963(14)
C39 C 0.3881(3) 0.5793(3) 0.52086(13)
H21 H 0.3925 0.6210 0.5345
C40 C -0.3509(4) 0.6021(3) -0.12039(16)
C41 C -0.3177(4) 0.6638(3) -0.09764(15)
C42 C -0.3425(4) 0.6703(3) -0.06168(16)
H22 H -0.3806 0.6360 -0.0530
C43 C -0.3120(4) 0.7258(3) -0.03915(16)
H23 H -0.3282 0.7293 -0.0150
C44 C -0.2565(4) 0.7772(3) -0.05239(15)
C45 C -0.2358(4) 0.7719(3) -0.08878(14)
C46 C -0.2672(4) 0.7141(3) -0.11069(15)
H24 H -0.2525 0.7104 -0.1351
C47 C -0.1804(4) 0.8241(3) -0.10143(15)
H25 H -0.1636 0.8207 -0.1255
C48 C -0.1505(4) 0.8795(3) -0.07935(14)
H26 H -0.1142 0.9143 -0.0885
C49 C -0.1726(4) 0.8856(3) -0.04368(14)
C50 C -0.2233(4) 0.8346(3) -0.03050(14)
H27 H -0.2364 0.8378 -0.0059
C51 C -0.2568(5) 1.4134(3) -0.14205(16)
C52 C -0.2510(4) 1.3459(3) -0.12250(16)
C53 C -0.1748(4) 1.3321(3) -0.09463(16)
H28 H -0.1282 1.3666 -0.0880
C54 C -0.1642(4) 1.2694(3) -0.07594(15)
C55 C -0.2327(4) 1.2182(3) -0.08640(15)
C56 C -0.3121(4) 1.2330(3) -0.11491(16)
H29 H -0.3592 1.1990 -0.1221
C57 C -0.3203(4) 1.2958(3) -0.13181(16)
H30 H -0.3741 1.3054 -0.1502
C58 C -0.0882(4) 1.2557(3) -0.04735(16)
H31 H -0.0411 1.2897 -0.0404
C59 C -0.0809(4) 1.1936(3) -0.02919(16)
H32 H -0.0298 1.1861 -0.0093
C60 C -0.1482(4) 1.1405(3) -0.03948(15)
C61 C -0.2226(4) 1.1537(3) -0.06808(14)
H33 H -0.2680 1.1188 -0.0757
C62 C 0.2089(5) 0.9945(3) 0.24048(17)
C63 C 0.1509(5) 0.9851(3) 0.20283(17)
C64 C 0.1707(5) 0.9299(3) 0.18064(18)
H34 H 0.2198 0.8988 0.1902
C65 C 0.1211(5) 0.9197(3) 0.14547(17)
H35 H 0.1356 0.8817 0.1312
C66 C 0.0476(4) 0.9664(3) 0.13042(15)
C67 C 0.0260(4) 1.0221(3) 0.15280(16)
C68 C 0.0773(4) 1.0312(3) 0.18831(16)
H36 H 0.0630 1.0687 0.2030
C69 C -0.0013(4) 0.9602(3) 0.09344(15)
H37 H 0.0105 0.9216 0.0791
C70 C -0.0646(4) 1.0081(3) 0.07812(14)
C71 C -0.0882(4) 1.0623(3) 0.10071(15)
H38 H -0.1351 1.0948 0.0907
C72 C -0.0436(4) 1.0683(3) 0.13711(16)
H39 H -0.0608 1.1048 0.1519
C73 C -0.1488(4) 0.9499(3) -0.02149(15)
C74 C -0.1579(4) 1.0123(3) -0.03948(14)
H40 H -0.1773 1.0134 -0.0657
C75 C -0.1391(4) 1.0739(3) -0.02019(14)
C76 C -0.1095(4) 1.0698(3) 0.01818(14)
H41 H -0.0955 1.1111 0.0318
C77 C -0.0996(4) 1.0079(3) 0.03737(14)
C78 C -0.1197(4) 0.9485(3) 0.01681(14)
H42 H -0.1136 0.9055 0.0292
C79 C 0.0523(5) 0.7408(4) -0.0815(2)
H43 H 0.0666 0.7429 -0.1069
H44 H 0.0267 0.7850 -0.0751
H45 H 0.1104 0.7306 -0.0640
C80 C -0.0485(5) 0.6754(4) -0.0428(2)
H46 H -0.0976 0.6399 -0.0452
H47 H 0.0061 0.6608 -0.0246
H48 H -0.0739 0.7183 -0.0345
C81 C -0.0490(5) 0.6476(4) -0.1086(2)
H49 H -0.0251 0.6566 -0.1308
O1 O 0.4224(3) 0.92420(18) 0.32807(10)
O2 O 0.2928(3) 0.9450(2) 0.35180(11)
O3 O 0.3364(3) 0.1119(2) 0.33884(11)
O4 O 0.4738(3) 0.0708(2) 0.37010(11)
O5 O 0.4468(3) 0.4436(2) 0.78135(11)
O6 O 0.5534(3) 0.5243(2) 0.77564(10)
O7 O -0.3256(3) 0.59395(18) -0.15174(10)
O8 O -0.4051(3) 0.56029(19) -0.10815(10)
O9 O -0.3333(3) 1.4229(2) -0.16572(11)
O10 O -0.1901(3) 1.4552(2) -0.13524(12)
O11 O 0.1905(3) 1.0467(2) 0.26019(12)
O12 O 0.2721(3) 0.9530(2) 0.25181(11)
O13 O -0.1065(3) 0.6005(2) -0.10889(11)
O14 O -0.1675(4) 0.6632(3) -0.18991(13)
O15 O -0.2381(5) 0.5231(3) -0.22308(15)
O16 O -0.0280(3) 0.5303(3) -0.17270(15)
N1 N -0.0182(4) 0.6865(3) -0.07938(19)
Cd1_2 Cd 0.31783(3) 0.01968(2) 0.304934(11)
Cd1C Cd 0.31783(3) 0.48032(2) 0.804934(11)
Cd2_2 Cd 0.55313(3) -0.00011(2) 0.337326(11)
Cd2C Cd 0.55313(3) 0.50011(2) 0.837326(11)
Cd2C_2 Cd -0.44687(3) 0.50011(2) -0.162674(11)
Cd2C_3 Cd -0.44687(3) 1.50011(2) -0.162674(11)
Cd3_2 Cd -0.18127(4) 1.55438(2) -0.163450(13)
O3_2 O 0.3364(3) 1.1119(2) 0.33884(11)
O4_2 O 0.4738(3) 1.0708(2) 0.37010(11)
O5C O 0.4468(3) 1.0564(2) 0.28135(11)
O6C O 0.5534(3) 0.9757(2) 0.27564(10)
O7C O 0.6744(3) 0.90605(18) 0.34826(10)
O8C O 0.5949(3) 0.93971(19) 0.39185(10)
O9C O 0.6667(3) 1.0771(2) 0.33428(11)
O10_2 O -0.1901(3) 0.4552(2) -0.13524(12)
C82 C 0.1798(6) 0.4968(4) 0.0456(2)
H50 H 0.1182 0.4770 0.0351
H51 H 0.1754 0.5192 0.0692
H52 H 0.2275 0.4603 0.0497
C83 C 0.2958(6) 0.5808(4) 0.0295(2)
H53 H 0.3035 0.6132 0.0097
H54 H 0.3474 0.5472 0.0323
H55 H 0.2975 0.6058 0.0529
C84 C 0.1556(6) 0.5603(5) -0.0112(3)
H56 H 0.0930 0.5424 -0.0150
O17 O 0.1781(4) 0.5963(3) -0.03895(16)
N2 N 0.2068(5) 0.5463(4) 0.0201(2)
loop_
_geom_bond_atom_site_label_1
_geom_bond_atom_site_label_2
_geom_bond_site_symmetry_1
_geom_bond_site_symmetry_2
Cd1 O1 1_555 1_555
Cd2 O1 1_555 1_555
Cd3 O7 1_555 1_555
C1 C2 1_555 1_555
C2 C3 1_555 1_555
C3 H1 1_555 1_555
C4 C3 1_555 1_555
C5 C4 1_555 1_555
C6 C5 1_555 1_555
H2 C6 1_555 1_555
C7 C2 1_555 1_555
H3 C7 1_555 1_555
C8 C5 1_555 1_555
H4 C8 1_555 1_555
C9 C8 1_555 1_555
C10 C9 1_555 1_555
H5 C10 1_555 1_555
C11 C4 1_555 1_555
H6 C11 1_555 1_555
C12 C13 1_555 1_555
C13 C14 1_555 1_555
C14 H7 1_555 1_555
C15 C14 1_555 1_555
H8 C15 1_555 1_555
C16 C15 1_555 1_555
C17 C16 1_555 1_555
C18 C13 1_555 1_555
H9 C18 1_555 1_555
C19 C16 1_555 1_555
H10 C19 1_555 1_555
C20 C19 1_555 1_555
C21 C20 1_555 1_555
H11 C21 1_555 1_555
C22 C17 1_555 1_555
H12 C22 1_555 1_555
C23 C24 1_555 1_555
C24 C25 1_555 1_555
C25 H13 1_555 1_555
C26 C25 1_555 1_555
C27 C26 1_555 1_555
C28 C27 1_555 1_555
H14 C28 1_555 1_555
C29 C24 1_555 1_555
H15 C29 1_555 1_555
C30 C26 1_555 1_555
H16 C30 1_555 1_555
C31 C30 1_555 1_555
H17 C31 1_555 1_555
C32 C31 1_555 1_555
C33 C27 1_555 1_555
H18 C33 1_555 1_555
C34 C9 1_555 1_555
C35 C34 1_555 1_555
H19 C35 1_555 1_555
C36 C20 1_555 1_555
C37 C36 1_555 1_555
H20 C37 1_555 1_555
C38 C32 1_555 1_555
C39 C34 1_555 1_555
H21 C39 1_555 1_555
C40 C41 1_555 1_555
C41 C42 1_555 1_555
C42 H22 1_555 1_555
C43 C42 1_555 1_555
H23 C43 1_555 1_555
C44 C43 1_555 1_555
C45 C44 1_555 1_555
C46 C41 1_555 1_555
H24 C46 1_555 1_555
C47 C45 1_555 1_555
H25 C47 1_555 1_555
C48 C47 1_555 1_555
H26 C48 1_555 1_555
C49 C48 1_555 1_555
C50 C44 1_555 1_555
H27 C50 1_555 1_555
C51 C52 1_555 1_555
C52 C53 1_555 1_555
C53 H28 1_555 1_555
C54 C53 1_555 1_555
C55 C54 1_555 1_555
C56 C55 1_555 1_555
H29 C56 1_555 1_555
C57 C52 1_555 1_555
H30 C57 1_555 1_555
C58 C54 1_555 1_555
H31 C58 1_555 1_555
C59 C58 1_555 1_555
H32 C59 1_555 1_555
C60 C59 1_555 1_555
C61 C55 1_555 1_555
H33 C61 1_555 1_555
C62 C63 1_555 1_555
C63 C64 1_555 1_555
C64 H34 1_555 1_555
C65 C64 1_555 1_555
H35 C65 1_555 1_555
C66 C65 1_555 1_555
C67 C66 1_555 1_555
C68 C63 1_555 1_555
H36 C68 1_555 1_555
C69 C66 1_555 1_555
H37 C69 1_555 1_555
C70 C69 1_555 1_555
C71 C70 1_555 1_555
H38 C71 1_555 1_555
C72 C67 1_555 1_555
H39 C72 1_555 1_555
C73 C49 1_555 1_555
C74 C73 1_555 1_555
H40 C74 1_555 1_555
C75 C60 1_555 1_555
C76 C75 1_555 1_555
H41 C76 1_555 1_555
C77 C70 1_555 1_555
C78 C73 1_555 1_555
H42 C78 1_555 1_555
C79 H43 1_555 1_555
H44 C79 1_555 1_555
H45 C79 1_555 1_555
C80 H46 1_555 1_555
H47 C80 1_555 1_555
H48 C80 1_555 1_555
C81 H49 1_555 1_555
C82 H50 1_555 1_555
H51 C82 1_555 1_555
H52 C82 1_555 1_555
C83 H53 1_555 1_555
H54 C83 1_555 1_555
H55 C83 1_555 1_555
C84 H56 1_555 1_555
O1 C1 1_555 1_555
O2 Cd1 1_555 1_555
O3 C12 1_555 1_555
O4 C12 1_555 1_555
O5 C23 1_555 1_555
O6 C23 1_555 1_555
O7 C40 1_555 1_555
O8 C40 1_555 1_555
O9 C51 1_555 1_555
O10 C51 1_555 1_555
O11 Cd1 1_555 1_555
O12 Cd1 1_555 1_555
O13 Cd3 1_555 1_555
O14 Cd3 1_555 1_555
O15 Cd3 1_555 1_555
O16 Cd3 1_555 1_555
O17 C84 1_555 1_555
N1 C79 1_555 1_555
N2 C82 1_555 1_555
Cd1_2 O3 1_555 1_555
Cd1C O5 1_555 1_555
Cd2_2 O4 1_555 1_555
Cd2C O6 1_555 1_555
Cd2C_2 O7 1_555 1_555
Cd2C_3 O9 1_555 1_555
Cd3_2 O10 1_555 1_555
O3_2 Cd1 1_555 1_555
O4_2 Cd2 1_555 1_555
O5C Cd1 1_555 1_555
O6C Cd2 1_555 1_555
O7C Cd2 1_555 1_555
O8C Cd2 1_555 1_555
O9C Cd2 1_555 1_555
O10_2 Cd3 1_555 1_555
C1 O2 1_555 1_555
C6 C7 1_555 1_555
C10 C11 1_555 1_555
C17 C18 1_555 1_555
C21 C22 1_555 1_555
C28 C29 1_555 1_555
C32 C33 1_555 1_555
C35 C36 1_555 1_555
C37 C38 1_555 1_555
C38 C39 1_555 1_555
C45 C46 1_555 1_555
C49 C50 1_555 1_555
C56 C57 1_555 1_555
C60 C61 1_555 1_555
C62 O11 1_555 1_555
C62 O12 1_555 1_555
C67 C68 1_555 1_555
C71 C72 1_555 1_555
C74 C75 1_555 1_555
C76 C77 1_555 1_555
C77 C78 1_555 1_555
C80 N1 1_555 1_555
C81 O13 1_555 1_555
C81 N1 1_555 1_555
C83 N2 1_555 1_555
C84 N2 1_555 1_555
O8 Cd2C_2 1_555 1_555

#END
