
#######################################################################
#
#                 Cambridge Crystallographic Data Centre
#                                CCDC 
#
#######################################################################
#
# If this CIF has been generated from an entry in the Cambridge 
# Structural Database, then it will include bibliographic, chemical, 
# crystal, experimental, refinement or atomic coordinate data resulting 
# from the CCDC's data processing and validation procedures.
#
#######################################################################

data_XEHSOT
_symmetry_cell_setting           monoclinic
_symmetry_space_group_name_H-M   'P 21/n'
_symmetry_Int_Tables_number      14
_space_group_name_Hall           '-P 2yn'
loop_
_symmetry_equiv_pos_site_id
_symmetry_equiv_pos_as_xyz
1 x,y,z
2 1/2-x,1/2+y,1/2-z
3 -x,-y,-z
4 1/2+x,1/2-y,1/2+z
_cell_length_a                   11.2888(7)
_cell_length_b                   9.8179(6)
_cell_length_c                   14.5465(7)
_cell_angle_alpha                90
_cell_angle_beta                 91.622(3)
_cell_angle_gamma                90
_cell_volume                     1611.58
loop_
_atom_site_label
_atom_site_type_symbol
_atom_site_fract_x
_atom_site_fract_y
_atom_site_fract_z
Mg1 Mg 0.25611(7) 0.41873(9) 0.63497(6)
Mg2 Mg 0.0000 0.5000 0.5000
Mg3 Mg 0.23961(8) 0.60880(9) 0.81042(6)
Mg4 Mg 0.5000 0.5000 0.5000
O1 O 0.13033(16) 0.50304(19) 0.72039(12)
O2 O -0.03833(17) 0.5011(2) 0.63757(12)
O3 O 0.15608(16) 0.24154(19) 0.61125(12)
O4 O 0.01828(17) 0.2931(2) 0.50353(13)
O5 O 0.39878(16) 0.34659(19) 0.56225(12)
O6 O 0.38826(16) 0.12366(19) 0.59508(12)
O7 O 0.30957(16) 0.29679(19) 0.74630(11)
O8 O 0.31435(17) 0.43889(19) 0.86673(12)
O9 O 0.18421(16) 0.52584(19) 0.52580(12)
O10 O 0.34990(17) 0.6053(2) 0.46407(13)
O11 O 0.34949(16) 0.58000(19) 0.69678(12)
O12 O 0.51703(18) 0.6069(2) 0.62105(13)
C1 C 0.0187(2) 0.5149(3) 0.71046(18)
H1 H -0.0245 0.5361 0.7637
C2 C 0.0742(2) 0.2111(3) 0.55241(18)
H2 H 0.0546 0.1175 0.5457
C3 C 0.4305(2) 0.2222(3) 0.55441(18)
H3 H 0.4924 0.2037 0.5134
C4 C 0.3328(2) 0.3271(3) 0.82984(18)
H4 H 0.3675 0.2579 0.8675
C5 C 0.2413(2) 0.6012(3) 0.47061(18)
H5 H 0.1959 0.6592 0.4310
C6 C 0.4514(2) 0.6306(3) 0.68548(19)
H6 H 0.4800 0.6926 0.7310
Mg1B Mg -0.25611(7) 0.58127(9) 0.36503(6)
Mg1A Mg 0.24389(7) 0.91873(9) 0.86503(6)
Mg1B_2 Mg 0.74389(7) 0.58127(9) 0.36503(6)
Mg3B Mg -0.23961(8) 0.39120(9) 0.18958(6)
Mg3A Mg 0.26039(8) 0.10880(9) 0.68958(6)
Mg3C Mg -0.26039(8) 0.89120(9) 0.31042(6)
Mg3A_2 Mg 0.26039(8) 1.10880(9) 0.68958(6)
Mg3B_2 Mg 0.76039(8) 0.39120(9) 0.18958(6)
Mg4_2 Mg -0.5000 0.5000 0.5000
Mg4C Mg 0.0000 1.0000 1.0000
O1B O -0.13033(16) 0.49696(19) 0.27961(12)
O2B O 0.03833(17) 0.4989(2) 0.36243(12)
O3B O -0.15608(16) 0.75846(19) 0.38875(12)
O3A O 0.34392(16) 0.74154(19) 0.88875(12)
O3C O -0.34392(16) 0.25846(19) 0.11125(12)
O4B O -0.01828(17) 0.7069(2) 0.49647(13)
O5A O 0.10122(16) 0.84659(19) 0.93775(12)
O5B O 0.60122(16) 0.65341(19) 0.43775(12)
O5B_2 O -0.39878(16) 0.65341(19) 0.43775(12)
O6A O 0.11174(16) 0.62366(19) 0.90492(12)
O6C O -0.11174(16) 0.37634(19) 0.09508(12)
O7A O 0.19043(16) 0.79679(19) 0.75370(11)
O7B O -0.30957(16) 0.70321(19) 0.25370(11)
O7C O -0.19043(16) 0.20321(19) 0.24630(11)
O8A O 0.18565(17) 0.93889(19) 0.63327(12)
O8B O -0.31435(17) 0.56111(19) 0.13327(12)
O9B O -0.18421(16) 0.47416(19) 0.47420(12)
O10B O -0.34990(17) 0.3947(2) 0.53593(13)
O10B_2 O 0.65010(17) 0.3947(2) 0.53593(13)
O11B O 0.65051(16) 0.42000(19) 0.30322(12)
O11B_2 O -0.34949(16) 0.42000(19) 0.30322(12)
O12B O 0.48297(18) 0.3931(2) 0.37895(13)
C1B C -0.0187(2) 0.4851(3) 0.28954(18)
H1B H 0.0245 0.4639 0.2363
C2B C -0.0742(2) 0.7889(3) 0.44759(18)
H2B H -0.0546 0.8825 0.4543
C3A C 0.0695(2) 0.7222(3) 0.94559(18)
H3A H 0.0076 0.7037 0.9866
C4A C 0.1672(2) 0.8271(3) 0.67016(18)
H4A H 0.1325 0.7579 0.6325
C5B C -0.2413(2) 0.3988(3) 0.52939(18)
H5B H -0.1959 0.3408 0.5690
C6B C 0.5486(2) 0.3694(3) 0.31452(19)
H6B H 0.5200 0.3074 0.2690
O13 O 0.3752(7) 0.6702(9) 0.2582(6)
C7 C 0.2778(11) 0.7496(15) 0.2372(9)
O14 O 0.1809(14) 0.9441(17) 0.4282(9)
C8 C 0.133(3) 0.926(3) 0.3338(15)
O15? O 0.2507(16) 0.9526(19) 0.4066(10)
C9? C 0.218(3) 0.888(3) 0.3176(14)
C10? C 0.156(5) 0.877(10) 0.333(6)
O16? O 0.284(5) 0.889(6) 0.328(3)
C11? C 0.264(2) 0.551(4) 0.115(3)
O17? O 0.380(2) 0.490(3) 0.1348(17)
O18? O 0.243(2) 0.674(3) 0.2376(15)
C12? C 0.360(3) 0.679(5) 0.206(3)
loop_
_geom_bond_atom_site_label_1
_geom_bond_atom_site_label_2
_geom_bond_site_symmetry_1
_geom_bond_site_symmetry_2
Mg1 O1 1_555 1_555
Mg2 O2 1_555 1_555
Mg3 O1 1_555 1_555
Mg4 O5 1_555 1_555
O1 C1 1_555 1_555
O2 C1 1_555 1_555
O3 Mg1 1_555 1_555
O4 Mg2 1_555 1_555
O5 Mg1 1_555 1_555
O6 C3 1_555 1_555
O7 Mg1 1_555 1_555
O8 Mg3 1_555 1_555
O9 Mg1 1_555 1_555
O10 Mg4 1_555 1_555
O11 Mg1 1_555 1_555
O12 Mg4 1_555 1_555
C1 H1 1_555 1_555
C2 O3 1_555 1_555
H2 C2 1_555 1_555
C3 O5 1_555 1_555
H3 C3 1_555 1_555
C4 O7 1_555 1_555
H4 C4 1_555 1_555
C5 O9 1_555 1_555
H5 C5 1_555 1_555
C6 O11 1_555 1_555
H6 C6 1_555 1_555
O13 C7 1_555 1_555
O14 C8 1_555 1_555
Mg1B O1B 1_555 1_555
Mg1A O3A 1_555 1_555
Mg1B_2 O5B 1_555 1_555
Mg3B O1B 1_555 1_555
Mg3A O3 1_555 1_555
Mg3C O3B 1_555 1_555
Mg3A_2 O8A 1_555 1_555
Mg3B_2 O11B 1_555 1_555
Mg4_2 O5B_2 1_555 1_555
Mg4C O5A 1_555 1_555
O1B C1B 1_555 1_555
O2B Mg2 1_555 1_555
O3B Mg1B 1_555 1_555
O3A Mg3 1_555 1_555
O3C Mg3B 1_555 1_555
O4B Mg2 1_555 1_555
O5A Mg1A 1_555 1_555
O5B Mg4 1_555 1_555
O5B_2 Mg1B 1_555 1_555
O6A Mg3 1_555 1_555
O6C Mg3B 1_555 1_555
O7A Mg3 1_555 1_555
O7B Mg1B 1_555 1_555
O7C Mg3B 1_555 1_555
O8A C4A 1_555 1_555
O8B Mg3B 1_555 1_555
O9B Mg2 1_555 1_555
O10B Mg4_2 1_555 1_555
O10B_2 Mg4 1_555 1_555
O11B Mg1B_2 1_555 1_555
O11B_2 Mg1B 1_555 1_555
O12B Mg4 1_555 1_555
C1B O2B 1_555 1_555
H1B C1B 1_555 1_555
C2B O3B 1_555 1_555
H2B C2B 1_555 1_555
C3A O5A 1_555 1_555
H3A C3A 1_555 1_555
C4A O7A 1_555 1_555
H4A C4A 1_555 1_555
C5B O9B 1_555 1_555
H5B C5B 1_555 1_555
C6B O11B 1_555 1_555
H6B C6B 1_555 1_555
Mg2 O9 1_555 1_555
Mg3 O11 1_555 1_555
O4 C2 1_555 1_555
O6 Mg3A 1_555 1_555
O7 Mg3A 1_555 1_555
O8 C4 1_555 1_555
O10 C5 1_555 1_555
O12 C6 1_555 1_555
Mg1B O9B 1_555 1_555
Mg1A O7A 1_555 1_555
Mg3B O11B_2 1_555 1_555
Mg3C O7B 1_555 1_555
O4B C2B 1_555 1_555
O6A C3A 1_555 1_555
O10B C5B 1_555 1_555
O12B C6B 1_555 1_555

#END
