
#######################################################################
#
#                 Cambridge Crystallographic Data Centre
#                                CCDC 
#
#######################################################################
#
# If this CIF has been generated from an entry in the Cambridge 
# Structural Database, then it will include bibliographic, chemical, 
# crystal, experimental, refinement or atomic coordinate data resulting 
# from the CCDC's data processing and validation procedures.
#
#######################################################################

data_XEJWUG
_symmetry_cell_setting           orthorhombic
_symmetry_space_group_name_H-M   'P 21 21 2'
_symmetry_Int_Tables_number      18
_space_group_name_Hall           'P 2 2ab'
loop_
_symmetry_equiv_pos_site_id
_symmetry_equiv_pos_as_xyz
1 x,y,z
2 -x,-y,z
3 1/2+x,1/2-y,-z
4 1/2-x,1/2+y,-z
_cell_length_a                   22.334(1)
_cell_length_b                   6.746(1)
_cell_length_c                   7.597(1)
_cell_angle_alpha                90
_cell_angle_beta                 90
_cell_angle_gamma                90
_cell_volume                     1144.6
loop_
_atom_site_label
_atom_site_type_symbol
_atom_site_fract_x
_atom_site_fract_y
_atom_site_fract_z
Co1 Co 0.71090(2) -1.46466(8) 0.75151(7)
O1 O 0.75403(13) -1.2533(5) 0.5998(4)
O2 O 0.82852(13) -1.1078(5) 0.4554(4)
C1 C 0.80861(19) -1.2141(7) 0.5773(6)
C2 C 0.85638(19) -1.2943(8) 0.7018(6)
H1 H 0.8852 -1.3725 0.6313
H2 H 0.8785 -1.1800 0.7513
C3 C 0.83552(19) -1.4223(6) 0.8537(5)
H3 H 0.8714 -1.4770 0.9157
O3 O 0.80121(13) -1.5842(5) 0.7831(4)
H4 H 0.8148 -1.7142 0.7562
C4 C 0.79878(19) -1.3004(7) 0.9846(5)
O4 O 0.74233(14) -1.3245(5) 0.9815(4)
O5 O 0.82626(13) -1.1824(5) 1.0816(4)
N1 N 0.63252(16) -1.2870(6) 0.7750(5)
C5 C 0.6314(2) -1.0991(8) 0.7141(7)
H5 H 0.6668 -1.0457 0.6637
C6 C 0.5805(2) -0.9803(7) 0.7222(7)
H6 H 0.5818 -0.8474 0.6810
C7 C 0.5278(2) -1.0585(7) 0.7912(6)
C8 C 0.5304(3) -1.2469(9) 0.8591(10)
H7 H 0.4956 -1.3048 0.9093
C9 C 0.5835(3) -1.3532(9) 0.8547(11)
H8 H 0.5849 -1.4788 0.9111
Co1C Co 0.78910(2) -1.96466(8) 0.24849(7)
Co1C_2 Co 0.78910(2) -0.96466(8) 0.24849(7)
Co1C_3 Co 0.78910(2) -0.96466(8) 1.24849(7)
Co1A Co 0.28910(2) -0.53534(8) 0.75151(7)
Co1_2 Co 0.71090(2) -1.46466(8) -0.24849(7)
O1C O 0.74597(13) -1.7533(5) 0.4002(4)
O2C O 0.67148(13) -1.6078(5) 0.5446(4)
O2_2 O 0.82852(13) -2.1078(5) 0.4554(4)
C1C C 0.69139(19) -1.7141(7) 0.4227(6)
C2C C 0.64362(19) -1.7943(8) 0.2982(6)
H1C H 0.6148 -1.8725 0.3687
H2C H 0.6215 -1.6800 0.2487
C3C C 0.66448(19) -1.9223(6) 0.1463(5)
H3C H 0.6286 -1.9770 0.0843
O3C O 0.69879(13) -2.0842(5) 0.2169(4)
H4C H 0.6852 -2.2142 0.2438
C4C C 0.70122(19) -1.8004(7) 0.0154(5)
O4C O 0.75767(14) -1.8245(5) 0.0185(4)
O5C O 0.67374(13) -1.6824(5) -0.0816(4)
O5C_2 O 0.67374(13) -1.6824(5) 0.9184(4)
O5_2 O 0.82626(13) -2.1824(5) 0.0816(4)
N1A N 0.36748(16) -0.7130(6) 0.7750(5)
N1C N 0.86748(16) -1.7870(6) 0.2250(5)
C5A C 0.3686(2) -0.9009(8) 0.7141(7)
H5A H 0.3332 -0.9543 0.6637
C6A C 0.4195(2) -1.0197(7) 0.7222(7)
H6A H 0.4182 -1.1526 0.6810
C7A C 0.4722(2) -0.9415(7) 0.7912(6)
C8A C 0.4696(3) -0.7531(9) 0.8591(10)
H7A H 0.5044 -0.6952 0.9093
C9A C 0.4165(3) -0.6468(9) 0.8547(11)
H8A H 0.4151 -0.5212 0.9111
O6 O 1.0000 -2.0000 0.7817(12)
O7 O 0.8979(3) -1.8214(11) 0.6416(9)
loop_
_geom_bond_atom_site_label_1
_geom_bond_atom_site_label_2
_geom_bond_site_symmetry_1
_geom_bond_site_symmetry_2
Co1 O1 1_555 1_555
O1 C1 1_555 1_555
O2 C1 1_555 1_555
C1 C2 1_555 1_555
C2 H1 1_555 1_555
H2 C2 1_555 1_555
C3 C2 1_555 1_555
H3 C3 1_555 1_555
O3 Co1 1_555 1_555
H4 O3 1_555 1_555
C4 C3 1_555 1_555
O4 Co1 1_555 1_555
O5 C4 1_555 1_555
N1 Co1 1_555 1_555
C5 N1 1_555 1_555
H5 C5 1_555 1_555
C6 C5 1_555 1_555
H6 C6 1_555 1_555
C7 C6 1_555 1_555
C8 C7 1_555 1_555
H7 C8 1_555 1_555
C9 N1 1_555 1_555
H8 C9 1_555 1_555
Co1C O1C 1_555 1_555
Co1C_2 O2 1_555 1_555
Co1C_3 O5 1_555 1_555
Co1A N1A 1_555 1_555
Co1_2 O5C 1_555 1_555
O1C C1C 1_555 1_555
O2C Co1 1_555 1_555
O2_2 Co1C 1_555 1_555
C1C O2C 1_555 1_555
C2C C1C 1_555 1_555
H1C C2C 1_555 1_555
H2C C2C 1_555 1_555
C3C C2C 1_555 1_555
H3C C3C 1_555 1_555
O3C Co1C 1_555 1_555
H4C O3C 1_555 1_555
C4C C3C 1_555 1_555
O4C Co1C 1_555 1_555
O5C C4C 1_555 1_555
O5C_2 Co1 1_555 1_555
O5_2 Co1C 1_555 1_555
N1A C5A 1_555 1_555
N1C Co1C 1_555 1_555
C5A H5A 1_555 1_555
C6A C5A 1_555 1_555
H6A C6A 1_555 1_555
C7A C7 1_555 1_555
C8A C7A 1_555 1_555
H7A C8A 1_555 1_555
C9A N1A 1_555 1_555
H8A C9A 1_555 1_555
C3 O3 1_555 1_555
C4 O4 1_555 1_555
C8 C9 1_555 1_555
C3C O3C 1_555 1_555
C4C O4C 1_555 1_555
C6A C7A 1_555 1_555
C8A C9A 1_555 1_555

#END
