
#######################################################################
#
#                 Cambridge Crystallographic Data Centre
#                                CCDC 
#
#######################################################################
#
# If this CIF has been generated from an entry in the Cambridge 
# Structural Database, then it will include bibliographic, chemical, 
# crystal, experimental, refinement or atomic coordinate data resulting 
# from the CCDC's data processing and validation procedures.
#
#######################################################################

data_XEMDUO
_symmetry_cell_setting           monoclinic
_symmetry_space_group_name_H-M   'P 21/c'
_symmetry_Int_Tables_number      14
_space_group_name_Hall           '-P 2ybc'
loop_
_symmetry_equiv_pos_site_id
_symmetry_equiv_pos_as_xyz
1 x,y,z
2 x,1/2-y,1/2+z
3 -x,-y,-z
4 -x,1/2+y,1/2-z
_cell_length_a                   9.5274(2)
_cell_length_b                   15.7802(4)
_cell_length_c                   20.4054(4)
_cell_angle_alpha                90
_cell_angle_beta                 76.510(1)
_cell_angle_gamma                90
_cell_volume                     2983.2
loop_
_atom_site_label
_atom_site_type_symbol
_atom_site_fract_x
_atom_site_fract_y
_atom_site_fract_z
Mn1 Mn 0.23032(5) 0.12955(3) 0.23349(3)
Cr1 Cr -0.27369(6) -0.03142(3) 0.23761(3)
O1 O -0.2048(2) 0.06488(15) 0.28405(11)
O2 O -0.0743(2) -0.02906(15) 0.18159(11)
C1 C -0.0712(3) 0.0791(2) 0.2625(2)
C2 C 0.0048(4) 0.0252(2) 0.2013(2)
O3 O 0.0020(3) 0.1305(2) 0.28533(12)
O4 O 0.1340(2) 0.0377(2) 0.17693(12)
O5 O 0.6497(2) 0.04247(15) 0.17631(11)
O6 O 0.5286(2) -0.02253(15) 0.29385(11)
C3 C 0.5178(3) 0.0609(2) 0.1980(2)
C4 C 0.4467(3) 0.0221(2) 0.2675(2)
O7 O 0.4441(2) 0.1048(2) 0.16922(11)
O8 O 0.3170(2) 0.0356(2) 0.29116(12)
O9 O 0.3163(2) 0.36442(14) 0.30776(11)
O10 O 0.2192(3) 0.38710(15) 0.19927(11)
C5 C 0.2871(3) 0.2977(2) 0.2798(2)
C6 C 0.2333(3) 0.3113(2) 0.2147(2)
O11 O 0.2934(3) 0.22437(15) 0.30027(12)
O12 O 0.2075(3) 0.2481(2) 0.18359(12)
O5_2 O -0.3503(2) 0.04247(15) 0.17631(11)
O6_2 O -0.4714(2) -0.02253(15) 0.29385(11)
O9C O -0.3163(2) -0.13558(14) 0.19224(11)
O10C O -0.2192(3) -0.11290(15) 0.30073(11)
Cr1_2 Cr 0.72631(6) -0.03142(3) 0.23761(3)
Cr1C Cr 0.27369(6) 0.46858(3) 0.26239(3)
C7 C 0.0410(10) 0.7806(7) 0.4981(5)
C8 C -0.0347(22) 0.8271(10) 0.5546(4)
H1 H -0.0243(22) 0.8122(10) 0.5973(4)
C9 C -0.1230(17) 0.8936(8) 0.5480(6)
H2 H -0.1752(17) 0.9206(8) 0.5865(6)
C10 C -0.1368(10) 0.9218(5) 0.4849(5)
C11 C -0.0561(9) 0.8788(5) 0.4293(3)
H3 H -0.0584(9) 0.8976(5) 0.3864(3)
C12 C 0.0250(10) 0.8110(5) 0.4354(3)
H4 H 0.0727(10) 0.7829(5) 0.3965(3)
C13 C -0.2258(7) 0.9918(4) 0.4720(3)
H5 H -0.2268(7) 1.0021(4) 0.4272(3)
C14 C -0.3034(7) 1.0408(4) 0.5165(3)
H6 H -0.3028(7) 1.0315(4) 0.5614(3)
N1 N -0.5516(10) 1.2529(5) 0.4789(4)
C15 C -0.5082(15) 1.1966(8) 0.4301(4)
H7 H -0.5338(15) 1.2037(8) 0.3891(4)
C16 C -0.4265(10) 1.1286(5) 0.4392(4)
H8 H -0.3912(10) 1.0926(5) 0.4031(4)
C17 C -0.3945(7) 1.1117(4) 0.5008(4)
C18 C -0.4525(8) 1.1678(5) 0.5519(3)
H9 H -0.4405(8) 1.1581(5) 0.5953(3)
C19 C -0.5270(19) 1.2370(8) 0.5394(5)
H10 H -0.5622(19) 1.2748(8) 0.5744(5)
C20 C -0.6309(7) 1.3315(5) 0.4645(3)
H11 H -0.6837(7) 1.3189(5) 0.4298(3)
C21 C -0.7351(9) 1.3648(6) 0.5273(4)
H12 H -0.7926(36) 1.4094(20) 0.5150(5)
H13 H -0.6817(9) 1.3864(26) 0.5581(11)
H14 H -0.7969(32) 1.3196(9) 0.5484(12)
C22 C -0.5142(18) 1.4007(9) 0.4380(8)
H15 H -0.5606(17) 1.4519(13) 0.4288(27)
H16 H -0.4499(35) 1.3810(16) 0.3974(15)
H17 H -0.4605(43) 1.4116(26) 0.4715(12)
C23 C 0.1731(16) 0.6566(6) 0.4463(5)
H18 H 0.0996(15) 0.6345(25) 0.4259(15)
H19 H 0.2261(50) 0.6105(20) 0.4597(6)
H20 H 0.2377(37) 0.6917(11) 0.4144(11)
C24 C 0.1178(9) 0.6781(6) 0.5695(4)
H21 H 0.1742(45) 0.6271(18) 0.5651(4)
H22 H 0.0229(10) 0.6671(30) 0.5967(9)
H23 H 0.1635(50) 0.7212(14) 0.5904(11)
N2 N 0.1072(12) 0.7060(6) 0.5045(5)
N5 N 0.3847(7) 0.7715(5) 0.2835(5)
C43 C 0.2918(7) 0.7950(4) 0.2637(3)
C44 C 0.1771(8) 0.8292(5) 0.2432(4)
H24 H 0.1162(29) 0.7845(5) 0.2339(24)
H25 H 0.2118(8) 0.8622(26) 0.2032(15)
H26 H 0.1229(31) 0.8649(24) 0.2782(11)
N3? N -0.5678(50) 1.2636(22) 0.4877(19)
C25? C -0.5216(70) 1.2210(25) 0.4254(19)
C26? C -0.4556(40) 1.1436(19) 0.4203(14)
C27? C -0.3926(33) 1.1134(15) 0.4717(14)
C28? C -0.4111(27) 1.1658(15) 0.5285(11)
C29? C -0.4941(72) 1.2367(30) 0.5371(21)
C30? C -0.3091(15) 1.0375(8) 0.4674(7)
C31? C -0.2490(17) 1.0025(9) 0.5152(8)
C32? C 0.0025(24) 0.7775(14) 0.5010(12)
C33? C -0.0434(26) 0.8037(16) 0.4467(12)
C34? C -0.1266(24) 0.8759(14) 0.4495(11)
C35? C -0.1633(43) 0.9249(20) 0.5074(14)
C36? C -0.1112(72) 0.8967(29) 0.5616(18)
C37? C -0.0498(95) 0.8184(39) 0.5593(16)
N4? N 0.1171(47) 0.7103(27) 0.4963(20)
C38? C 0.1417(96) 0.6617(40) 0.4304(19)
C39? C 0.0691(34) 0.6478(17) 0.5574(15)
C40? C -0.7700(34) 1.3602(30) 0.4995(24)
C41? C -0.5307(50) 1.3980(24) 0.4332(19)
C42? C -0.6145(33) 1.3485(16) 0.4890(15)
loop_
_geom_bond_atom_site_label_1
_geom_bond_atom_site_label_2
_geom_bond_site_symmetry_1
_geom_bond_site_symmetry_2
Mn1 O3 1_555 1_555
Cr1 O1 1_555 1_555
O1 C1 1_555 1_555
O2 Cr1 1_555 1_555
C1 C2 1_555 1_555
C2 O2 1_555 1_555
O3 C1 1_555 1_555
O4 Mn1 1_555 1_555
O5 C3 1_555 1_555
O6 C4 1_555 1_555
C3 C4 1_555 1_555
C4 O8 1_555 1_555
O7 Mn1 1_555 1_555
O8 Mn1 1_555 1_555
O9 C5 1_555 1_555
O10 C6 1_555 1_555
C5 C6 1_555 1_555
C6 O12 1_555 1_555
O11 Mn1 1_555 1_555
O12 Mn1 1_555 1_555
C7 C8 1_555 1_555
C8 H1 1_555 1_555
C9 C8 1_555 1_555
H2 C9 1_555 1_555
C10 C9 1_555 1_555
C11 C10 1_555 1_555
H3 C11 1_555 1_555
C12 C7 1_555 1_555
H4 C12 1_555 1_555
C13 C10 1_555 1_555
H5 C13 1_555 1_555
C14 C13 1_555 1_555
H6 C14 1_555 1_555
N1 C15 1_555 1_555
C15 H7 1_555 1_555
C16 C15 1_555 1_555
H8 C16 1_555 1_555
C17 C14 1_555 1_555
C18 C17 1_555 1_555
H9 C18 1_555 1_555
C19 N1 1_555 1_555
H10 C19 1_555 1_555
C20 N1 1_555 1_555
H11 C20 1_555 1_555
C21 C20 1_555 1_555
H12 C21 1_555 1_555
H13 C21 1_555 1_555
H14 C21 1_555 1_555
C22 C20 1_555 1_555
H15 C22 1_555 1_555
H16 C22 1_555 1_555
H17 C22 1_555 1_555
C23 H18 1_555 1_555
H19 C23 1_555 1_555
H20 C23 1_555 1_555
C24 H21 1_555 1_555
H22 C24 1_555 1_555
H23 C24 1_555 1_555
N2 C7 1_555 1_555
N5 C43 1_555 1_555
C43 C44 1_555 1_555
C44 H24 1_555 1_555
H25 C44 1_555 1_555
H26 C44 1_555 1_555
O5_2 Cr1 1_555 1_555
O6_2 Cr1 1_555 1_555
O9C Cr1 1_555 1_555
O10C Cr1 1_555 1_555
Cr1_2 O5 1_555 1_555
Cr1C O9 1_555 1_555
C2 O4 1_555 1_555
O6 Cr1_2 1_555 1_555
C3 O7 1_555 1_555
O10 Cr1C 1_555 1_555
C5 O11 1_555 1_555
C11 C12 1_555 1_555
C16 C17 1_555 1_555
C18 C19 1_555 1_555
C23 N2 1_555 1_555
C24 N2 1_555 1_555

#END
