
#######################################################################
#
#                 Cambridge Crystallographic Data Centre
#                                CCDC 
#
#######################################################################
#
# If this CIF has been generated from an entry in the Cambridge 
# Structural Database, then it will include bibliographic, chemical, 
# crystal, experimental, refinement or atomic coordinate data resulting 
# from the CCDC's data processing and validation procedures.
#
#######################################################################

data_XENMIO
_symmetry_cell_setting           triclinic
_symmetry_space_group_name_H-M   'P -1'
_symmetry_Int_Tables_number      2
_space_group_name_Hall           '-P 1'
loop_
_symmetry_equiv_pos_site_id
_symmetry_equiv_pos_as_xyz
1 x,y,z
2 -x,-y,-z
_cell_length_a                   6.3108(13)
_cell_length_b                   12.639(3)
_cell_length_c                   15.631(3)
_cell_angle_alpha                95.723(3)
_cell_angle_beta                 99.878(4)
_cell_angle_gamma                97.860(4)
_cell_volume                     1207.01
loop_
_atom_site_label
_atom_site_type_symbol
_atom_site_fract_x
_atom_site_fract_y
_atom_site_fract_z
O2 O 0.0623(11) 0.3568(6) 0.9506(4)
H3 H 0.0762 0.4202 0.9770
H4 H -0.0694 0.3266 0.9441
C1 C 0.3306(4) 0.80432(19) 0.22001(15)
C2 C 0.4022(4) 0.72022(18) 0.27567(15)
C3 C 0.2984(4) 0.69553(18) 0.34412(14)
H5 H 0.1837 0.7301 0.3558
C4 C 0.3672(4) 0.61936(18) 0.39440(14)
C5 C 0.5339(4) 0.56572(18) 0.37740(15)
H6 H 0.5771 0.5132 0.4112
C6 C 0.6351(4) 0.59130(18) 0.30963(15)
C7 C 0.5737(4) 0.66708(19) 0.25775(16)
H7 H 0.6439 0.6829 0.2118
C8 C 0.7937(4) 0.45542(18) 0.23895(15)
C9 C 0.5962(4) 0.39973(19) 0.19517(16)
H8 H 0.4677 0.4234 0.2042
C10 C 0.5896(4) 0.30846(19) 0.13766(16)
H9 H 0.4557 0.2710 0.1081
C11 C 0.7795(3) 0.27185(17) 0.12328(14)
C12 C 0.9766(4) 0.32925(19) 0.16747(16)
H10 H 1.1054 0.3061 0.1581
C13 C 0.9851(4) 0.42030(19) 0.22524(16)
H11 H 1.1188 0.4580 0.2549
C14 C 0.7749(4) 0.17277(17) 0.06336(14)
C15 C 0.2441(4) 0.67052(18) 0.52438(14)
C16 C 0.4183(4) 0.7463(2) 0.56205(16)
H12 H 0.5493 0.7472 0.5423
C17 C 0.4012(4) 0.8215(2) 0.62913(17)
H13 H 0.5222 0.8715 0.6561
C18 C 0.2044(4) 0.82335(19) 0.65701(14)
C19 C 0.0292(4) 0.7457(2) 0.61759(16)
H14 H -0.1039 0.7455 0.6355
C20 C 0.0501(4) 0.6689(2) 0.55206(17)
H15 H -0.0675 0.6161 0.5267
C21 C 0.1825(4) 0.90632(19) 0.72842(14)
O3 O 1.2501(2) 0.01876(12) 0.10783(9)
O4 O 0.8139(2) -0.08209(12) 0.08609(9)
O5 O 0.4203(3) 0.81939(13) 0.15633(11)
O6 O 0.1826(3) 0.85181(15) 0.24266(12)
O7 O 0.8181(3) 0.54571(13) 0.29734(11)
O8 O 0.9518(2) 0.15059(12) 0.04763(10)
O9 O 0.5910(2) 0.11498(12) 0.03212(9)
O10 O 0.2603(3) 0.58908(12) 0.46097(10)
O11 O 0.3528(3) 0.95406(15) 0.77722(11)
O12 O -0.0072(3) 0.92210(14) 0.73462(11)
Zn1 Zn 1.0000 0.0000 0.0000
Zn2 Zn 0.52004(4) 0.95418(2) 0.100549(15)
Zn3 Zn 0.05857(4) 0.96194(2) 0.186266(16)
C1A C 1.6694(4) -0.80432(19) -0.22001(15)
C2A C 1.5978(4) -0.72022(18) -0.27567(15)
C3A C 1.7016(4) -0.69553(18) -0.34412(14)
H5A H 1.8163 -0.7301 -0.3558
C4A C 1.6328(4) -0.61936(18) -0.39440(14)
C5A C 1.4661(4) -0.56572(18) -0.37740(15)
H6A H 1.4229 -0.5132 -0.4112
C6A C 1.3649(4) -0.59130(18) -0.30963(15)
C7A C 1.4263(4) -0.66708(19) -0.25775(16)
H7A H 1.3561 -0.6829 -0.2118
C8A C 1.2063(4) -0.45542(18) -0.23895(15)
C9A C 1.4038(4) -0.39973(19) -0.19517(16)
H8A H 1.5323 -0.4234 -0.2042
C10A C 1.4104(4) -0.30846(19) -0.13766(16)
H9A H 1.5443 -0.2710 -0.1081
C11A C 1.2205(3) -0.27185(17) -0.12328(14)
C12A C 1.0234(4) -0.32925(19) -0.16747(16)
H10A H 0.8946 -0.3061 -0.1581
C13A C 1.0149(4) -0.42030(19) -0.22524(16)
H11A H 0.8812 -0.4580 -0.2549
C14A C 1.2251(4) -0.17277(17) -0.06336(14)
C15A C 1.7559(4) -0.67052(18) -0.52438(14)
C16A C 1.5817(4) -0.7463(2) -0.56205(16)
H12A H 1.4507 -0.7472 -0.5423
C17A C 1.5988(4) -0.8215(2) -0.62913(17)
H13A H 1.4778 -0.8715 -0.6561
C18A C 1.7956(4) -0.82335(19) -0.65701(14)
C19A C 1.9708(4) -0.7457(2) -0.61759(16)
H14A H 2.1039 -0.7455 -0.6355
C20A C 1.9499(4) -0.6689(2) -0.55206(17)
H15A H 2.0675 -0.6161 -0.5267
C21A C 1.8175(4) -0.90632(19) -0.72842(14)
O3A O 0.7499(2) -0.01876(12) -0.10783(9)
O3_2 O 0.2501(2) 1.01876(12) 0.10783(9)
O3A_2 O 1.7499(2) -1.01876(12) -0.10783(9)
O4A O 1.1861(2) 0.08209(12) -0.08609(9)
O4_2 O 0.8139(2) 0.91791(12) 0.08609(9)
O4_3 O -0.1861(2) 0.91791(12) 0.08609(9)
O4A_2 O 1.1861(2) -0.91791(12) -0.08609(9)
O4A_3 O 2.1861(2) -0.91791(12) -0.08609(9)
O5A O 1.5797(3) -0.81939(13) -0.15633(11)
O6A O 1.8174(3) -0.85181(15) -0.24266(12)
O7A O 1.1819(3) -0.54571(13) -0.29734(11)
O8A O 1.0482(2) -0.15059(12) -0.04763(10)
O9A O 1.4090(2) -0.11498(12) -0.03212(9)
O9A_2 O 0.4090(2) 0.88502(12) -0.03212(9)
O9_2 O 0.5910(2) 1.11498(12) 0.03212(9)
O9_3 O 1.5910(2) -0.88502(12) 0.03212(9)
O9A_3 O 1.4090(2) -1.11498(12) -0.03212(9)
O10A O 1.7397(3) -0.58908(12) -0.46097(10)
O11A O 1.6472(3) -0.95406(15) -0.77722(11)
O11A_2 O 0.6472(3) 1.04594(15) 0.22278(11)
O11_2 O 1.3528(3) -1.04594(15) -0.22278(11)
O12A O 2.0072(3) -0.92210(14) -0.73462(11)
O12A_2 O 0.0072(3) 1.07790(14) 0.26538(11)
O12_2 O 1.9928(3) -1.07790(14) -0.26538(11)
Zn2A Zn 1.47996(4) -0.95418(2) -0.100549(15)
Zn2_2 Zn 1.52004(4) -0.04582(2) 0.100549(15)
Zn2_3 Zn 0.52004(4) -0.04582(2) 0.100549(15)
Zn2A_2 Zn 0.47996(4) 0.04582(2) -0.100549(15)
Zn2A_3 Zn 0.47996(4) 1.04582(2) 0.899451(15)
Zn2A_4 Zn 1.47996(4) 0.04582(2) -0.100549(15)
Zn2_4 Zn 1.52004(4) -1.04582(2) -0.899451(15)
Zn3A Zn 1.94143(4) -0.96194(2) -0.186266(16)
Zn3_2 Zn 1.05857(4) -0.03806(2) 0.186266(16)
Zn3A_2 Zn -0.05857(4) 1.03806(2) 0.813734(16)
Zn3A_3 Zn 0.94143(4) 0.03806(2) -0.186266(16)
Zn3_3 Zn 2.05857(4) -1.03806(2) -0.813734(16)
O1 O 0.1995(9) 0.5248(5) 1.0250(4)
H1 H 0.2172 0.5915 1.0437
H2 H 0.0693 0.4966 1.0251
H16? H 0.2886 1.0859 0.1241
H17? H -0.2992 0.9450 0.0928
O13? O 0.0500(11) 0.4540(6) 0.9873(5)
H18? H 0.0847 0.4505 0.9370
H19? H 0.0687 0.5195 1.0097
O14? O 0.1664(14) 0.3074(8) 0.9363(6)
H20? H 0.2545 0.2717 0.9638
H21? H 0.0380 0.2736 0.9315
loop_
_geom_bond_atom_site_label_1
_geom_bond_atom_site_label_2
_geom_bond_site_symmetry_1
_geom_bond_site_symmetry_2
O1 H1 1_555 1_555
H2 O1 1_555 1_555
O2 H3 1_555 1_555
H4 O2 1_555 1_555
C1 C2 1_555 1_555
C2 C3 1_555 1_555
C3 H5 1_555 1_555
C4 C3 1_555 1_555
C5 C4 1_555 1_555
H6 C5 1_555 1_555
C6 C5 1_555 1_555
C7 C2 1_555 1_555
H7 C7 1_555 1_555
C8 C9 1_555 1_555
C9 H8 1_555 1_555
C10 C9 1_555 1_555
H9 C10 1_555 1_555
C11 C10 1_555 1_555
C12 C11 1_555 1_555
H10 C12 1_555 1_555
C13 C8 1_555 1_555
H11 C13 1_555 1_555
C14 C11 1_555 1_555
C15 C16 1_555 1_555
C16 H12 1_555 1_555
C17 C16 1_555 1_555
H13 C17 1_555 1_555
C18 C17 1_555 1_555
C19 C18 1_555 1_555
H14 C19 1_555 1_555
C20 C15 1_555 1_555
H15 C20 1_555 1_555
C21 C18 1_555 1_555
O3 Zn1 1_555 1_555
O4 Zn1 1_555 1_555
O5 C1 1_555 1_555
O6 C1 1_555 1_555
O7 C6 1_555 1_555
O8 C14 1_555 1_555
O9 C14 1_555 1_555
O10 C4 1_555 1_555
O11 C21 1_555 1_555
O12 C21 1_555 1_555
Zn1 O8 1_555 1_555
Zn2 O5 1_555 1_555
Zn3 O6 1_555 1_555
C1A C2A 1_555 1_555
C2A C3A 1_555 1_555
C3A H5A 1_555 1_555
C4A C3A 1_555 1_555
C5A C4A 1_555 1_555
H6A C5A 1_555 1_555
C6A C5A 1_555 1_555
C7A C2A 1_555 1_555
H7A C7A 1_555 1_555
C8A C9A 1_555 1_555
C9A H8A 1_555 1_555
C10A C9A 1_555 1_555
H9A C10A 1_555 1_555
C11A C10A 1_555 1_555
C12A C11A 1_555 1_555
H10A C12A 1_555 1_555
C13A C8A 1_555 1_555
H11A C13A 1_555 1_555
C14A C11A 1_555 1_555
C15A C16A 1_555 1_555
C16A H12A 1_555 1_555
C17A C16A 1_555 1_555
H13A C17A 1_555 1_555
C18A C17A 1_555 1_555
C19A C18A 1_555 1_555
H14A C19A 1_555 1_555
C20A C15A 1_555 1_555
H15A C20A 1_555 1_555
C21A C18A 1_555 1_555
O3A Zn1 1_555 1_555
O3_2 Zn2 1_555 1_555
O3A_2 Zn2A 1_555 1_555
O4A Zn1 1_555 1_555
O4_2 Zn2 1_555 1_555
O4_3 Zn3 1_555 1_555
O4A_2 Zn2A 1_555 1_555
O4A_3 Zn3A 1_555 1_555
O5A C1A 1_555 1_555
O6A C1A 1_555 1_555
O7A C6A 1_555 1_555
O8A Zn1 1_555 1_555
O9A C14A 1_555 1_555
O9A_2 Zn2 1_555 1_555
O9_2 Zn2 1_555 1_555
O9_3 Zn2A 1_555 1_555
O9A_3 Zn2A 1_555 1_555
O10A C4A 1_555 1_555
O11A C21A 1_555 1_555
O11A_2 Zn2 1_555 1_555
O11_2 Zn2A 1_555 1_555
O12A C21A 1_555 1_555
O12A_2 Zn3 1_555 1_555
O12_2 Zn3A 1_555 1_555
Zn2A O5A 1_555 1_555
Zn2_2 O3 1_555 1_555
Zn2_3 O4 1_555 1_555
Zn2A_2 O9 1_555 1_555
Zn2A_3 O11 1_555 1_555
Zn2A_4 O4A 1_555 1_555
Zn2_4 O11A 1_555 1_555
Zn3A O3A_2 1_555 1_555
Zn3_2 O3 1_555 1_555
Zn3A_2 O12 1_555 1_555
Zn3A_3 O3A 1_555 1_555
Zn3_3 O12A 1_555 1_555
C6 C7 1_555 1_555
C8 O7 1_555 1_555
C12 C13 1_555 1_555
C15 O10 1_555 1_555
C19 C20 1_555 1_555
O4 Zn3_2 1_555 1_555
O9 Zn2_3 1_555 1_555
Zn3 O3_2 1_555 1_555
C6A C7A 1_555 1_555
C8A O7A 1_555 1_555
C12A C13A 1_555 1_555
C14A O8A 1_555 1_555
C15A O10A 1_555 1_555
C19A C20A 1_555 1_555
O3A Zn2A_2 1_555 1_555
O4A Zn3A_3 1_555 1_555
O6A Zn3A 1_555 1_555
O9A Zn2_2 1_555 1_555
O9A Zn2A_4 1_555 1_555

#END
