
#######################################################################
#
#                 Cambridge Crystallographic Data Centre
#                                CCDC 
#
#######################################################################
#
# If this CIF has been generated from an entry in the Cambridge 
# Structural Database, then it will include bibliographic, chemical, 
# crystal, experimental, refinement or atomic coordinate data resulting 
# from the CCDC's data processing and validation procedures.
#
#######################################################################

data_XEQLEM
_symmetry_cell_setting           monoclinic
_symmetry_space_group_name_H-M   'P 21'
_symmetry_Int_Tables_number      4
_space_group_name_Hall           'P 2yb'
loop_
_symmetry_equiv_pos_site_id
_symmetry_equiv_pos_as_xyz
1 x,y,z
2 -x,1/2+y,-z
_cell_length_a                   9.8836(4)
_cell_length_b                   12.8681(4)
_cell_length_c                   10.9817(4)
_cell_angle_alpha                90
_cell_angle_beta                 99.384(3)
_cell_angle_gamma                90
_cell_volume                     1378
loop_
_atom_site_label
_atom_site_type_symbol
_atom_site_fract_x
_atom_site_fract_y
_atom_site_fract_z
Mg1 Mg 0.3721(3) 0.2349(3) 0.2503(3)
Mg2 Mg -0.1250(3) 0.2357(3) 0.2474(3)
O1 O 0.2040(5) 0.2805(6) 0.1337(5)
O2 O -0.0176(6) 0.3168(6) 0.1353(6)
O3 O 0.2646(6) 0.1491(6) 0.3576(5)
O4 O 0.0503(6) 0.1936(6) 0.3713(5)
O5 O 0.5471(6) 0.1927(6) 0.3700(6)
O6 O 0.7638(6) 0.1542(6) 0.3590(6)
O7 O 0.4850(6) 0.3246(6) 0.1460(5)
O8 O 0.6974(5) 0.2725(6) 0.1288(5)
N1 N 0.1119(8) 0.5949(7) -0.1398(7)
N2 N 0.1364(7) -0.1191(7) 0.6445(6)
N3 N 0.6364(7) -0.1242(7) 0.6322(6)
N4 N 0.6165(8) 0.5976(7) -0.1305(7)
C1 C 0.0965(8) 0.3339(9) 0.1010(7)
C2 C 0.1043(8) 0.4236(9) 0.0159(7)
C3 C -0.0153(7) 0.4804(8) -0.0318(7)
H1 H -0.0995 0.4612 -0.0115
C4 C -0.0069(8) 0.5638(8) -0.1079(7)
H2 H -0.0865 0.6001 -0.1386
C5 C 0.2255(8) 0.4541(8) -0.0226(7)
H3 H 0.3066 0.4179 0.0029
C6 C 0.2233(8) 0.5387(8) -0.0988(7)
H4 H 0.3052 0.5582 -0.1236
C7 C 0.1529(8) 0.1410(8) 0.3971(7)
C8 C 0.1509(8) 0.0521(8) 0.4879(7)
C9 C 0.0286(7) 0.0274(8) 0.5286(7)
H5 H -0.0504 0.0663 0.5039
C10 C 0.0278(8) -0.0574(8) 0.6075(8)
H6 H -0.0534 -0.0722 0.6365
C11 C 0.2635(7) -0.0075(8) 0.5276(7)
H7 H 0.3464 0.0074 0.5018
C12 C 0.2542(8) -0.0903(8) 0.6065(7)
H8 H 0.3333 -0.1281 0.6348
C13 C 0.6518(8) 0.1407(8) 0.3930(7)
C14 C 0.6495(8) 0.0477(8) 0.4779(8)
C15 C 0.6296(9) 0.0586(8) 0.5953(7)
H9 H 0.6161 0.1243 0.6264
C16 C 0.6292(9) -0.0286(8) 0.6706(8)
H10 H 0.6234 -0.0181 0.7534
C17 C 0.6564(9) -0.0537(8) 0.4328(7)
H11 H 0.6669 -0.0648 0.3512
C18 C 0.6478(9) -0.1346(8) 0.5081(7)
H12 H 0.6495 -0.2013 0.4756
C19 C 0.5964(8) 0.3345(9) 0.1065(7)
C20 C 0.6077(8) 0.4257(8) 0.0241(8)
C21 C 0.6096(10) 0.5267(8) 0.0694(7)
H13 H 0.6071 0.5389 0.1524
C22 C 0.6154(9) 0.6102(8) -0.0120(7)
H14 H 0.6185 0.6774 0.0195
C23 C 0.6068(9) 0.4153(8) -0.0999(7)
H15 H 0.6018 0.3494 -0.1351
C24 C 0.6133(8) 0.5023(8) -0.1743(7)
H16 H 0.6155 0.4927 -0.2579
Mg1A Mg 0.6279(3) -0.2651(3) 0.7497(3)
Mg1A_2 Mg 0.6279(3) 0.7349(3) -0.2503(3)
Mg2_2 Mg 0.8750(3) 0.2357(3) 0.2474(3)
Mg2A Mg 0.1250(3) 0.7357(3) -0.2474(3)
Mg2A_2 Mg 0.1250(3) -0.2643(3) 0.7526(3)
O6_2 O -0.2362(6) 0.1542(6) 0.3590(6)
O8_2 O -0.3026(5) 0.2725(6) 0.1288(5)
N1A N -0.1119(8) 0.0949(7) 0.1398(7)
N2A N -0.1364(7) 0.3809(7) 0.3555(6)
N3A N 0.3636(7) 0.3758(7) 0.3678(6)
N4A N 0.3835(8) 0.0976(7) 0.1305(7)
O9 O 0.2496(11) 0.2417(11) -0.2532(10)
O10 O 0.0262(12) 0.2461(12) -0.2550(10)
loop_
_geom_bond_atom_site_label_1
_geom_bond_atom_site_label_2
_geom_bond_site_symmetry_1
_geom_bond_site_symmetry_2
Mg1 O1 1_555 1_555
Mg2 O2 1_555 1_555
O1 C1 1_555 1_555
O2 C1 1_555 1_555
O3 Mg1 1_555 1_555
O4 Mg2 1_555 1_555
O5 Mg1 1_555 1_555
O6 C13 1_555 1_555
O7 Mg1 1_555 1_555
O8 C19 1_555 1_555
N1 C4 1_555 1_555
N2 C10 1_555 1_555
N3 C16 1_555 1_555
N4 C22 1_555 1_555
C1 C2 1_555 1_555
C2 C3 1_555 1_555
C3 H1 1_555 1_555
C4 C3 1_555 1_555
H2 C4 1_555 1_555
C5 C2 1_555 1_555
H3 C5 1_555 1_555
C6 N1 1_555 1_555
H4 C6 1_555 1_555
C7 O3 1_555 1_555
C8 C7 1_555 1_555
C9 C8 1_555 1_555
H5 C9 1_555 1_555
C10 C9 1_555 1_555
H6 C10 1_555 1_555
C11 C8 1_555 1_555
H7 C11 1_555 1_555
C12 N2 1_555 1_555
H8 C12 1_555 1_555
C13 O5 1_555 1_555
C14 C13 1_555 1_555
C15 C14 1_555 1_555
H9 C15 1_555 1_555
C16 C15 1_555 1_555
H10 C16 1_555 1_555
C17 C14 1_555 1_555
H11 C17 1_555 1_555
C18 N3 1_555 1_555
H12 C18 1_555 1_555
C19 O7 1_555 1_555
C20 C19 1_555 1_555
C21 C20 1_555 1_555
H13 C21 1_555 1_555
C22 C21 1_555 1_555
H14 C22 1_555 1_555
C23 C20 1_555 1_555
H15 C23 1_555 1_555
C24 N4 1_555 1_555
H16 C24 1_555 1_555
Mg1A N3 1_555 1_555
Mg1A_2 N4 1_555 1_555
Mg2_2 O6 1_555 1_555
Mg2A N1 1_555 1_555
Mg2A_2 N2 1_555 1_555
O6_2 Mg2 1_555 1_555
O8_2 Mg2 1_555 1_555
N1A Mg2 1_555 1_555
N2A Mg2 1_555 1_555
N3A Mg1 1_555 1_555
N4A Mg1 1_555 1_555
O4 C7 1_555 1_555
O8 Mg2_2 1_555 1_555
C5 C6 1_555 1_555
C11 C12 1_555 1_555
C17 C18 1_555 1_555
C23 C24 1_555 1_555

#END
