
#######################################################################
#
#                 Cambridge Crystallographic Data Centre
#                                CCDC 
#
#######################################################################
#
# If this CIF has been generated from an entry in the Cambridge 
# Structural Database, then it will include bibliographic, chemical, 
# crystal, experimental, refinement or atomic coordinate data resulting 
# from the CCDC's data processing and validation procedures.
#
#######################################################################

data_XEWFAI
_symmetry_cell_setting           triclinic
_symmetry_space_group_name_H-M   'P -1'
_symmetry_Int_Tables_number      2
_space_group_name_Hall           '-P 1'
loop_
_symmetry_equiv_pos_site_id
_symmetry_equiv_pos_as_xyz
1 x,y,z
2 -x,-y,-z
_cell_length_a                   8.619(2)
_cell_length_b                   17.818(6)
_cell_length_c                   18.385(6)
_cell_angle_alpha                95.672(14)
_cell_angle_beta                 102.223(10)
_cell_angle_gamma                101.053(10)
_cell_volume                     2679.49
loop_
_atom_site_label
_atom_site_type_symbol
_atom_site_fract_x
_atom_site_fract_y
_atom_site_fract_z
Eu1 Eu -0.05711(2) 0.226423(10) 0.856823(11)
Zn1 Zn 0.5000 0.5000 1.0000
Zn2 Zn 0.0000 0.0000 0.5000
Zn3 Zn 0.5000 0.0000 1.0000
O1 O -0.3406(4) 0.1752(2) 0.77621(19)
O2 O 0.0865(4) 0.28591(18) 0.98698(18)
O3 O 0.1258(4) 0.34663(16) 0.84860(17)
O4 O 0.3065(3) 0.40248(15) 0.95504(17)
O5 O 0.7392(4) 0.26214(16) 0.92698(17)
O6 O 0.7982(4) 0.33494(18) 0.8441(2)
O7 O -0.0398(4) 0.22205(17) 0.72507(17)
O8 O -0.0711(4) 0.10704(17) 0.76083(18)
O9 O 0.0911(7) 0.2230(3) 0.4590(3)
O10 O -0.0409(4) 0.10587(19) 0.46657(19)
O11 O 0.1957(3) 0.19243(17) 0.87752(17)
O12 O 0.3801(4) 0.20739(17) 0.80824(17)
O13 O 0.8713(4) 0.11925(16) 0.91848(18)
O14 O 0.6657(3) 0.02791(16) 0.92951(16)
N1 N 0.4038(4) 0.53497(18) 0.8963(2)
N2 N 0.6725(4) 0.44195(19) 0.9538(2)
N3 N -0.0204(5) 0.0391(2) 0.6177(2)
N4 N 0.2433(5) 0.0585(2) 0.5193(2)
N5 N 0.3481(4) 0.07974(19) 0.9532(2)
N6 N 0.6776(4) 0.08906(18) 1.07466(19)
C1 C 0.2351(5) 0.4003(2) 0.8863(2)
C2 C 0.2884(5) 0.4679(2) 0.8465(2)
H1 H 0.3390 0.4502 0.8076
H2 H 0.1927 0.4848 0.8220
C3 C 0.5342(6) 0.5699(3) 0.8608(3)
H3 H 0.5983 0.6167 0.8932
H4 H 0.4839 0.5849 0.8136
C4 C 0.6483(6) 0.5183(3) 0.8452(3)
H5 H 0.5825 0.4708 0.8146
H6 H 0.7163 0.5437 0.8151
C5 C 0.7577(6) 0.4967(3) 0.9109(3)
H7 H 0.8381 0.4736 0.8929
H8 H 0.8153 0.5435 0.9450
C6 C 0.7835(5) 0.4331(2) 1.0258(3)
H9 H 0.8576 0.4822 1.0473
H10 H 0.8476 0.3959 1.0154
C7 C 0.3143(6) 0.5941(2) 0.9181(3)
H11 H 0.2415 0.6035 0.8736
H12 H 0.3912 0.6423 0.9403
C8 C 0.5972(5) 0.3646(2) 0.9086(3)
H13 H 0.5295 0.3715 0.8614
H14 H 0.5269 0.3353 0.9355
C9 C 0.7190(5) 0.3179(2) 0.8914(3)
C10 C -0.0490(5) 0.1506(3) 0.7124(3)
C11 C -0.0335(6) 0.1194(3) 0.6331(3)
H15 H -0.1275 0.1264 0.5969
H16 H 0.0615 0.1519 0.6233
C12 C 0.1227(6) 0.0234(3) 0.6705(3)
H17 H 0.1215 -0.0314 0.6617
H18 H 0.1129 0.0356 0.7217
C13 C 0.2876(6) 0.0701(3) 0.6622(3)
H19 H 0.2814 0.1240 0.6638
H20 H 0.3710 0.0665 0.7056
C14 C 0.3427(6) 0.0459(3) 0.5915(3)
H21 H 0.4537 0.0740 0.5970
H22 H 0.3440 -0.0086 0.5886
C15 C 0.2987(6) 0.0232(3) 0.4554(3)
H23 H 0.3171 -0.0274 0.4646
H24 H 0.4013 0.0550 0.4523
C16 C 0.2513(7) 0.1414(3) 0.5156(3)
H25 H 0.3325 0.1603 0.4886
H26 H 0.2853 0.1696 0.5663
C17 C 0.0880(8) 0.1572(3) 0.4767(3)
C18 C -0.1744(6) -0.0151(3) 0.6196(3)
H27 H -0.2178 0.0044 0.6604
H28 H -0.1525 -0.0653 0.6284
C19 C 0.3187(5) 0.1792(2) 0.8579(2)
C20 C 0.4150(5) 0.1251(2) 0.8994(2)
H29 H 0.4346 0.0887 0.8613
H30 H 0.5203 0.1564 0.9263
C21 C 0.3264(5) 0.1309(2) 1.0180(2)
H31 H 0.2730 0.0989 1.0492
H32 H 0.2552 0.1641 0.9988
C22 C 0.4857(6) 0.1817(2) 1.0674(3)
H33 H 0.5442 0.2087 1.0346
H34 H 0.4576 0.2206 1.1000
C23 C 0.6019(6) 0.1428(2) 1.1165(2)
H35 H 0.6882 0.1826 1.1492
H36 H 0.5436 0.1141 1.1482
C24 C 0.7686(5) 0.0461(2) 1.1287(2)
H37 H 0.7040 0.0293 1.1638
H38 H 0.8694 0.0801 1.1573
C25 C 0.7871(5) 0.1299(2) 1.0330(2)
H39 H 0.8983 0.1370 1.0618
H40 H 0.7644 0.1808 1.0288
C26 C 0.7730(5) 0.0890(2) 0.9549(2)
C27 C 0.1936(5) 0.0250(2) 0.9138(3)
H41 H 0.1286 0.0504 0.8785
H42 H 0.1318 0.0086 0.9500
O3A O 0.8742(4) 0.65337(16) 1.15140(17)
O4A O 0.6935(3) 0.59752(15) 1.04496(17)
O5A O 0.2608(4) 0.73786(16) 1.07302(17)
O6A O 0.2018(4) 0.66506(18) 1.1559(2)
N1A N 0.5962(4) 0.46503(18) 1.1037(2)
N2A N 0.3275(4) 0.55805(19) 1.0462(2)
C1A C 0.7649(5) 0.5997(2) 1.1137(2)
C2A C 0.7116(5) 0.5321(2) 1.1535(2)
H1A H 0.6610 0.5498 1.1924
H2A H 0.8073 0.5152 1.1780
C3A C 0.4658(6) 0.4301(3) 1.1392(3)
H3A H 0.4017 0.3833 1.1068
H4A H 0.5161 0.4151 1.1864
C4A C 0.3517(6) 0.4817(3) 1.1548(3)
H5A H 0.4175 0.5292 1.1854
H6A H 0.2837 0.4563 1.1849
C5A C 0.2423(6) 0.5033(3) 1.0891(3)
H7A H 0.1619 0.5264 1.1071
H8A H 0.1847 0.4565 1.0550
C6A C 0.2165(5) 0.5669(2) 0.9742(3)
H9A H 0.1424 0.5178 0.9527
H10A H 0.1524 0.6041 0.9846
C7A C 0.6857(6) 0.4059(2) 1.0819(3)
H11A H 0.7585 0.3965 1.1264
H12A H 0.6088 0.3577 1.0597
C8A C 0.4028(5) 0.6354(2) 1.0914(3)
H13A H 0.4705 0.6285 1.1386
H14A H 0.4731 0.6647 1.0645
C9A C 0.2810(5) 0.6821(2) 1.1086(3)
O7A O 0.0398(4) -0.22205(17) 0.27493(17)
O8A O 0.0711(4) -0.10704(17) 0.23917(18)
O9A O -0.0911(7) -0.2230(3) 0.5410(3)
O10A O 0.0409(4) -0.10587(19) 0.53343(19)
N3A N 0.0204(5) -0.0391(2) 0.3823(2)
N4A N -0.2433(5) -0.0585(2) 0.4807(2)
C10A C 0.0490(5) -0.1506(3) 0.2876(3)
C11A C 0.0335(6) -0.1194(3) 0.3669(3)
H15A H 0.1275 -0.1264 0.4031
H16A H -0.0615 -0.1519 0.3767
C12A C -0.1227(6) -0.0234(3) 0.3295(3)
H17A H -0.1215 0.0314 0.3383
H18A H -0.1129 -0.0356 0.2783
C13A C -0.2876(6) -0.0701(3) 0.3378(3)
H19A H -0.2814 -0.1240 0.3362
H20A H -0.3710 -0.0665 0.2944
C14A C -0.3427(6) -0.0459(3) 0.4085(3)
H21A H -0.4537 -0.0740 0.4030
H22A H -0.3440 0.0086 0.4114
C15A C -0.2987(6) -0.0232(3) 0.5446(3)
H23A H -0.3171 0.0274 0.5354
H24A H -0.4013 -0.0550 0.5477
C16A C -0.2513(7) -0.1414(3) 0.4844(3)
H25A H -0.3325 -0.1603 0.5114
H26A H -0.2853 -0.1696 0.4337
C17A C -0.0880(8) -0.1572(3) 0.5233(3)
C18A C 0.1744(6) 0.0151(3) 0.3804(3)
H27A H 0.2178 -0.0044 0.3396
H28A H 0.1525 0.0653 0.3716
O11A O 0.8043(3) -0.19243(17) 1.12248(17)
O12A O 0.6199(4) -0.20739(17) 1.19176(17)
O13A O 0.1287(4) -0.11925(16) 1.08152(18)
O14A O 0.3343(3) -0.02791(16) 1.07049(16)
N5A N 0.6519(4) -0.07974(19) 1.0468(2)
N6A N 0.3224(4) -0.08906(18) 0.92534(19)
C19A C 0.6813(5) -0.1792(2) 1.1421(2)
C20A C 0.5850(5) -0.1251(2) 1.1006(2)
H29A H 0.5654 -0.0887 1.1387
H30A H 0.4797 -0.1564 1.0737
C21A C 0.6736(5) -0.1309(2) 0.9820(2)
H31A H 0.7270 -0.0989 0.9508
H32A H 0.7448 -0.1641 1.0012
C22A C 0.5143(6) -0.1817(2) 0.9326(3)
H33A H 0.4558 -0.2087 0.9654
H34A H 0.5424 -0.2206 0.9000
C23A C 0.3981(6) -0.1428(2) 0.8835(2)
H35A H 0.3118 -0.1826 0.8508
H36A H 0.4564 -0.1141 0.8518
C24A C 0.2314(5) -0.0461(2) 0.8713(2)
H37A H 0.2960 -0.0293 0.8362
H38A H 0.1306 -0.0801 0.8427
C25A C 0.2129(5) -0.1299(2) 0.9670(2)
H39A H 0.1017 -0.1370 0.9382
H40A H 0.2356 -0.1808 0.9712
C26A C 0.2270(5) -0.0890(2) 1.0451(2)
C27A C 0.8064(5) -0.0250(2) 1.0862(3)
H41A H 0.8714 -0.0504 1.1215
H42A H 0.8682 -0.0086 1.0500
Eu1A Eu 0.05711(2) -0.226423(10) 0.143177(11)
O1A O 0.3406(4) -0.1752(2) 0.22379(19)
O2A O -0.0865(4) -0.28591(18) 0.01302(18)
Eu1_2 Eu 0.94289(2) 0.226423(10) 0.856823(11)
Eu1A_2 Eu 0.05711(2) -0.226423(10) 1.143177(11)
Eu1A_3 Eu 0.05711(2) 0.773577(10) 1.143177(11)
Eu1A_4 Eu 1.05711(2) -0.226423(10) 1.143177(11)
Eu1A_5 Eu 1.05711(2) 0.773577(10) 1.143177(11)
O3A_2 O -0.1258(4) -0.34663(16) 0.15140(17)
O5_2 O -0.2608(4) 0.26214(16) 0.92698(17)
O5A_2 O 0.2608(4) -0.26214(16) 0.07302(17)
O6_2 O -0.2018(4) 0.33494(18) 0.8441(2)
O6A_2 O 0.2018(4) -0.33494(18) 0.1559(2)
O11A_2 O -0.1957(3) -0.19243(17) 0.12248(17)
O13_2 O -0.1287(4) 0.11925(16) 0.91848(18)
O13A_2 O 0.1287(4) -0.11925(16) 0.08152(18)
loop_
_geom_bond_atom_site_label_1
_geom_bond_atom_site_label_2
_geom_bond_site_symmetry_1
_geom_bond_site_symmetry_2
Eu1 O1 1_555 1_555
Zn1 O4 1_555 1_555
Zn2 O10 1_555 1_555
Zn3 O14 1_555 1_555
O2 Eu1 1_555 1_555
O3 Eu1 1_555 1_555
O4 C1 1_555 1_555
O5 C9 1_555 1_555
O6 C9 1_555 1_555
O7 Eu1 1_555 1_555
O8 Eu1 1_555 1_555
O9 C17 1_555 1_555
O10 C17 1_555 1_555
O11 Eu1 1_555 1_555
O12 C19 1_555 1_555
O13 C26 1_555 1_555
O14 C26 1_555 1_555
N1 Zn1 1_555 1_555
N2 Zn1 1_555 1_555
N3 Zn2 1_555 1_555
N4 Zn2 1_555 1_555
N5 Zn3 1_555 1_555
N6 Zn3 1_555 1_555
C1 O3 1_555 1_555
C2 N1 1_555 1_555
H1 C2 1_555 1_555
H2 C2 1_555 1_555
C3 N1 1_555 1_555
H3 C3 1_555 1_555
H4 C3 1_555 1_555
C4 C3 1_555 1_555
H5 C4 1_555 1_555
H6 C4 1_555 1_555
C5 N2 1_555 1_555
H7 C5 1_555 1_555
H8 C5 1_555 1_555
C6 N2 1_555 1_555
H9 C6 1_555 1_555
H10 C6 1_555 1_555
C7 N1 1_555 1_555
H11 C7 1_555 1_555
H12 C7 1_555 1_555
C8 N2 1_555 1_555
H13 C8 1_555 1_555
H14 C8 1_555 1_555
C9 C8 1_555 1_555
C10 O7 1_555 1_555
C11 N3 1_555 1_555
H15 C11 1_555 1_555
H16 C11 1_555 1_555
C12 N3 1_555 1_555
H17 C12 1_555 1_555
H18 C12 1_555 1_555
C13 C12 1_555 1_555
H19 C13 1_555 1_555
H20 C13 1_555 1_555
C14 N4 1_555 1_555
H21 C14 1_555 1_555
H22 C14 1_555 1_555
C15 N4 1_555 1_555
H23 C15 1_555 1_555
H24 C15 1_555 1_555
C16 N4 1_555 1_555
H25 C16 1_555 1_555
H26 C16 1_555 1_555
C17 C16 1_555 1_555
C18 N3 1_555 1_555
H27 C18 1_555 1_555
H28 C18 1_555 1_555
C19 O11 1_555 1_555
C20 N5 1_555 1_555
H29 C20 1_555 1_555
H30 C20 1_555 1_555
C21 N5 1_555 1_555
H31 C21 1_555 1_555
H32 C21 1_555 1_555
C22 C21 1_555 1_555
H33 C22 1_555 1_555
H34 C22 1_555 1_555
C23 N6 1_555 1_555
H35 C23 1_555 1_555
H36 C23 1_555 1_555
C24 N6 1_555 1_555
H37 C24 1_555 1_555
H38 C24 1_555 1_555
C25 N6 1_555 1_555
H39 C25 1_555 1_555
H40 C25 1_555 1_555
C26 C25 1_555 1_555
C27 N5 1_555 1_555
H41 C27 1_555 1_555
H42 C27 1_555 1_555
O3A C1A 1_555 1_555
O4A Zn1 1_555 1_555
O5A C9A 1_555 1_555
O6A C9A 1_555 1_555
N1A Zn1 1_555 1_555
N2A Zn1 1_555 1_555
C1A O4A 1_555 1_555
C2A N1A 1_555 1_555
H1A C2A 1_555 1_555
H2A C2A 1_555 1_555
C3A N1A 1_555 1_555
H3A C3A 1_555 1_555
H4A C3A 1_555 1_555
C4A C3A 1_555 1_555
H5A C4A 1_555 1_555
H6A C4A 1_555 1_555
C5A N2A 1_555 1_555
H7A C5A 1_555 1_555
H8A C5A 1_555 1_555
C6A C7 1_555 1_555
H9A C6A 1_555 1_555
H10A C6A 1_555 1_555
C7A C6 1_555 1_555
H11A C7A 1_555 1_555
H12A C7A 1_555 1_555
C8A N2A 1_555 1_555
H13A C8A 1_555 1_555
H14A C8A 1_555 1_555
C9A C8A 1_555 1_555
O7A C10A 1_555 1_555
O8A C10A 1_555 1_555
O9A C17A 1_555 1_555
O10A Zn2 1_555 1_555
N3A Zn2 1_555 1_555
N4A Zn2 1_555 1_555
C10A C11A 1_555 1_555
C11A N3A 1_555 1_555
H15A C11A 1_555 1_555
H16A C11A 1_555 1_555
C12A N3A 1_555 1_555
H17A C12A 1_555 1_555
H18A C12A 1_555 1_555
C13A C12A 1_555 1_555
H19A C13A 1_555 1_555
H20A C13A 1_555 1_555
C14A N4A 1_555 1_555
H21A C14A 1_555 1_555
H22A C14A 1_555 1_555
C15A C18 1_555 1_555
H23A C15A 1_555 1_555
H24A C15A 1_555 1_555
C16A N4A 1_555 1_555
H25A C16A 1_555 1_555
H26A C16A 1_555 1_555
C17A O10A 1_555 1_555
C18A C15 1_555 1_555
H27A C18A 1_555 1_555
H28A C18A 1_555 1_555
O11A C19A 1_555 1_555
O12A C19A 1_555 1_555
O13A C26A 1_555 1_555
O14A Zn3 1_555 1_555
N5A Zn3 1_555 1_555
N6A Zn3 1_555 1_555
C19A C20A 1_555 1_555
C20A N5A 1_555 1_555
H29A C20A 1_555 1_555
H30A C20A 1_555 1_555
C21A N5A 1_555 1_555
H31A C21A 1_555 1_555
H32A C21A 1_555 1_555
C22A C21A 1_555 1_555
H33A C22A 1_555 1_555
H34A C22A 1_555 1_555
C23A N6A 1_555 1_555
H35A C23A 1_555 1_555
H36A C23A 1_555 1_555
C24A C27 1_555 1_555
H37A C24A 1_555 1_555
H38A C24A 1_555 1_555
C25A N6A 1_555 1_555
H39A C25A 1_555 1_555
H40A C25A 1_555 1_555
C26A O14A 1_555 1_555
C27A C24 1_555 1_555
H41A C27A 1_555 1_555
H42A C27A 1_555 1_555
Eu1A O7A 1_555 1_555
O1A Eu1A 1_555 1_555
O2A Eu1A 1_555 1_555
Eu1_2 O5 1_555 1_555
Eu1A_2 O13A 1_555 1_555
Eu1A_3 O5A 1_555 1_555
Eu1A_4 O11A 1_555 1_555
Eu1A_5 O3A 1_555 1_555
O3A_2 Eu1A 1_555 1_555
O5_2 Eu1 1_555 1_555
O5A_2 Eu1A 1_555 1_555
O6_2 Eu1 1_555 1_555
O6A_2 Eu1A 1_555 1_555
O11A_2 Eu1A 1_555 1_555
O13_2 Eu1 1_555 1_555
O13A_2 Eu1A 1_555 1_555
O6 Eu1_2 1_555 1_555
O8 C10 1_555 1_555
O13 Eu1_2 1_555 1_555
C1 C2 1_555 1_555
C4 C5 1_555 1_555
C10 C11 1_555 1_555
C13 C14 1_555 1_555
C19 C20 1_555 1_555
C22 C23 1_555 1_555
O6A Eu1A_3 1_555 1_555
N1A C7A 1_555 1_555
N2A C6A 1_555 1_555
C1A C2A 1_555 1_555
C4A C5A 1_555 1_555
O8A Eu1A 1_555 1_555
N3A C18A 1_555 1_555
N4A C15A 1_555 1_555
C13A C14A 1_555 1_555
C16A C17A 1_555 1_555
N5A C27A 1_555 1_555
N6A C24A 1_555 1_555
C22A C23A 1_555 1_555
C25A C26A 1_555 1_555

#END
