
#######################################################################
#
#                 Cambridge Crystallographic Data Centre
#                                CCDC 
#
#######################################################################
#
# If this CIF has been generated from an entry in the Cambridge 
# Structural Database, then it will include bibliographic, chemical, 
# crystal, experimental, refinement or atomic coordinate data resulting 
# from the CCDC's data processing and validation procedures.
#
#######################################################################

data_XEXLET
_symmetry_cell_setting           monoclinic
_symmetry_space_group_name_H-M   'P 21/n'
_symmetry_Int_Tables_number      14
_space_group_name_Hall           '-P 2yn'
loop_
_symmetry_equiv_pos_site_id
_symmetry_equiv_pos_as_xyz
1 x,y,z
2 1/2-x,1/2+y,1/2-z
3 -x,-y,-z
4 1/2+x,1/2-y,1/2+z
_cell_length_a                   4.9738(5)
_cell_length_b                   24.836(3)
_cell_length_c                   20.663(2)
_cell_angle_alpha                90
_cell_angle_beta                 95.903(3)
_cell_angle_gamma                90
_cell_volume                     2538.95
loop_
_atom_site_label
_atom_site_type_symbol
_atom_site_fract_x
_atom_site_fract_y
_atom_site_fract_z
Cd1 Cd 0.32280(7) -0.042362(13) 0.440505(17)
O1 O -0.0568(7) -0.01743(14) 0.37813(18)
O2 O -0.4974(7) 0.00155(14) 0.36211(18)
O3 O 0.2822(7) 0.04105(13) 0.48795(16)
O4 O -0.1286(7) 0.07872(14) 0.47595(17)
O5 O -0.2363(9) 0.19706(17) 0.1366(2)
O6 O 0.4831(9) 0.25722(17) 0.2697(2)
N1 N 0.1278(9) 0.37373(17) 0.1013(2)
C1 C -0.0400(15) 0.3666(3) 0.1464(4)
H1 H -0.1566 0.3953 0.1554
C2 C -0.0529(15) 0.3193(3) 0.1810(4)
H2 H -0.1756 0.3156 0.2130
C3 C 0.1139(11) 0.2781(2) 0.1682(3)
C4 C 0.2773(15) 0.2830(3) 0.1199(4)
H3 H 0.3865 0.2540 0.1081
C5 C 0.2785(15) 0.3324(2) 0.0883(3)
H4 H 0.3959 0.3365 0.0551
N2 N 0.1094(9) 0.22919(18) 0.2059(2)
C6 C -0.0923(11) 0.1913(2) 0.1873(3)
C7 C -0.1188(11) 0.1460(2) 0.2328(3)
C8 C 0.0476(10) 0.14263(19) 0.2923(3)
C9 C 0.2578(10) 0.1808(2) 0.3067(3)
C10 C 0.2993(11) 0.2244(2) 0.2611(3)
C11 C -0.3192(12) 0.1090(2) 0.2173(3)
H5 H -0.4311 0.1118 0.1773
C12 C -0.3590(11) 0.0669(2) 0.2606(3)
H6 H -0.4977 0.0412 0.2494
C13 C -0.2001(10) 0.0620(2) 0.3196(3)
C14 C 0.0049(10) 0.10150(19) 0.3384(2)
C15 C 0.1665(9) 0.10281(19) 0.3997(2)
C16 C 0.3724(10) 0.1399(2) 0.4113(3)
H7 H 0.4821 0.1395 0.4518
C17 C 0.4214(11) 0.1783(2) 0.3641(3)
H8 H 0.5686 0.2026 0.3720
C18 C -0.2528(10) 0.01195(19) 0.3576(2)
C19 C 0.1012(9) 0.07073(19) 0.4580(2)
Cd1_2 Cd -0.67720(7) -0.042362(13) 0.440505(17)
Cd1A Cd 0.17720(7) 0.457638(13) 0.059495(17)
Cd1B Cd -0.32280(7) 0.042362(13) 0.559495(17)
Cd1B_2 Cd 0.67720(7) 0.042362(13) 0.559495(17)
O2_2 O 0.5026(7) 0.00155(14) 0.36211(18)
O3B O 0.7178(7) -0.04105(13) 0.51205(16)
O4B O 0.1286(7) -0.07872(14) 0.52405(17)
N1A N 0.3722(9) -0.12627(17) 0.3987(2)
O7 O 0.854(5) 0.2614(10) 0.4646(11)
N3 N 0.474(4) 0.3115(9) 0.4210(10)
C20 C 0.914(8) 0.3204(13) 0.3752(13)
H9 H 1.0700 0.3399 0.3967
H10 H 0.7982 0.3455 0.3485
H11 H 0.9778 0.2921 0.3475
C21 C 0.759(4) 0.2958(9) 0.4251(11)
C22 C 0.296(6) 0.2885(13) 0.4666(14)
H12 H 0.2446 0.3166 0.4961
H13 H 0.3924 0.2597 0.4919
H14 H 0.1339 0.2737 0.4421
C23 C 0.367(6) 0.3510(11) 0.3726(13)
H15 H 0.3351 0.3852 0.3942
H16 H 0.1967 0.3378 0.3502
H17 H 0.4979 0.3566 0.3408
O10 O 0.146(5) 0.5678(8) 0.7000(9)
O11 O 0.638(10) 0.486(2) 0.609(2)
O12 O 0.090(11) 0.410(2) 0.525(2)
O13 O 0.633(3) 0.5527(6) 0.7412(6)
O8? O 0.298(7) 0.2436(15) 0.5161(17)
O9? O 0.109(8) 0.3004(15) 0.4139(18)
O14? O 0.110(10) 0.502(2) 0.587(2)
O15? O 0.717(10) 0.393(2) 0.539(2)
loop_
_geom_bond_atom_site_label_1
_geom_bond_atom_site_label_2
_geom_bond_site_symmetry_1
_geom_bond_site_symmetry_2
Cd1 O1 1_555 1_555
O1 C18 1_555 1_555
O2 C18 1_555 1_555
O3 Cd1 1_555 1_555
O4 C19 1_555 1_555
O5 C6 1_555 1_555
O6 C10 1_555 1_555
N1 C1 1_555 1_555
C1 H1 1_555 1_555
C2 C1 1_555 1_555
H2 C2 1_555 1_555
C3 C2 1_555 1_555
C4 C3 1_555 1_555
H3 C4 1_555 1_555
C5 N1 1_555 1_555
H4 C5 1_555 1_555
N2 C3 1_555 1_555
C6 N2 1_555 1_555
C7 C6 1_555 1_555
C8 C7 1_555 1_555
C9 C8 1_555 1_555
C10 N2 1_555 1_555
C11 C7 1_555 1_555
H5 C11 1_555 1_555
C12 C11 1_555 1_555
H6 C12 1_555 1_555
C13 C12 1_555 1_555
C14 C8 1_555 1_555
C15 C14 1_555 1_555
C16 C15 1_555 1_555
H7 C16 1_555 1_555
C17 C9 1_555 1_555
H8 C17 1_555 1_555
C18 C13 1_555 1_555
C19 O3 1_555 1_555
O7 C21 1_555 1_555
N3 C21 1_555 1_555
C20 H9 1_555 1_555
H10 C20 1_555 1_555
H11 C20 1_555 1_555
C21 C20 1_555 1_555
C22 N3 1_555 1_555
H12 C22 1_555 1_555
H13 C22 1_555 1_555
H14 C22 1_555 1_555
C23 N3 1_555 1_555
H15 C23 1_555 1_555
H16 C23 1_555 1_555
H17 C23 1_555 1_555
Cd1_2 O2 1_555 1_555
Cd1A N1 1_555 1_555
Cd1B O4 1_555 1_555
Cd1B_2 O3 1_555 1_555
O2_2 Cd1 1_555 1_555
O3B Cd1 1_555 1_555
O4B Cd1 1_555 1_555
N1A Cd1 1_555 1_555
C4 C5 1_555 1_555
C9 C10 1_555 1_555
C13 C14 1_555 1_555
C15 C19 1_555 1_555
C16 C17 1_555 1_555
Cd1B_2 O3B 1_555 1_555

#END
