
#######################################################################
#
#                 Cambridge Crystallographic Data Centre
#                                CCDC 
#
#######################################################################
#
# If this CIF has been generated from an entry in the Cambridge 
# Structural Database, then it will include bibliographic, chemical, 
# crystal, experimental, refinement or atomic coordinate data resulting 
# from the CCDC's data processing and validation procedures.
#
#######################################################################

data_XICKOL
_symmetry_cell_setting           tetragonal
_symmetry_space_group_name_H-M   'P 42/n'
_symmetry_Int_Tables_number      86
_space_group_name_Hall           '-P 4bc'
loop_
_symmetry_equiv_pos_site_id
_symmetry_equiv_pos_as_xyz
1 x,y,z
2 -y,1/2+x,1/2+z
3 1/2-x,1/2-y,z
4 1/2+y,-x,1/2+z
5 -x,-y,-z
6 y,1/2-x,1/2-z
7 1/2+x,1/2+y,-z
8 1/2-y,x,1/2-z
_cell_length_a                   21.2737(14)
_cell_length_b                   21.2737(14)
_cell_length_c                   30.086(2)
_cell_angle_alpha                90
_cell_angle_beta                 90
_cell_angle_gamma                90
_cell_volume                     13616
loop_
_atom_site_label
_atom_site_type_symbol
_atom_site_fract_x
_atom_site_fract_y
_atom_site_fract_z
C1 C 0.6867(2) 1.1752(2) 0.1786(1)
H1 H 0.6488 1.1887 0.1907
C2 C 0.6872(2) 1.1393(2) 0.1434(1)
H2 H 0.6493 1.1290 0.1299
C3 C 0.7465(2) 1.1145(2) 0.1242(1)
C4 C 0.8022(2) 1.1353(2) 0.1431(1)
H3 H 0.8405 1.1239 0.1305
C5 C 0.8013(2) 1.1731(2) 0.1807(1)
H4 H 0.8388 1.1849 0.1942
C6 C 0.7496(2) 1.0721(2) 0.0862(1)
C7 C 0.6920(2) 1.0451(2) 0.0697(1)
H5 H 0.6553 1.0523 0.0857
C8 C 0.6881(2) 1.0112(2) 0.0339(1)
C9 C 0.7435(2) 0.9915(2) 0.0129(1)
H6 H 0.7418 0.9642 -0.0112
C10 C 0.8006(2) 1.0128(2) 0.0283(1)
C11 C 0.8043(2) 1.0524(2) 0.0657(1)
H7 H 0.8432 1.0653 0.0765
C12 C 0.6259(2) 0.9863(2) 0.0187(1)
C13 C 0.8607(2) 0.9934(2) 0.0076(1)
C14 C 1.0091(2) 0.8624(2) 0.0075(1)
H8 H 0.9868 0.8621 -0.0191
C15 C 1.0254(2) 0.8098(2) 0.0254(1)
H9 H 1.0134 0.7726 0.0116
C16 C 1.0615(2) 0.8064(2) 0.0658(1)
C17 C 1.0798(2) 0.8684(2) 0.0837(1)
H10 H 1.1043 0.8705 0.1093
C18 C 1.0625(2) 0.9194(2) 0.0644(1)
H11 H 1.0761 0.9577 0.0758
C19 C 1.0815(2) 0.7483(2) 0.0863(1)
C20 C 1.0583(2) 0.6897(2) 0.0724(1)
H12 H 1.0265 0.6892 0.0512
C21 C 1.0792(2) 0.6347(2) 0.0878(1)
C22 C 1.1208(2) 0.6347(2) 0.1243(1)
H13 H 1.1334 0.5967 0.1367
C23 C 1.1430(2) 0.6905(2) 0.1420(1)
C24 C 1.1227(2) 0.7467(2) 0.1247(1)
H14 H 1.1356 0.7842 0.1377
C25 C 1.0617(2) 0.5759(2) 0.0697(1)
C26 C 1.1782(2) 0.6920(2) 0.1807(1)
Cu1 Cu 1.2500 0.7500 0.2484
Cu2 Cu 1.0000 1.0000 0.0000
Cu3 Cu 1.0000 0.5000 0.0000
N1 N 0.7445(1) 1.1932(1) 0.1982(1)
N2 N 1.0241(1) 0.9193(1) 0.0271(1)
O1 O 0.5783(1) 1.0144(1) 0.0342(1)
O2 O 0.6251(1) 0.9331(1) -0.0008(1)
O3 O 0.8592(1) 0.9541(1) -0.0234(1)
O4 O 0.9131(1) 1.0167(1) 0.0203(1)
O5 O 1.0227(1) 0.5728(1) 0.0369(1)
O6 O 1.0760(1) 0.5228(1) 0.0856(1)
O7 O 1.1927(1) 0.6439(1) 0.2029(1)
O8 O 1.1954(1) 0.7438(1) 0.1974(1)
C1B C 0.8133(2) 0.3248(2) 0.1786(1)
H1B H 0.8512 0.3113 0.1907
C2B C 0.8128(2) 0.3607(2) 0.1434(1)
H2B H 0.8507 0.3710 0.1299
C3B C 0.7535(2) 0.3855(2) 0.1242(1)
C4B C 0.6978(2) 0.3647(2) 0.1431(1)
H3B H 0.6595 0.3761 0.1305
C5B C 0.6987(2) 0.3269(2) 0.1807(1)
H4B H 0.6612 0.3151 0.1942
C6B C 0.7504(2) 0.4279(2) 0.0862(1)
C7B C 0.8080(2) 0.4549(2) 0.0697(1)
H5B H 0.8447 0.4477 0.0857
C8B C 0.8119(2) 0.4888(2) 0.0339(1)
C9B C 0.7565(2) 0.5085(2) 0.0129(1)
H6B H 0.7582 0.5358 -0.0112
C10B C 0.6994(2) 0.4872(2) 0.0283(1)
C11B C 0.6957(2) 0.4476(2) 0.0657(1)
H7B H 0.6568 0.4347 0.0765
C12B C 0.8741(2) 0.5137(2) 0.0187(1)
C13B C 0.6393(2) 0.5066(2) 0.0076(1)
N1B N 0.7555(1) 0.3068(1) 0.1982(1)
O1B O 0.9217(1) 0.4856(1) 0.0342(1)
O2B O 0.8749(1) 0.5669(1) -0.0008(1)
O3B O 0.6408(1) 0.5459(1) -0.0234(1)
O4B O 0.5869(1) 0.4833(1) 0.0203(1)
C14B C 1.4909(2) 0.6376(2) 0.0075(1)
H8B H 1.5132 0.6379 -0.0191
C15B C 1.4746(2) 0.6902(2) 0.0254(1)
H9B H 1.4866 0.7274 0.0116
C16B C 1.4385(2) 0.6936(2) 0.0658(1)
C17B C 1.4202(2) 0.6316(2) 0.0837(1)
H10B H 1.3957 0.6295 0.1093
C18B C 1.4375(2) 0.5806(2) 0.0644(1)
H11B H 1.4239 0.5423 0.0758
C19B C 1.4185(2) 0.7517(2) 0.0863(1)
C20B C 1.4417(2) 0.8103(2) 0.0724(1)
H12B H 1.4735 0.8108 0.0512
C21B C 1.4208(2) 0.8653(2) 0.0878(1)
C22B C 1.3792(2) 0.8653(2) 0.1243(1)
H13B H 1.3666 0.9033 0.1367
C23B C 1.3570(2) 0.8095(2) 0.1420(1)
C24B C 1.3773(2) 0.7533(2) 0.1247(1)
H14B H 1.3644 0.7158 0.1377
C25B C 1.4383(2) 0.9241(2) 0.0697(1)
C26B C 1.3218(2) 0.8080(2) 0.1807(1)
N2B N 1.4759(1) 0.5807(1) 0.0271(1)
O5B O 1.4773(1) 0.9272(1) 0.0369(1)
O6B O 1.4240(1) 0.9772(1) 0.0856(1)
O7B O 1.3073(1) 0.8561(1) 0.2029(1)
O8B O 1.3046(1) 0.7562(1) 0.1974(1)
Cu1E Cu 0.7500 0.2500 0.2516
Cu1E_2 Cu 0.7500 1.2500 0.2516
Cu2B Cu 0.5000 0.5000 0.0000
Cu2B_2 Cu 1.5000 0.5000 0.0000
Cu3B Cu 0.5000 1.0000 0.0000
Cu3B_2 Cu 1.5000 1.0000 0.0000
N1E N 1.1932(1) 0.7555(1) 0.3018(1)
N1G N 1.3068(1) 0.7445(1) 0.3018(1)
N2D N 0.9759(1) 1.0807(1) -0.0271(1)
O1F O 1.0783(1) 0.5144(1) -0.0342(1)
O4D O 1.0869(1) 0.9833(1) -0.0203(1)
O5D O 0.9773(1) 0.4272(1) -0.0369(1)
C27 C 0.6362(2) 0.7003(2) 0.3525(1)
H15 H 0.6314 0.7369 0.3708
H16 H 0.6625 0.6703 0.3673
H17 H 0.5957 0.6820 0.3469
C28 C 0.6386(2) 0.7764(2) 0.2897(1)
H18 H 0.6122 0.7651 0.2650
H19 H 0.6722 0.8027 0.2794
H20 H 0.6142 0.7987 0.3114
N3 N 0.6652(2) 0.7182(2) 0.3102(1)
H21 H 0.6607 0.6862 0.2909
H22 H 0.7066 0.7240 0.3147
loop_
_geom_bond_atom_site_label_1
_geom_bond_atom_site_label_2
_geom_bond_site_symmetry_1
_geom_bond_site_symmetry_2
C1 H1 1_555 1_555
C2 C1 1_555 1_555
H2 C2 1_555 1_555
C3 C2 1_555 1_555
C4 C3 1_555 1_555
H3 C4 1_555 1_555
C5 C4 1_555 1_555
H4 C5 1_555 1_555
C6 C3 1_555 1_555
C7 C6 1_555 1_555
H5 C7 1_555 1_555
C8 C7 1_555 1_555
C9 C8 1_555 1_555
H6 C9 1_555 1_555
C10 C9 1_555 1_555
C11 C6 1_555 1_555
H7 C11 1_555 1_555
C12 C8 1_555 1_555
C13 C10 1_555 1_555
C14 H8 1_555 1_555
C15 C14 1_555 1_555
H9 C15 1_555 1_555
C16 C15 1_555 1_555
C17 C16 1_555 1_555
H10 C17 1_555 1_555
C18 C17 1_555 1_555
H11 C18 1_555 1_555
C19 C16 1_555 1_555
C20 C19 1_555 1_555
H12 C20 1_555 1_555
C21 C20 1_555 1_555
C22 C21 1_555 1_555
H13 C22 1_555 1_555
C23 C22 1_555 1_555
C24 C19 1_555 1_555
H14 C24 1_555 1_555
C25 C21 1_555 1_555
C26 C23 1_555 1_555
Cu1 O8 1_555 1_555
Cu2 N2 1_555 1_555
Cu3 O5 1_555 1_555
N1 C1 1_555 1_555
N2 C14 1_555 1_555
O1 C12 1_555 1_555
O2 C12 1_555 1_555
O3 C13 1_555 1_555
O4 C13 1_555 1_555
O5 C25 1_555 1_555
O6 C25 1_555 1_555
O7 C26 1_555 1_555
O8 C26 1_555 1_555
C27 H15 1_555 1_555
H16 C27 1_555 1_555
H17 C27 1_555 1_555
C28 H18 1_555 1_555
H19 C28 1_555 1_555
H20 C28 1_555 1_555
N3 C27 1_555 1_555
H21 N3 1_555 1_555
H22 N3 1_555 1_555
C1B H1B 1_555 1_555
C2B C1B 1_555 1_555
H2B C2B 1_555 1_555
C3B C2B 1_555 1_555
C4B C3B 1_555 1_555
H3B C4B 1_555 1_555
C5B C4B 1_555 1_555
H4B C5B 1_555 1_555
C6B C3B 1_555 1_555
C7B C6B 1_555 1_555
H5B C7B 1_555 1_555
C8B C7B 1_555 1_555
C9B C8B 1_555 1_555
H6B C9B 1_555 1_555
C10B C9B 1_555 1_555
C11B C6B 1_555 1_555
H7B C11B 1_555 1_555
C12B C8B 1_555 1_555
C13B C10B 1_555 1_555
N1B C1B 1_555 1_555
O1B Cu3 1_555 1_555
O2B C12B 1_555 1_555
O3B C13B 1_555 1_555
O4B C13B 1_555 1_555
C14B H8B 1_555 1_555
C15B C14B 1_555 1_555
H9B C15B 1_555 1_555
C16B C15B 1_555 1_555
C17B C16B 1_555 1_555
H10B C17B 1_555 1_555
C18B C17B 1_555 1_555
H11B C18B 1_555 1_555
C19B C16B 1_555 1_555
C20B C19B 1_555 1_555
H12B C20B 1_555 1_555
C21B C20B 1_555 1_555
C22B C21B 1_555 1_555
H13B C22B 1_555 1_555
C23B C22B 1_555 1_555
C24B C19B 1_555 1_555
H14B C24B 1_555 1_555
C25B C21B 1_555 1_555
C26B C23B 1_555 1_555
N2B C14B 1_555 1_555
O5B C25B 1_555 1_555
O6B C25B 1_555 1_555
O7B C26B 1_555 1_555
O8B Cu1 1_555 1_555
Cu1E N1B 1_555 1_555
Cu1E_2 N1 1_555 1_555
Cu2B O4B 1_555 1_555
Cu2B_2 N2B 1_555 1_555
Cu3B O1 1_555 1_555
Cu3B_2 O5B 1_555 1_555
N1E Cu1 1_555 1_555
N1G Cu1 1_555 1_555
N2D Cu2 1_555 1_555
O1F Cu3 1_555 1_555
O4D Cu2 1_555 1_555
O5D Cu3 1_555 1_555
C5 N1 1_555 1_555
C10 C11 1_555 1_555
C18 N2 1_555 1_555
C23 C24 1_555 1_555
Cu2 O4 1_555 1_555
C28 N3 1_555 1_555
C5B N1B 1_555 1_555
C10B C11B 1_555 1_555
C12B O1B 1_555 1_555
C18B N2B 1_555 1_555
C23B C24B 1_555 1_555
C26B O8B 1_555 1_555

#END
