
#######################################################################
#
#                 Cambridge Crystallographic Data Centre
#                                CCDC 
#
#######################################################################
#
# If this CIF has been generated from an entry in the Cambridge 
# Structural Database, then it will include bibliographic, chemical, 
# crystal, experimental, refinement or atomic coordinate data resulting 
# from the CCDC's data processing and validation procedures.
#
#######################################################################

data_XIDBUJ
_symmetry_cell_setting           monoclinic
_symmetry_space_group_name_H-M   'C 2/m'
_symmetry_Int_Tables_number      12
_space_group_name_Hall           '-C 2y'
loop_
_symmetry_equiv_pos_site_id
_symmetry_equiv_pos_as_xyz
1 x,y,z
2 -x,y,-z
3 1/2+x,1/2+y,z
4 1/2-x,1/2+y,-z
5 -x,-y,-z
6 x,-y,z
7 1/2-x,1/2-y,-z
8 1/2+x,1/2-y,z
_cell_length_a                   19.926(7)
_cell_length_b                   22.305(8)
_cell_length_c                   11.721(4)
_cell_angle_alpha                90
_cell_angle_beta                 116.127(4)
_cell_angle_gamma                90
_cell_volume                     4677.1
loop_
_atom_site_label
_atom_site_type_symbol
_atom_site_fract_x
_atom_site_fract_y
_atom_site_fract_z
Zn1 Zn 0.31688(2) 0.12231(2) 0.11810(4)
N1 N 0.28422(19) 0.14300(17) 0.9284(3)
N2 N 0.1432(2) 0.20843(17) 0.4770(3)
N3 N -0.08853(19) 0.32045(16) 0.1926(3)
O1 O 0.3163(2) 0.12410(17) 0.3102(4)
O2 O 0.23608(18) 0.17564(15) 0.1480(3)
O3 O 0.24159(15) 0.04976(14) 0.0707(3)
O4 O 0.39015(15) 0.05003(13) 0.1500(3)
C1 C 0.3275(3) 0.1312(2) 0.8714(4)
H1 H 0.3749 0.1153 0.9195
C2 C 0.3050(3) 0.1416(3) 0.7434(4)
H2 H 0.3368 0.1325 0.7070
C3 C 0.2350(2) 0.1654(2) 0.6697(4)
C4 C 0.1914(3) 0.1779(3) 0.7305(4)
H3 H 0.1441 0.1944 0.6852
C5 C 0.2170(3) 0.1661(2) 0.8569(4)
H4 H 0.1859 0.1746 0.8951
C6 C 0.2077(2) 0.1788(2) 0.5316(4)
C7 C 0.2476(2) 0.1602(2) 0.4641(4)
H5 H 0.2923 0.1392 0.5045
C8 C 0.2187(2) 0.1742(2) 0.3362(4)
C9 C 0.1510(2) 0.2037(2) 0.2790(4)
H6 H 0.1299 0.2125 0.1926
C10 C 0.1148(2) 0.2203(2) 0.3521(4)
C11 C -0.0766(3) 0.2752(2) 0.1288(4)
H7 H -0.1139 0.2659 0.0484
C12 C -0.0120(3) 0.2415(2) 0.1764(4)
H8 H -0.0058 0.2107 0.1284
C13 C 0.0439(2) 0.2542(2) 0.2971(4)
C14 C 0.0304(3) 0.3004(2) 0.3633(4)
H9 H 0.0658 0.3097 0.4451
C15 C -0.0344(3) 0.3321(2) 0.3094(4)
H10 H -0.0415 0.3634 0.3554
C16 C 0.2602(3) 0.1564(2) 0.2596(4)
C17 C 0.2726(3) 0.0000 0.0876(5)
C18 C 0.3582(3) 0.0000 0.1333(5)
O3E O 0.24159(15) -0.04976(14) 0.0707(3)
O4E O 0.39015(15) -0.05003(13) 0.1500(3)
Zn1E Zn 0.31688(2) -0.12231(2) 0.11810(4)
N1E N 0.28422(19) -0.14300(17) 0.9284(3)
N2E N 0.1432(2) -0.20843(17) 0.4770(3)
N3E N -0.08853(19) -0.32045(16) 0.1926(3)
O1E O 0.3163(2) -0.12410(17) 0.3102(4)
O2E O 0.23608(18) -0.17564(15) 0.1480(3)
C1E C 0.3275(3) -0.1312(2) 0.8714(4)
H1E H 0.3749 -0.1153 0.9195
C2E C 0.3050(3) -0.1416(3) 0.7434(4)
H2E H 0.3368 -0.1325 0.7070
C3E C 0.2350(2) -0.1654(2) 0.6697(4)
C4E C 0.1914(3) -0.1779(3) 0.7305(4)
H3E H 0.1441 -0.1944 0.6852
C5E C 0.2170(3) -0.1661(2) 0.8569(4)
H4E H 0.1859 -0.1746 0.8951
C6E C 0.2077(2) -0.1788(2) 0.5316(4)
C7E C 0.2476(2) -0.1602(2) 0.4641(4)
H5E H 0.2923 -0.1392 0.5045
C8E C 0.2187(2) -0.1742(2) 0.3362(4)
C9E C 0.1510(2) -0.2037(2) 0.2790(4)
H6E H 0.1299 -0.2125 0.1926
C10E C 0.1148(2) -0.2203(2) 0.3521(4)
C11E C -0.0766(3) -0.2752(2) 0.1288(4)
H7E H -0.1139 -0.2659 0.0484
C12E C -0.0120(3) -0.2415(2) 0.1764(4)
H8E H -0.0058 -0.2107 0.1284
C13E C 0.0439(2) -0.2542(2) 0.2971(4)
C14E C 0.0304(3) -0.3004(2) 0.3633(4)
H9E H 0.0658 -0.3097 0.4451
C15E C -0.0344(3) -0.3321(2) 0.3094(4)
H10E H -0.0415 -0.3634 0.3554
C16E C 0.2602(3) -0.1564(2) 0.2596(4)
Zn1_2 Zn 0.31688(2) 0.12231(2) 1.11810(4)
Zn1B Zn -0.18312(2) -0.37769(2) 0.11810(4)
Zn1E_2 Zn 0.31688(2) -0.12231(2) 1.11810(4)
Zn1G Zn -0.18312(2) 0.37769(2) 0.11810(4)
N1_2 N 0.28422(19) 0.14300(17) -0.0716(3)
N1E_2 N 0.28422(19) -0.14300(17) -0.0716(3)
N3B N 0.41147(19) -0.17955(16) 0.1926(3)
N3G N 0.41147(19) 0.17955(16) 0.1926(3)
O5 O 0.3425(13) 0.0000 0.410(2)
O6 O 0.340(2) 0.0000 0.659(3)
O7 O 0.4676(15) 0.0517(13) 0.864(3)
loop_
_geom_bond_atom_site_label_1
_geom_bond_atom_site_label_2
_geom_bond_site_symmetry_1
_geom_bond_site_symmetry_2
Zn1 O1 1_555 1_555
N1 C1 1_555 1_555
N2 C6 1_555 1_555
N3 C11 1_555 1_555
O1 C16 1_555 1_555
O2 Zn1 1_555 1_555
O3 Zn1 1_555 1_555
O4 Zn1 1_555 1_555
C1 H1 1_555 1_555
C2 C1 1_555 1_555
H2 C2 1_555 1_555
C3 C2 1_555 1_555
C4 C3 1_555 1_555
H3 C4 1_555 1_555
C5 N1 1_555 1_555
H4 C5 1_555 1_555
C6 C3 1_555 1_555
C7 C6 1_555 1_555
H5 C7 1_555 1_555
C8 C7 1_555 1_555
C9 C8 1_555 1_555
H6 C9 1_555 1_555
C10 N2 1_555 1_555
C11 H7 1_555 1_555
C12 C11 1_555 1_555
H8 C12 1_555 1_555
C13 C10 1_555 1_555
C14 C13 1_555 1_555
H9 C14 1_555 1_555
C15 N3 1_555 1_555
H10 C15 1_555 1_555
C16 O2 1_555 1_555
C17 O3 1_555 1_555
C18 O4 1_555 1_555
O3E C17 1_555 1_555
O4E C18 1_555 1_555
Zn1E O3E 1_555 1_555
N1E C1E 1_555 1_555
N2E C6E 1_555 1_555
N3E C11E 1_555 1_555
O1E Zn1E 1_555 1_555
O2E Zn1E 1_555 1_555
C1E H1E 1_555 1_555
C2E C1E 1_555 1_555
H2E C2E 1_555 1_555
C3E C2E 1_555 1_555
C4E C3E 1_555 1_555
H3E C4E 1_555 1_555
C5E N1E 1_555 1_555
H4E C5E 1_555 1_555
C6E C3E 1_555 1_555
C7E C6E 1_555 1_555
H5E C7E 1_555 1_555
C8E C7E 1_555 1_555
C9E C8E 1_555 1_555
H6E C9E 1_555 1_555
C10E N2E 1_555 1_555
C11E H7E 1_555 1_555
C12E C11E 1_555 1_555
H8E C12E 1_555 1_555
C13E C10E 1_555 1_555
C14E C13E 1_555 1_555
H9E C14E 1_555 1_555
C15E N3E 1_555 1_555
H10E C15E 1_555 1_555
C16E O1E 1_555 1_555
Zn1_2 N1 1_555 1_555
Zn1B N3E 1_555 1_555
Zn1E_2 N1E 1_555 1_555
Zn1G N3 1_555 1_555
N1_2 Zn1 1_555 1_555
N1E_2 Zn1E 1_555 1_555
N3B Zn1E 1_555 1_555
N3G Zn1 1_555 1_555
C4 C5 1_555 1_555
C8 C16 1_555 1_555
C9 C10 1_555 1_555
C12 C13 1_555 1_555
C14 C15 1_555 1_555
C17 C18 1_555 1_555
O4E Zn1E 1_555 1_555
O2E C16E 1_555 1_555
C4E C5E 1_555 1_555
C8E C16E 1_555 1_555
C9E C10E 1_555 1_555
C12E C13E 1_555 1_555
C14E C15E 1_555 1_555

#END
