
#######################################################################
#
#                 Cambridge Crystallographic Data Centre
#                                CCDC 
#
#######################################################################
#
# If this CIF has been generated from an entry in the Cambridge 
# Structural Database, then it will include bibliographic, chemical, 
# crystal, experimental, refinement or atomic coordinate data resulting 
# from the CCDC's data processing and validation procedures.
#
#######################################################################

data_XILVEV
_symmetry_cell_setting           monoclinic
_symmetry_space_group_name_H-M   'C 2/m'
_symmetry_Int_Tables_number      12
_space_group_name_Hall           '-C 2y'
loop_
_symmetry_equiv_pos_site_id
_symmetry_equiv_pos_as_xyz
1 x,y,z
2 -x,y,-z
3 1/2+x,1/2+y,z
4 1/2-x,1/2+y,-z
5 -x,-y,-z
6 x,-y,z
7 1/2-x,1/2-y,-z
8 1/2+x,1/2-y,z
_cell_length_a                   21.453(5)
_cell_length_b                   16.258(5)
_cell_length_c                   15.921(5)
_cell_angle_alpha                90
_cell_angle_beta                 130.17(4)
_cell_angle_gamma                90
_cell_volume                     4243.21
loop_
_atom_site_label
_atom_site_type_symbol
_atom_site_fract_x
_atom_site_fract_y
_atom_site_fract_z
Zn1 Zn 0.41721(12) 0.5000 0.44511(18)
Mn1 Mn 0.5000 0.0000 0.0000
O1 O 0.4097(7) 0.4124(6) 0.3579(8)
O2 O 0.5525(8) 0.4068(8) 0.4689(16)
O3 O 0.1494(8) 0.3706(12) 0.4830(10)
N1 N 0.5000 0.1186(8) 0.0000
N2 N 0.4808(7) 0.0000 0.1132(11)
N3 N 0.3285(8) 0.5000 0.4432(14)
N4 N 0.1427(9) 0.5000 0.4684(11)
C1 C 0.4944(13) 0.2525(13) 0.0400(15)
H1 H 0.4946 0.2982 0.0753
C2 C 0.4830(9) 0.1673(11) 0.0549(11)
C3 C 0.4804(7) 0.1360(12) 0.1356(10)
C4 C 0.4744(6) 0.0606(9) 0.1520(9)
C5 C 0.4577(4) 0.0390(4) 0.2230(5)
H2 H 0.4488 0.0742 0.2605
C6 C 0.4720(4) 0.2077(4) 0.1928(5)
C7 C 0.5388(4) 0.2413(4) 0.2722(5)
H3 H 0.5857 0.2217 0.2879
C8 C 0.5378(4) 0.3034(4) 0.3289(5)
H4 H 0.5840 0.3266 0.3837
C9 C 0.4699(4) 0.3318(4) 0.3061(5)
C10 C 0.4031(4) 0.2982(4) 0.2267(5)
H5 H 0.3562 0.3178 0.2110
C11 C 0.4041(4) 0.2361(4) 0.1700(5)
H6 H 0.3579 0.2129 0.1152
C12 C 0.4843(4) 0.4074(4) 0.3868(5)
C13 C 0.2572(4) 0.5000(4) 0.3602(5)
H7 H 0.2456 0.5000 0.2954
C14 C 0.191(2) 0.5000 0.369(3)
H8 H 0.1370 0.5000 0.3039
C15 C 0.2052(16) 0.5000 0.458(2)
C16 C 0.2693(16) 0.5000 0.535(2)
H9 H 0.2801 0.5000 0.6018
C17 C 0.3394(11) 0.5000 0.5354(16)
H10 H 0.3924 0.5000 0.6025
C18 C 0.1225(13) 0.4328(14) 0.4747(16)
C19 C 0.0289(9) 0.3532(13) 0.4925(13)
H11 H 0.0486 0.3044 0.4869
C20 C 0.0546(9) 0.4274(16) 0.4867(12)
C21 C 0.0338(12) 0.5000 0.4992(15)
O1A O 0.5903(7) 0.4124(6) -0.3579(8)
O2A O 0.4475(8) 0.4068(8) -0.4689(16)
N2A N 0.5192(7) 0.0000 -0.1132(11)
C1A C 0.5056(13) 0.2525(13) -0.0400(15)
H1A H 0.5054 0.2982 -0.0753
C2A C 0.5170(9) 0.1673(11) -0.0549(11)
C3A C 0.5196(7) 0.1360(12) -0.1356(10)
C4A C 0.5256(6) 0.0606(9) -0.1520(9)
C5A C 0.5423(4) 0.0390(4) -0.2230(5)
H2A H 0.5512 0.0742 -0.2605
C6A C 0.5280(4) 0.2077(4) -0.1928(5)
C7A C 0.4612(4) 0.2413(4) -0.2722(5)
H3A H 0.4143 0.2217 -0.2879
C8A C 0.4622(4) 0.3034(4) -0.3289(5)
H4A H 0.4160 0.3266 -0.3837
C9A C 0.5301(4) 0.3318(4) -0.3061(5)
C10A C 0.5969(4) 0.2982(4) -0.2267(5)
H5A H 0.6438 0.3178 -0.2110
C11A C 0.5959(4) 0.2361(4) -0.1700(5)
H6A H 0.6421 0.2129 -0.1152
C12A C 0.5157(4) 0.4074(4) -0.3868(5)
O1D O 0.5903(7) -0.4124(6) -0.3579(8)
O2D O 0.4475(8) -0.4068(8) -0.4689(16)
N1D N 0.5000 -0.1186(8) 0.0000
C1D C 0.5056(13) -0.2525(13) -0.0400(15)
H1D H 0.5054 -0.2982 -0.0753
C2D C 0.5170(9) -0.1673(11) -0.0549(11)
C3D C 0.5196(7) -0.1360(12) -0.1356(10)
C4D C 0.5256(6) -0.0606(9) -0.1520(9)
C5D C 0.5423(4) -0.0390(4) -0.2230(5)
H2D H 0.5512 -0.0742 -0.2605
C6D C 0.5280(4) -0.2077(4) -0.1928(5)
C7D C 0.4612(4) -0.2413(4) -0.2722(5)
H3D H 0.4143 -0.2217 -0.2879
C8D C 0.4622(4) -0.3034(4) -0.3289(5)
H4D H 0.4160 -0.3266 -0.3837
C9D C 0.5301(4) -0.3318(4) -0.3061(5)
C10D C 0.5969(4) -0.2982(4) -0.2267(5)
H5D H 0.6438 -0.3178 -0.2110
C11D C 0.5959(4) -0.2361(4) -0.1700(5)
H6D H 0.6421 -0.2129 -0.1152
C12D C 0.5157(4) -0.4074(4) -0.3868(5)
O1E O 0.4097(7) -0.4124(6) 0.3579(8)
O2E O 0.5525(8) -0.4068(8) 0.4689(16)
C1E C 0.4944(13) -0.2525(13) 0.0400(15)
H1E H 0.4946 -0.2982 0.0753
C2E C 0.4830(9) -0.1673(11) 0.0549(11)
C3E C 0.4804(7) -0.1360(12) 0.1356(10)
C4E C 0.4744(6) -0.0606(9) 0.1520(9)
C5E C 0.4577(4) -0.0390(4) 0.2230(5)
H2E H 0.4488 -0.0742 0.2605
C6E C 0.4720(4) -0.2077(4) 0.1928(5)
C7E C 0.5388(4) -0.2413(4) 0.2722(5)
H3E H 0.5857 -0.2217 0.2879
C8E C 0.5378(4) -0.3034(4) 0.3289(5)
H4E H 0.5840 -0.3266 0.3837
C9E C 0.4699(4) -0.3318(4) 0.3061(5)
C10E C 0.4031(4) -0.2982(4) 0.2267(5)
H5E H 0.3562 -0.3178 0.2110
C11E C 0.4041(4) -0.2361(4) 0.1700(5)
H6E H 0.3579 -0.2129 0.1152
C12E C 0.4843(4) -0.4074(4) 0.3868(5)
O3A O -0.1494(8) 0.3706(12) 0.5170(10)
N3A N -0.3285(8) 0.5000 0.5568(14)
N4A N -0.1427(9) 0.5000 0.5316(11)
C13A C -0.2572(4) 0.5000(4) 0.6398(5)
H7A H -0.2456 0.5000 0.7046
C14A C -0.191(2) 0.5000 0.631(3)
H8A H -0.1370 0.5000 0.6961
C15A C -0.2052(16) 0.5000 0.542(2)
C16A C -0.2693(16) 0.5000 0.465(2)
H9A H -0.2801 0.5000 0.3982
C17A C -0.3394(11) 0.5000 0.4646(16)
H10A H -0.3924 0.5000 0.3975
C18A C -0.1225(13) 0.4328(14) 0.5253(16)
C19A C -0.0289(9) 0.3532(13) 0.5075(13)
H11A H -0.0486 0.3044 0.5131
C20A C -0.0546(9) 0.4274(16) 0.5133(12)
C21A C -0.0338(12) 0.5000 0.5008(15)
O3D O -0.1494(8) 0.6294(12) 0.5170(10)
C18D C -0.1225(13) 0.5672(14) 0.5253(16)
C19D C -0.0289(9) 0.6468(13) 0.5075(13)
H11D H -0.0486 0.6956 0.5131
C20D C -0.0546(9) 0.5726(16) 0.5133(12)
O3E O 0.1494(8) 0.6294(12) 0.4830(10)
C18E C 0.1225(13) 0.5672(14) 0.4747(16)
C19E C 0.0289(9) 0.6468(13) 0.4925(13)
H11E H 0.0486 0.6956 0.4869
C20E C 0.0546(9) 0.5726(16) 0.4867(12)
Zn1A Zn -0.41721(12) 0.5000 0.55489(18)
Zn1_2 Zn -0.58279(12) 0.5000 0.44511(18)
Zn1_3 Zn 0.41721(12) -0.5000 -0.55489(18)
Zn1_4 Zn 0.41721(12) -0.5000 0.44511(18)
Zn1_5 Zn 0.41721(12) 0.5000 -0.55489(18)
Zn1A_2 Zn 0.58279(12) -0.5000 -0.44511(18)
Zn1A_3 Zn 0.58279(12) -0.5000 0.55489(18)
Zn1A_4 Zn 0.58279(12) 0.5000 -0.44511(18)
Zn1A_5 Zn 0.58279(12) 0.5000 0.55489(18)
O1A_2 O -0.4097(7) 0.4124(6) 0.6421(8)
O1D_2 O -0.4097(7) 0.5876(6) 0.6421(8)
O1E_2 O 0.4097(7) 0.5876(6) 0.3579(8)
O2_2 O -0.4475(8) 0.4068(8) 0.4689(16)
O2A_2 O 0.4475(8) 0.4068(8) 0.5311(16)
O2D_2 O 0.4475(8) 0.5932(8) 0.5311(16)
O2E_2 O -0.4475(8) 0.5932(8) 0.4689(16)
loop_
_geom_bond_atom_site_label_1
_geom_bond_atom_site_label_2
_geom_bond_site_symmetry_1
_geom_bond_site_symmetry_2
Zn1 O1 1_555 1_555
Mn1 N1 1_555 1_555
O1 C12 1_555 1_555
O2 C12 1_555 1_555
O3 C18 1_555 1_555
N1 C2 1_555 1_555
N2 Mn1 1_555 1_555
N3 Zn1 1_555 1_555
N4 C15 1_555 1_555
C1 H1 1_555 1_555
C2 C1 1_555 1_555
C3 C2 1_555 1_555
C4 N2 1_555 1_555
C5 C4 1_555 1_555
H2 C5 1_555 1_555
C6 C3 1_555 1_555
C7 C6 1_555 1_555
H3 C7 1_555 1_555
C8 C7 1_555 1_555
H4 C8 1_555 1_555
C9 C8 1_555 1_555
C10 C9 1_555 1_555
H5 C10 1_555 1_555
C11 C6 1_555 1_555
H6 C11 1_555 1_555
C12 C9 1_555 1_555
C13 N3 1_555 1_555
H7 C13 1_555 1_555
C14 C13 1_555 1_555
H8 C14 1_555 1_555
C15 C14 1_555 1_555
C16 C15 1_555 1_555
H9 C16 1_555 1_555
C17 N3 1_555 1_555
H10 C17 1_555 1_555
C18 N4 1_555 1_555
C19 H11 1_555 1_555
C20 C18 1_555 1_555
C21 C20 1_555 1_555
O1A C12A 1_555 1_555
O2A C12A 1_555 1_555
N2A Mn1 1_555 1_555
C1A C1 1_555 1_555
H1A C1A 1_555 1_555
C2A N1 1_555 1_555
C3A C2A 1_555 1_555
C4A N2A 1_555 1_555
C5A C4A 1_555 1_555
H2A C5A 1_555 1_555
C6A C3A 1_555 1_555
C7A C6A 1_555 1_555
H3A C7A 1_555 1_555
C8A C7A 1_555 1_555
H4A C8A 1_555 1_555
C9A C8A 1_555 1_555
C10A C9A 1_555 1_555
H5A C10A 1_555 1_555
C11A C6A 1_555 1_555
H6A C11A 1_555 1_555
C12A C9A 1_555 1_555
O1D C12D 1_555 1_555
O2D C12D 1_555 1_555
N1D Mn1 1_555 1_555
C1D H1D 1_555 1_555
C2D N1D 1_555 1_555
C3D C2D 1_555 1_555
C4D N2A 1_555 1_555
C5D C5A 1_555 1_555
H2D C5D 1_555 1_555
C6D C3D 1_555 1_555
C7D C6D 1_555 1_555
H3D C7D 1_555 1_555
C8D C7D 1_555 1_555
H4D C8D 1_555 1_555
C9D C8D 1_555 1_555
C10D C9D 1_555 1_555
H5D C10D 1_555 1_555
C11D C6D 1_555 1_555
H6D C11D 1_555 1_555
C12D C9D 1_555 1_555
O1E C12E 1_555 1_555
O2E C12E 1_555 1_555
C1E C1D 1_555 1_555
H1E C1E 1_555 1_555
C2E N1D 1_555 1_555
C3E C2E 1_555 1_555
C4E N2 1_555 1_555
C5E C5 1_555 1_555
H2E C5E 1_555 1_555
C6E C3E 1_555 1_555
C7E C6E 1_555 1_555
H3E C7E 1_555 1_555
C8E C7E 1_555 1_555
H4E C8E 1_555 1_555
C9E C8E 1_555 1_555
C10E C9E 1_555 1_555
H5E C10E 1_555 1_555
C11E C6E 1_555 1_555
H6E C11E 1_555 1_555
C12E C9E 1_555 1_555
O3A C18A 1_555 1_555
N3A C13A 1_555 1_555
N4A C15A 1_555 1_555
C13A H7A 1_555 1_555
C14A C13A 1_555 1_555
H8A C14A 1_555 1_555
C15A C14A 1_555 1_555
C16A C15A 1_555 1_555
H9A C16A 1_555 1_555
C17A N3A 1_555 1_555
H10A C17A 1_555 1_555
C18A N4A 1_555 1_555
C19A C19 1_555 1_555
H11A C19A 1_555 1_555
C20A C18A 1_555 1_555
C21A C21 1_555 1_555
O3D C18D 1_555 1_555
C18D N4A 1_555 1_555
C19D H11D 1_555 1_555
C20D C21A 1_555 1_555
O3E C18E 1_555 1_555
C18E N4 1_555 1_555
C19E C19D 1_555 1_555
H11E C19E 1_555 1_555
C20E C21 1_555 1_555
Zn1A N3A 1_555 1_555
Zn1_2 Zn1A 1_555 1_555
Zn1_3 O2D 1_555 1_555
Zn1_4 O1E 1_555 1_555
Zn1_5 O2A 1_555 1_555
Zn1A_2 O1D 1_555 1_555
Zn1A_3 O2E 1_555 1_555
Zn1A_4 O1A 1_555 1_555
Zn1A_5 Zn1 1_555 1_555
O1A_2 Zn1A 1_555 1_555
O1D_2 Zn1A 1_555 1_555
O1E_2 Zn1 1_555 1_555
O2_2 Zn1A 1_555 1_555
O2A_2 Zn1 1_555 1_555
O2D_2 Zn1 1_555 1_555
O2E_2 Zn1A 1_555 1_555
O2 Zn1A_5 1_555 1_555
C3 C4 1_555 1_555
C10 C11 1_555 1_555
C16 C17 1_555 1_555
C19 C20 1_555 1_555
C1A C2A 1_555 1_555
C3A C4A 1_555 1_555
C10A C11A 1_555 1_555
C1D C2D 1_555 1_555
C3D C4D 1_555 1_555
C4D C5D 1_555 1_555
C10D C11D 1_555 1_555
C1E C2E 1_555 1_555
C3E C4E 1_555 1_555
C4E C5E 1_555 1_555
C10E C11E 1_555 1_555
C16A C17A 1_555 1_555
C19A C20A 1_555 1_555
C20A C21A 1_555 1_555
C18D C20D 1_555 1_555
C19D C20D 1_555 1_555
C18E C20E 1_555 1_555
C19E C20E 1_555 1_555
Zn1_3 Zn1A_2 1_555 1_555
Zn1_4 Zn1A_3 1_555 1_555
Zn1_5 Zn1A_4 1_555 1_555

#END
