
#######################################################################
#
#                 Cambridge Crystallographic Data Centre
#                                CCDC 
#
#######################################################################
#
# If this CIF has been generated from an entry in the Cambridge 
# Structural Database, then it will include bibliographic, chemical, 
# crystal, experimental, refinement or atomic coordinate data resulting 
# from the CCDC's data processing and validation procedures.
#
#######################################################################

data_XILVIZ
_symmetry_cell_setting           triclinic
_symmetry_space_group_name_H-M   'P -1'
_symmetry_Int_Tables_number      2
_space_group_name_Hall           '-P 1'
loop_
_symmetry_equiv_pos_site_id
_symmetry_equiv_pos_as_xyz
1 x,y,z
2 -x,-y,-z
_cell_length_a                   13.372(3)
_cell_length_b                   14.164(3)
_cell_length_c                   16.713(3)
_cell_angle_alpha                69.626(16)
_cell_angle_beta                 68.786(17)
_cell_angle_gamma                73.544(17)
_cell_volume                     2721.16
loop_
_atom_site_label
_atom_site_type_symbol
_atom_site_fract_x
_atom_site_fract_y
_atom_site_fract_z
Zn1 Zn 0.91777(15) 0.43290(13) 0.04068(10)
Mn1 Mn 0.5000 1.0000 0.5000
O1 O 0.0015(8) 1.3411(7) 0.1251(5)
O2 O 0.1316(8) 1.4455(7) 0.0585(6)
O3 O 0.9669(11) 0.6245(10) 0.0600(8)
O4 O 0.8382(9) 0.5162(9) 0.1260(6)
O5 O 0.7630(12) 0.0212(10) 0.0673(11)
O6 O 0.4967(11) 0.2918(12) 0.0116(10)
N1 N 0.4945(10) 0.9894(9) 0.3881(8)
N2 N 0.6248(10) 0.8881(10) 0.4954(7)
N3 N 0.8304(10) 0.3499(7) 0.0621(8)
N4 N 0.6355(17) 0.1471(16) 0.0406(8)
C1 C 0.0859(15) 1.3672(14) 0.1160(12)
C2 C 0.1582(17) 1.3095(12) 0.1795(11)
C3 C 0.1099(13) 1.2371(15) 0.2497(13)
H1 H 0.0415 1.2259 0.2570
C4 C 0.1740(18) 1.1753(15) 0.3160(11)
H2 H 0.1460 1.1266 0.3680
C5 C 0.2771(16) 1.1969(14) 0.2930(12)
C6 C 0.3148(14) 1.2668(15) 0.2237(13)
H3 H 0.3845 1.2781 0.2121
C7 C 0.2556(15) 1.3246(15) 0.1672(10)
H4 H 0.2846 1.3761 0.1185
C8 C 0.3434(13) 1.1349(12) 0.3590(10)
C9 C 0.4191(13) 1.0535(13) 0.3399(9)
C10 C 0.4425(17) 1.0198(14) 0.2618(9)
H5 H 0.4056 1.0491 0.2188
C11 C 0.5256(13) 0.9396(14) 0.2605(9)
H6 H 0.5565 0.9029 0.2182
C12 C 0.5558(14) 0.9235(11) 0.3385(9)
C13 C 0.6468(13) 0.8458(12) 0.3600(10)
C14 C 0.6706(14) 0.8283(13) 0.4376(11)
C15 C 0.7647(15) 0.7513(13) 0.4601(12)
H7 H 0.8120 0.7070 0.4269
C16 C 0.7692(15) 0.7569(13) 0.5348(11)
H8 H 0.8195 0.7169 0.5654
C17 C 0.6798(15) 0.8382(12) 0.5615(12)
C18 C 0.7008(16) 0.7812(14) 0.3013(11)
C19 C 0.6636(17) 0.6928(16) 0.3109(10)
H9 H 0.6036 0.6735 0.3587
C20 C 0.7178(18) 0.6299(16) 0.2465(15)
H10 H 0.6899 0.5762 0.2474
C21 C 0.8128(15) 0.6585(12) 0.1856(11)
C22 C 0.8551(14) 0.7452(13) 0.1718(11)
H11 H 0.9163 0.7654 0.1259
C23 C 0.789(2) 0.7994(15) 0.2398(14)
H12 H 0.8158 0.8545 0.2379
C24 C 0.8807(19) 0.5917(14) 0.1112(12)
C25 C 0.7968(18) 0.3543(17) -0.0274(12)
H13 H 0.8231 0.4012 -0.0814
C26 C 0.7287(15) 0.2884(17) -0.0240(13)
H14 H 0.7092 0.3033 -0.0757
C27 C 0.6891(16) 0.2085(13) 0.0428(11)
C28 C 0.7150(15) 0.2119(13) 0.1306(10)
H15 H 0.6888 0.1697 0.1874
C29 C 0.7792(9) 0.2828(11) 0.1132(10)
H16 H 0.7868 0.2751 0.1684
C30 C 0.673(2) 0.0477(17) 0.0475(13)
C31 C 0.533(2) 0.198(2) 0.0169(14)
C32 C 0.6704(15) -0.1061(16) 0.0333(10)
H17 H 0.7367 -0.1331 0.0459
C33 C 0.631(2) -0.0080(17) 0.0288(12)
C34 C 0.5228(18) 0.0361(18) 0.0072(10)
C35 C 0.478(2) 0.1384(16) 0.0020(11)
C36 C 0.3782(18) 0.1719(16) -0.0209(15)
H18 H 0.3448 0.2402 -0.0278
O1A O 0.9985(8) 0.6589(7) 0.8749(5)
O2A O 0.8684(8) 0.5545(7) 0.9415(6)
O3A O 0.0331(11) 1.3755(10) 0.9400(8)
O4A O 0.1618(9) 1.4838(9) 0.8740(6)
N1A N 0.5055(10) 1.0106(9) 0.6119(8)
N2A N 0.3752(10) 1.1119(10) 0.5046(7)
C1A C 0.9141(15) 0.6328(14) 0.8840(12)
C2A C 0.8418(17) 0.6905(12) 0.8205(11)
C3A C 0.8901(13) 0.7629(15) 0.7503(13)
H1A H 0.9585 0.7741 0.7430
C4A C 0.8260(18) 0.8247(15) 0.6840(11)
H2A H 0.8540 0.8734 0.6320
C5A C 0.7229(16) 0.8031(14) 0.7070(12)
C6A C 0.6852(14) 0.7332(15) 0.7763(13)
H3A H 0.6155 0.7219 0.7879
C7A C 0.7444(15) 0.6754(15) 0.8328(10)
H4A H 0.7154 0.6239 0.8815
C8A C 0.6566(13) 0.8651(12) 0.6410(10)
C9A C 0.5809(13) 0.9465(13) 0.6601(9)
C10A C 0.5575(17) 0.9802(14) 0.7382(9)
H5A H 0.5944 0.9509 0.7812
C11A C 0.4744(13) 1.0604(14) 0.7395(9)
H6A H 0.4435 1.0971 0.7818
C12A C 0.4442(14) 1.0765(11) 0.6615(9)
C13A C 0.3532(13) 1.1542(12) 0.6400(10)
C14A C 0.3294(14) 1.1717(13) 0.5624(11)
C15A C 0.2353(15) 1.2487(13) 0.5399(12)
H7A H 0.1880 1.2930 0.5731
C16A C 0.2308(15) 1.2431(13) 0.4652(11)
H8A H 0.1805 1.2831 0.4346
C17A C 0.3202(15) 1.1618(12) 0.4385(12)
C18A C 0.2992(16) 1.2188(14) 0.6987(11)
C19A C 0.3364(17) 1.3072(16) 0.6891(10)
H9A H 0.3964 1.3265 0.6413
C20A C 0.2822(18) 1.3701(16) 0.7535(15)
H10A H 0.3101 1.4238 0.7526
C21A C 0.1872(15) 1.3415(12) 0.8144(11)
C22A C 0.1449(14) 1.2548(13) 0.8282(11)
H11A H 0.0837 1.2346 0.8741
C23A C 0.211(2) 1.2006(15) 0.7602(14)
H12A H 0.1842 1.1455 0.7621
C24A C 0.1193(19) 1.4083(14) 0.8888(12)
O5A O 0.2370(12) -0.0212(10) -0.0673(11)
O6A O 0.5033(11) -0.2918(12) -0.0116(10)
N3A N 0.1696(10) -0.3499(7) -0.0621(8)
N4A N 0.3645(17) -0.1471(16) -0.0406(8)
C25A C 0.2032(18) -0.3543(17) 0.0274(12)
H13A H 0.1769 -0.4012 0.0814
C26A C 0.2713(15) -0.2884(17) 0.0240(13)
H14A H 0.2908 -0.3033 0.0757
C27A C 0.3109(16) -0.2085(13) -0.0428(11)
C28A C 0.2850(15) -0.2119(13) -0.1306(10)
H15A H 0.3112 -0.1697 -0.1874
C29A C 0.2208(9) -0.2828(11) -0.1132(10)
H16A H 0.2132 -0.2751 -0.1684
C30A C 0.327(2) -0.0477(17) -0.0475(13)
C31A C 0.467(2) -0.198(2) -0.0169(14)
C32A C 0.3296(15) 0.1061(16) -0.0333(10)
H17A H 0.2633 0.1331 -0.0459
C33A C 0.369(2) 0.0080(17) -0.0288(12)
C34A C 0.4772(18) -0.0361(18) -0.0072(10)
C35A C 0.522(2) -0.1384(16) -0.0020(11)
C36A C 0.6218(18) -0.1719(16) 0.0209(15)
H18A H 0.6552 -0.2402 0.0278
Zn1A Zn 0.08223(15) -0.43290(13) -0.04068(10)
Zn1_2 Zn -0.08223(15) 1.43290(13) 0.04068(10)
Zn1_3 Zn -0.08223(15) 1.43290(13) 1.04068(10)
Zn1_4 Zn 0.91777(15) 0.43290(13) 1.04068(10)
Zn1A_2 Zn 0.08223(15) 1.56710(13) -0.04068(10)
Zn1A_3 Zn 0.08223(15) 1.56710(13) 0.95932(10)
Zn1A_4 Zn 1.08223(15) 0.56710(13) -0.04068(10)
Zn1A_5 Zn 1.08223(15) 0.56710(13) 0.95932(10)
O1_2 O 1.0015(8) 0.3411(7) 0.1251(5)
O1A_2 O -0.0015(8) -0.3411(7) -0.1251(5)
O2_2 O 0.1316(8) -0.5545(7) 0.0585(6)
O2A_2 O 0.8684(8) 0.5545(7) -0.0585(6)
O3_2 O -0.0331(11) -0.3755(10) 0.0600(8)
O3A_2 O 1.0331(11) 0.3755(10) -0.0600(8)
O4A_2 O 0.1618(9) -0.5162(9) -0.1260(6)
C37 C 0.918(3) 0.119(2) -0.162(2)
H19 H 0.9241 0.1855 -0.1699
C38 C 0.983(2) 0.037(3) -0.118(2)
H20 H 1.0329 0.0486 -0.0976
C39 C 0.974(3) -0.063(3) -0.106(2)
H21 H 1.0173 -0.1179 -0.0771
C40 C 0.899(3) -0.081(2) -0.137(2)
H22 H 0.8928 -0.1474 -0.1289
C41 C 0.834(3) 0.001(3) -0.180(2)
H23 H 0.7839 -0.0104 -0.2011
C42 C 0.843(3) 0.101(2) -0.193(2)
C43 C 0.778(5) 0.198(3) -0.233(6)
H24 H 0.7995 0.2610 -0.2541
C44 C 0.684(5) 0.183(5) -0.235(6)
H25 H 0.6652 0.1145 -0.2103
H26 H 0.6337 0.2384 -0.2598
C45 C 0.577(5) 1.313(2) 0.412(4)
H27 H 0.5678 1.3670 0.4353
C46 C 0.625(4) 1.215(2) 0.452(3)
H28 H 0.6475 1.2040 0.5020
C47 C 0.6391(16) 1.1343(15) 0.4182(14)
H29 H 0.6711 1.0689 0.4449
C48 C 0.605(5) 1.151(3) 0.344(3)
H30 H 0.6149 1.0968 0.3212
C49 C 0.558(6) 1.249(4) 0.304(4)
H31 H 0.5352 1.2598 0.2545
C50 C 0.544(5) 1.330(2) 0.338(4)
C51 C 0.496(7) 1.438(3) 0.304(4)
H32 H 0.5137 1.4742 0.2436
C52 C 0.423(6) 1.478(4) 0.370(6)
H33 H 0.4037 1.4465 0.4356
H34 H 0.3800 1.5526 0.3562
loop_
_geom_bond_atom_site_label_1
_geom_bond_atom_site_label_2
_geom_bond_site_symmetry_1
_geom_bond_site_symmetry_2
Zn1 O4 1_555 1_555
Mn1 N1 1_555 1_555
O1 C1 1_555 1_555
O2 C1 1_555 1_555
O3 C24 1_555 1_555
O4 C24 1_555 1_555
O5 C30 1_555 1_555
O6 C31 1_555 1_555
N1 C9 1_555 1_555
N2 Mn1 1_555 1_555
N3 Zn1 1_555 1_555
N4 C27 1_555 1_555
C1 C2 1_555 1_555
C2 C3 1_555 1_555
C3 H1 1_555 1_555
C4 C3 1_555 1_555
H2 C4 1_555 1_555
C5 C4 1_555 1_555
C6 C5 1_555 1_555
H3 C6 1_555 1_555
C7 C2 1_555 1_555
H4 C7 1_555 1_555
C8 C5 1_555 1_555
C9 C8 1_555 1_555
C10 C9 1_555 1_555
H5 C10 1_555 1_555
C11 C10 1_555 1_555
H6 C11 1_555 1_555
C12 N1 1_555 1_555
C13 C12 1_555 1_555
C14 N2 1_555 1_555
C15 C14 1_555 1_555
H7 C15 1_555 1_555
C16 C15 1_555 1_555
H8 C16 1_555 1_555
C17 N2 1_555 1_555
C18 C13 1_555 1_555
C19 C18 1_555 1_555
H9 C19 1_555 1_555
C20 C19 1_555 1_555
H10 C20 1_555 1_555
C21 C20 1_555 1_555
C22 C21 1_555 1_555
H11 C22 1_555 1_555
C23 C18 1_555 1_555
H12 C23 1_555 1_555
C24 C21 1_555 1_555
C25 N3 1_555 1_555
H13 C25 1_555 1_555
C26 C25 1_555 1_555
H14 C26 1_555 1_555
C27 C26 1_555 1_555
C28 C27 1_555 1_555
H15 C28 1_555 1_555
C29 N3 1_555 1_555
H16 C29 1_555 1_555
C30 N4 1_555 1_555
C31 N4 1_555 1_555
C32 H17 1_555 1_555
C33 C30 1_555 1_555
C34 C33 1_555 1_555
C35 C31 1_555 1_555
C36 C35 1_555 1_555
H18 C36 1_555 1_555
C37 H19 1_555 1_555
C38 C37 1_555 1_555
H20 C38 1_555 1_555
C39 C38 1_555 1_555
H21 C39 1_555 1_555
C40 C39 1_555 1_555
H22 C40 1_555 1_555
C41 C40 1_555 1_555
H23 C41 1_555 1_555
C42 C37 1_555 1_555
C43 C42 1_555 1_555
H24 C43 1_555 1_555
C44 C43 1_555 1_555
H25 C44 1_555 1_555
H26 C44 1_555 1_555
C45 H27 1_555 1_555
C46 C45 1_555 1_555
H28 C46 1_555 1_555
C47 C46 1_555 1_555
H29 C47 1_555 1_555
C48 C47 1_555 1_555
H30 C48 1_555 1_555
C49 C48 1_555 1_555
H31 C49 1_555 1_555
C50 C45 1_555 1_555
C51 C50 1_555 1_555
H32 C51 1_555 1_555
C52 C51 1_555 1_555
H33 C52 1_555 1_555
H34 C52 1_555 1_555
O1A C1A 1_555 1_555
O2A C1A 1_555 1_555
O3A C24A 1_555 1_555
O4A C24A 1_555 1_555
N1A Mn1 1_555 1_555
N2A Mn1 1_555 1_555
C1A C2A 1_555 1_555
C2A C3A 1_555 1_555
C3A H1A 1_555 1_555
C4A C3A 1_555 1_555
H2A C4A 1_555 1_555
C5A C4A 1_555 1_555
C6A C5A 1_555 1_555
H3A C6A 1_555 1_555
C7A C2A 1_555 1_555
H4A C7A 1_555 1_555
C8A C17 1_555 1_555
C9A N1A 1_555 1_555
C10A C9A 1_555 1_555
H5A C10A 1_555 1_555
C11A C10A 1_555 1_555
H6A C11A 1_555 1_555
C12A N1A 1_555 1_555
C13A C12A 1_555 1_555
C14A N2A 1_555 1_555
C15A C14A 1_555 1_555
H7A C15A 1_555 1_555
C16A C15A 1_555 1_555
H8A C16A 1_555 1_555
C17A C8 1_555 1_555
C18A C13A 1_555 1_555
C19A C18A 1_555 1_555
H9A C19A 1_555 1_555
C20A C19A 1_555 1_555
H10A C20A 1_555 1_555
C21A C20A 1_555 1_555
C22A C21A 1_555 1_555
H11A C22A 1_555 1_555
C23A C18A 1_555 1_555
H12A C23A 1_555 1_555
C24A C21A 1_555 1_555
O5A C30A 1_555 1_555
O6A C31A 1_555 1_555
N3A C25A 1_555 1_555
N4A C27A 1_555 1_555
C25A H13A 1_555 1_555
C26A C25A 1_555 1_555
H14A C26A 1_555 1_555
C27A C26A 1_555 1_555
C28A C27A 1_555 1_555
H15A C28A 1_555 1_555
C29A N3A 1_555 1_555
H16A C29A 1_555 1_555
C30A N4A 1_555 1_555
C31A N4A 1_555 1_555
C32A C36 1_555 1_555
H17A C32A 1_555 1_555
C33A C30A 1_555 1_555
C34A C34 1_555 1_555
C35A C31A 1_555 1_555
C36A C32 1_555 1_555
H18A C36A 1_555 1_555
Zn1A N3A 1_555 1_555
Zn1_2 O1 1_555 1_555
Zn1_3 O3A 1_555 1_555
Zn1_4 O2A 1_555 1_555
Zn1A_2 O2 1_555 1_555
Zn1A_3 O4A 1_555 1_555
Zn1A_4 O3 1_555 1_555
Zn1A_5 O1A 1_555 1_555
O1_2 Zn1 1_555 1_555
O1A_2 Zn1A 1_555 1_555
O2_2 Zn1A 1_555 1_555
O2A_2 Zn1 1_555 1_555
O3_2 Zn1A 1_555 1_555
O3A_2 Zn1 1_555 1_555
O4A_2 Zn1A 1_555 1_555
C6 C7 1_555 1_555
C11 C12 1_555 1_555
C13 C14 1_555 1_555
C16 C17 1_555 1_555
C22 C23 1_555 1_555
C28 C29 1_555 1_555
C32 C33 1_555 1_555
C34 C35 1_555 1_555
C41 C42 1_555 1_555
C49 C50 1_555 1_555
N2A C17A 1_555 1_555
C5A C8A 1_555 1_555
C6A C7A 1_555 1_555
C8A C9A 1_555 1_555
C11A C12A 1_555 1_555
C13A C14A 1_555 1_555
C16A C17A 1_555 1_555
C22A C23A 1_555 1_555
C28A C29A 1_555 1_555
C32A C33A 1_555 1_555
C33A C34A 1_555 1_555
C34A C35A 1_555 1_555
C35A C36A 1_555 1_555

#END
