
#######################################################################
#
#                 Cambridge Crystallographic Data Centre
#                                CCDC 
#
#######################################################################
#
# If this CIF has been generated from an entry in the Cambridge 
# Structural Database, then it will include bibliographic, chemical, 
# crystal, experimental, refinement or atomic coordinate data resulting 
# from the CCDC's data processing and validation procedures.
#
#######################################################################

data_XIPBOO
_symmetry_cell_setting           hexagonal
_symmetry_space_group_name_H-M   'P 6/m c c'
_symmetry_Int_Tables_number      192
_space_group_name_Hall           "-P 6 2'c"
loop_
_symmetry_equiv_pos_site_id
_symmetry_equiv_pos_as_xyz
1 x,y,z
2 -y,x-y,z
3 -x+y,-x,z
4 y,-x+y,z
5 x-y,x,z
6 y,x,1/2-z
7 -x+y,y,1/2-z
8 x,x-y,1/2-z
9 -x,-y,z
10 x-y,-y,1/2-z
11 -x,-x+y,1/2-z
12 -y,-x,1/2-z
13 -x,-y,-z
14 y,-x+y,-z
15 x-y,x,-z
16 -y,x-y,-z
17 -x+y,-x,-z
18 -y,-x,1/2+z
19 x-y,-y,1/2+z
20 -x,-x+y,1/2+z
21 x,y,-z
22 -x+y,y,1/2+z
23 x,x-y,1/2+z
24 y,x,1/2+z
_cell_length_a                   15.2120(10)
_cell_length_b                   15.2120(10)
_cell_length_c                   15.451(2)
_cell_angle_alpha                90
_cell_angle_beta                 90
_cell_angle_gamma                120
_cell_volume                     3096.42
loop_
_atom_site_label
_atom_site_type_symbol
_atom_site_fract_x
_atom_site_fract_y
_atom_site_fract_z
O1 O 0.38848(18) 0.80232(19) 0.14294(19)
O2 O 0.3865(2) 0.9398(2) 0.09282(19)
O3 O 0.5136(3) 0.8658(3) 0.0000
H1 H 0.4787 0.8194 -0.0367
N1 N 0.23872(18) 0.76128(18) 0.2500
C1 C 0.3545(3) 0.8634(3) 0.1389(2)
C2 C 0.2653(3) 0.8393(3) 0.1960(2)
C3 C 0.2141(3) 0.8935(3) 0.1935(3)
H2 H 0.2330 0.9469 0.1548
C4 C 0.1343(3) 0.8657(3) 0.2500
H3 H 0.0990 0.9010 0.2500
Gd1 Gd 0.3333 0.6667 0.2500
Co1 Co 0.5000 1.0000 0.0000
O1K O 0.19768(19) 0.61152(18) 0.35706(19)
O1A O 0.19768(19) 0.58616(26) 0.14294(19)
O1G O 0.38848(18) 0.58616(26) 0.35706(19)
O1B O 0.41384(26) 0.61152(18) 0.14294(19)
O1F O 0.41384(26) 0.80232(19) 0.35706(19)
O1T O 0.38848(18) 0.80232(19) -0.14294(19)
O1Q O 0.19768(19) 0.61152(18) -0.35706(19)
O1L O 0.61152(18) 1.19768(19) -0.14294(19)
O1W O 0.80232(19) 1.38848(18) -0.35706(19)
O1H O 0.61152(18) 1.19768(19) 0.14294(19)
O1E O 0.80232(19) 1.38848(18) 0.35706(19)
O1U O 0.41384(26) 0.80232(19) -0.35706(19)
O1V O 0.38848(18) 0.58616(26) -0.35706(19)
O1O O 0.19768(19) 0.58616(26) -0.14294(19)
O1P O 0.41384(26) 0.61152(18) -0.14294(19)
O2K O 0.0602(2) 0.6135(2) 0.40718(19)
O2A O 0.0602(2) 0.4467(3) 0.09282(19)
O2G O 0.3865(2) 0.4467(3) 0.40718(19)
O2B O 0.5533(3) 0.6135(2) 0.09282(19)
O2F O 0.5533(3) 0.9398(2) 0.40718(19)
O2T O 0.3865(2) 0.9398(2) -0.09282(19)
O2Q O 0.0602(2) 0.6135(2) -0.40718(19)
O2L O 0.6135(2) 1.0602(2) -0.09282(19)
O2W O 0.9398(2) 1.3865(2) -0.40718(19)
O2H O 0.6135(2) 1.0602(2) 0.09282(19)
O2E O 0.9398(2) 1.3865(2) 0.40718(19)
O2E_2 O -0.0602(2) 0.3865(2) 0.40718(19)
O2W_2 O -0.0602(2) 0.3865(2) 0.59282(19)
O2Q_2 O 0.0602(2) 0.6135(2) 0.59282(19)
O2C O -0.0602(2) 0.5533(3) 0.09282(19)
O2M O -0.0602(2) 0.5533(3) -0.09282(19)
O2O O 0.0602(2) 0.4467(3) -0.09282(19)
O3L O 0.4864(3) 1.1342(3) 0.0000
O3Q O 0.1342(3) 0.4864(3) 0.5000
O3E O -0.1342(3) 0.5136(3) 0.5000
O3A O 0.1342(3) 0.6478(4) 0.0000
O3C O -0.1342(3) 0.3522(4) 0.0000
H1T H 0.4787 0.8194 0.0367
H1L H 0.5213 1.1806 0.0367
H1H H 0.5213 1.1806 -0.0367
H1K H 0.1806 0.5213 0.5367
H1Q H 0.1806 0.5213 0.4633
H1W H -0.1806 0.4787 0.4633
H1E H -0.1806 0.4787 0.5367
H1A H 0.1806 0.6593 -0.0367
H1O H 0.1806 0.6593 0.0367
H1M H -0.1806 0.3407 0.0367
H1C H -0.1806 0.3407 -0.0367
N1A N 0.23872(18) 0.47744(25) 0.2500
N1B N 0.52256(25) 0.76128(18) 0.2500
N1T N 0.23872(18) 0.76128(18) -0.2500
N1W N 0.76128(18) 1.23872(18) -0.2500
N1E N 0.76128(18) 1.23872(18) 0.2500
N1U N 0.52256(25) 0.76128(18) -0.2500
N1V N 0.23872(18) 0.47744(25) -0.2500
C1K C 0.1366(3) 0.6455(3) 0.3611(2)
C1A C 0.1366(3) 0.4911(4) 0.1389(2)
C1G C 0.3545(3) 0.4911(4) 0.3611(2)
C1B C 0.5089(4) 0.6455(3) 0.1389(2)
C1F C 0.5089(4) 0.8634(3) 0.3611(2)
C1T C 0.3545(3) 0.8634(3) -0.1389(2)
C1Q C 0.1366(3) 0.6455(3) -0.3611(2)
C1L C 0.6455(3) 1.1366(3) -0.1389(2)
C1W C 0.8634(3) 1.3545(3) -0.3611(2)
C1H C 0.6455(3) 1.1366(3) 0.1389(2)
C1E C 0.8634(3) 1.3545(3) 0.3611(2)
C2K C 0.1607(3) 0.7347(3) 0.3040(2)
C2A C 0.1607(3) 0.4260(4) 0.1960(2)
C2G C 0.2653(3) 0.4260(4) 0.3040(2)
C2B C 0.5740(4) 0.7347(3) 0.1960(2)
C2F C 0.5740(4) 0.8393(3) 0.3040(2)
C2T C 0.2653(3) 0.8393(3) -0.1960(2)
C2Q C 0.1607(3) 0.7347(3) -0.3040(2)
C2L C 0.7347(3) 1.1607(3) -0.1960(2)
C2W C 0.8393(3) 1.2653(3) -0.3040(2)
C2H C 0.7347(3) 1.1607(3) 0.1960(2)
C2E C 0.8393(3) 1.2653(3) 0.3040(2)
C3K C 0.1065(3) 0.7859(3) 0.3065(3)
C3A C 0.1065(3) 0.3206(4) 0.1935(3)
C3G C 0.2141(3) 0.3206(4) 0.3065(3)
C3B C 0.6794(4) 0.7859(3) 0.1935(3)
C3F C 0.6794(4) 0.8935(3) 0.3065(3)
C3T C 0.2141(3) 0.8935(3) -0.1935(3)
C3Q C 0.1065(3) 0.7859(3) -0.3065(3)
C3L C 0.7859(3) 1.1065(3) -0.1935(3)
C3W C 0.8935(3) 1.2141(3) -0.3065(3)
C3H C 0.7859(3) 1.1065(3) 0.1935(3)
C3E C 0.8935(3) 1.2141(3) 0.3065(3)
H2K H 0.0531 0.7670 0.3452
H2A H 0.0531 0.2861 0.1548
H2G H 0.2330 0.2861 0.3452
H2B H 0.7139 0.7670 0.1548
H2F H 0.7139 0.9469 0.3452
H2T H 0.2330 0.9469 -0.1548
H2Q H 0.0531 0.7670 -0.3452
H2L H 0.7670 1.0531 -0.1548
H2W H 0.9469 1.2330 -0.3452
H2H H 0.7670 1.0531 0.1548
H2E H 0.9469 1.2330 0.3452
C4A C 0.1343(3) 0.2686(4) 0.2500
C4B C 0.7314(4) 0.8657(3) 0.2500
C4T C 0.1343(3) 0.8657(3) -0.2500
C4W C 0.8657(3) 1.1343(3) -0.2500
C4E C 0.8657(3) 1.1343(3) 0.2500
H3A H 0.0990 0.1980 0.2500
H3B H 0.8020 0.9010 0.2500
H3T H 0.0990 0.9010 -0.2500
H3W H 0.9010 1.0990 -0.2500
H3E H 0.9010 1.0990 0.2500
Gd1T Gd 0.3333 0.6667 -0.2500
Gd1W Gd 0.6667 1.3333 -0.2500
Gd1C Gd 0.6667 1.3334 0.2500
Co1E Co 0.0000 0.5000 0.5000
Co1A Co 0.0000 0.5000 0.0000
Co1G Co 0.5000 0.5000 0.5000
Co1B Co 0.5000 0.5000 0.0000
Co1F Co 0.5000 1.0000 0.5000
Co1E_2 Co 0.0000 0.5000 -0.5000
Co1E_3 Co 1.0000 1.5000 -0.5000
Co1E_4 Co 1.0000 1.5000 0.5000
O4 O 0.7368(8) 0.9513(12) 0.0000
H4 H 0.7250 0.8906 0.0000
H5 H 0.7968 0.9994 0.0000
O5 O 1.0000 0.0000 0.2500
H6? H 1.0000 0.0000 0.1892
H7? H 1.0355 0.0711 0.2500
loop_
_geom_bond_atom_site_label_1
_geom_bond_atom_site_label_2
_geom_bond_site_symmetry_1
_geom_bond_site_symmetry_2
O1 C1 1_555 1_555
O2 C1 1_555 1_555
O3 H1 1_555 1_555
N1 C2 1_555 1_555
C1 C2 1_555 1_555
C2 C3 1_555 1_555
C3 H2 1_555 1_555
C4 C3 1_555 1_555
H3 C4 1_555 1_555
O4 H4 1_555 1_555
H5 O4 1_555 1_555
Gd1 O1 1_555 1_555
Co1 O2 1_555 1_555
O1K Gd1 1_555 1_555
O1A Gd1 1_555 1_555
O1G Gd1 1_555 1_555
O1B Gd1 1_555 1_555
O1F Gd1 1_555 1_555
O1T C1T 1_555 1_555
O1Q C1Q 1_555 1_555
O1L C1L 1_555 1_555
O1W C1W 1_555 1_555
O1H C1H 1_555 1_555
O1E C1E 1_555 1_555
O1U Gd1T 1_555 1_555
O1V Gd1T 1_555 1_555
O1O Gd1T 1_555 1_555
O1P Gd1T 1_555 1_555
O2K C1K 1_555 1_555
O2A C1A 1_555 1_555
O2G C1G 1_555 1_555
O2B C1B 1_555 1_555
O2F C1F 1_555 1_555
O2T Co1 1_555 1_555
O2Q C1Q 1_555 1_555
O2L Co1 1_555 1_555
O2W C1W 1_555 1_555
O2H Co1 1_555 1_555
O2E C1E 1_555 1_555
O2E_2 Co1E 1_555 1_555
O2W_2 Co1E 1_555 1_555
O2Q_2 Co1E 1_555 1_555
O2C Co1A 1_555 1_555
O2M Co1A 1_555 1_555
O2O Co1A 1_555 1_555
O3L Co1 1_555 1_555
O3Q H1K 1_555 1_555
O3E H1W 1_555 1_555
O3A H1A 1_555 1_555
O3C H1M 1_555 1_555
H1T O3 1_555 1_555
H1L O3L 1_555 1_555
H1H O3L 1_555 1_555
H1Q O3Q 1_555 1_555
H1E O3E 1_555 1_555
H1O O3A 1_555 1_555
H1C O3C 1_555 1_555
N1A Gd1 1_555 1_555
N1B Gd1 1_555 1_555
N1T C2T 1_555 1_555
N1W C2L 1_555 1_555
N1E C2H 1_555 1_555
N1U Gd1T 1_555 1_555
N1V Gd1T 1_555 1_555
C1K O1K 1_555 1_555
C1A O1A 1_555 1_555
C1G O1G 1_555 1_555
C1B O1B 1_555 1_555
C1F O1F 1_555 1_555
C1T O2T 1_555 1_555
C1Q C2Q 1_555 1_555
C1L O2L 1_555 1_555
C1W C2W 1_555 1_555
C1H O2H 1_555 1_555
C1E C2E 1_555 1_555
C2K N1 1_555 1_555
C2A N1A 1_555 1_555
C2G N1A 1_555 1_555
C2B N1B 1_555 1_555
C2F N1B 1_555 1_555
C2T C1T 1_555 1_555
C2Q N1T 1_555 1_555
C2L C1L 1_555 1_555
C2W N1W 1_555 1_555
C2H C1H 1_555 1_555
C2E N1E 1_555 1_555
C3K C4 1_555 1_555
C3A C2A 1_555 1_555
C3G C2G 1_555 1_555
C3B C2B 1_555 1_555
C3F C2F 1_555 1_555
C3T C2T 1_555 1_555
C3Q C2Q 1_555 1_555
C3L C2L 1_555 1_555
C3W C2W 1_555 1_555
C3H C2H 1_555 1_555
C3E C2E 1_555 1_555
H2K C3K 1_555 1_555
H2A C3A 1_555 1_555
H2G C3G 1_555 1_555
H2B C3B 1_555 1_555
H2F C3F 1_555 1_555
H2T C3T 1_555 1_555
H2Q C3Q 1_555 1_555
H2L C3L 1_555 1_555
H2W C3W 1_555 1_555
H2H C3H 1_555 1_555
H2E C3E 1_555 1_555
C4A C3A 1_555 1_555
C4B C3B 1_555 1_555
C4T C3T 1_555 1_555
C4W C3L 1_555 1_555
C4E C3H 1_555 1_555
H3A C4A 1_555 1_555
H3B C4B 1_555 1_555
H3T C4T 1_555 1_555
H3W C4W 1_555 1_555
H3E C4E 1_555 1_555
Gd1T O1T 1_555 1_555
Gd1W O1L 1_555 1_555
Gd1C O1H 1_555 1_555
Co1E O2K 1_555 1_555
Co1A O2A 1_555 1_555
Co1G O2G 1_555 1_555
Co1B O2B 1_555 1_555
Co1F O2F 1_555 1_555
Co1E_2 O2Q 1_555 1_555
Co1E_3 O2W 1_555 1_555
Co1E_4 O2E 1_555 1_555
O3 Co1 1_555 1_555
N1 Gd1 1_555 1_555
O1Q Gd1T 1_555 1_555
O1W Gd1W 1_555 1_555
O1E Gd1C 1_555 1_555
O3Q Co1E 1_555 1_555
O3E Co1E 1_555 1_555
O3A Co1A 1_555 1_555
O3C Co1A 1_555 1_555
N1T Gd1T 1_555 1_555
N1W Gd1W 1_555 1_555
N1E Gd1C 1_555 1_555
C1K C2K 1_555 1_555
C1A C2A 1_555 1_555
C1G C2G 1_555 1_555
C1B C2B 1_555 1_555
C1F C2F 1_555 1_555
C2K C3K 1_555 1_555
C3G C4A 1_555 1_555
C3F C4B 1_555 1_555
C3Q C4T 1_555 1_555
C3W C4W 1_555 1_555
C3E C4E 1_555 1_555

#END
