
#######################################################################
#
#                 Cambridge Crystallographic Data Centre
#                                CCDC 
#
#######################################################################
#
# If this CIF has been generated from an entry in the Cambridge 
# Structural Database, then it will include bibliographic, chemical, 
# crystal, experimental, refinement or atomic coordinate data resulting 
# from the CCDC's data processing and validation procedures.
#
#######################################################################

data_XOBXIW
_symmetry_cell_setting           monoclinic
_symmetry_space_group_name_H-M   'P 21/c'
_symmetry_Int_Tables_number      14
_space_group_name_Hall           '-P 2ybc'
loop_
_symmetry_equiv_pos_site_id
_symmetry_equiv_pos_as_xyz
1 x,y,z
2 -x,1/2+y,1/2-z
3 -x,-y,-z
4 x,1/2-y,1/2+z
_cell_length_a                   11.1487(13)
_cell_length_b                   9.7763(11)
_cell_length_c                   17.9685(17)
_cell_angle_alpha                90
_cell_angle_beta                 126.948(6)
_cell_angle_gamma                90
_cell_volume                     1565.15
loop_
_atom_site_label
_atom_site_type_symbol
_atom_site_fract_x
_atom_site_fract_y
_atom_site_fract_z
Ni1 Ni 0.12049(3) 0.07639(3) 0.364906(17)
Ni2 Ni 0.06678(3) 0.38269(3) 0.307739(17)
Ni3 Ni 0.0000 0.0000 0.5000
Ni4 Ni 0.5000 0.0000 0.5000
O1 O 0.33459(16) 0.15040(16) 0.43749(11)
O2 O 0.29063(18) 0.37459(16) 0.40502(12)
O3 O 0.06332(17) 0.19476(15) 0.25337(10)
O4 O 0.04042(17) 0.25179(16) 0.38677(10)
O5 O 0.15589(17) -0.08594(16) 0.30562(11)
O6 O -0.08777(17) -0.01096(16) 0.28153(11)
O7 O 0.16072(17) -0.02507(17) 0.47593(11)
O8 O -0.0577(2) 0.05234(17) 0.13125(11)
O9 O -0.1798(2) -0.0063(2) 0.36224(12)
O10 O 0.0121(2) 0.20689(18) 0.49742(12)
O11 O 0.40238(19) -0.1072(2) 0.37900(12)
O12 O 0.38864(19) -0.11095(18) 0.53654(13)
C1 C 0.3737(2) 0.2750(2) 0.44540(16)
H1 H 0.4761 0.2929 0.4860
C2 C 0.0192(3) 0.2851(2) 0.44620(17)
H2 H 0.0078 0.3779 0.4518
C3 C 0.2708(3) -0.1330(3) 0.31605(16)
H3 H 0.2535 -0.1941 0.2708
C4 C -0.0050(3) 0.1655(2) 0.16781(15)
H4 H -0.0165 0.2356 0.1290
C5 C 0.2736(3) -0.1021(2) 0.53124(16)
H5 H 0.2683 -0.1568 0.5715
C6 C -0.1906(3) -0.0254(3) 0.29095(16)
H6 H -0.2839 -0.0532 0.2386
Ni1B Ni -0.12049(3) -0.07639(3) 0.635094(17)
Ni1A Ni -0.12049(3) 0.57639(3) 0.135094(17)
Ni1B_2 Ni 0.87951(3) -0.07639(3) 0.635094(17)
Ni2B Ni -0.06678(3) -0.38269(3) 0.692261(17)
Ni2A Ni -0.06678(3) -0.11731(3) 0.192261(17)
Ni2C Ni 0.06678(3) 0.11731(3) 0.807739(17)
Ni2A_2 Ni -0.06678(3) 0.88269(3) 0.192261(17)
Ni2B_2 Ni 0.93322(3) -0.38269(3) 0.692261(17)
Ni4_2 Ni -0.5000 0.0000 0.5000
Ni4C Ni -0.5000 0.5000 0.0000
O1B O 0.66541(16) -0.15040(16) 0.56251(11)
O1B_2 O -0.33459(16) -0.15040(16) 0.56251(11)
O2B O 0.70937(18) -0.37459(16) 0.59498(12)
O2B_2 O -0.29063(18) -0.37459(16) 0.59498(12)
O3A O -0.06332(17) 0.69476(15) 0.24663(10)
O3B O -0.06332(17) -0.19476(15) 0.74663(10)
O4B O -0.04042(17) -0.25179(16) 0.61323(10)
O5A O -0.15589(17) 0.41406(16) 0.19438(11)
O5B O -0.15589(17) 0.08594(16) 0.69438(11)
O5C O 0.15589(17) -0.41406(16) 0.80562(11)
O6B O 0.08777(17) 0.01096(16) 0.71847(11)
O6A O 0.08777(17) 0.48904(16) 0.21847(11)
O6C O -0.08777(17) -0.48904(16) 0.78153(11)
O7B O -0.16072(17) 0.02507(17) 0.52407(11)
O8A O 0.0577(2) 0.55234(17) 0.36875(11)
O8C O -0.0577(2) -0.55234(17) 0.63125(11)
O9B O 0.1798(2) 0.0063(2) 0.63776(12)
O10B O -0.0121(2) -0.20689(18) 0.50258(12)
O11A O -0.40238(19) 0.3928(2) 0.12100(12)
O11B O 0.59762(19) 0.1072(2) 0.62100(12)
O12B O -0.38864(19) 0.11095(18) 0.46346(13)
O12B_2 O 0.61136(19) 0.11095(18) 0.46346(13)
C1B C 0.6263(2) -0.2750(2) 0.55460(16)
H1B H 0.5239 -0.2929 0.5140
C2B C -0.0192(3) -0.2851(2) 0.55380(17)
H2B H -0.0078 -0.3779 0.5482
C3A C -0.2708(3) 0.3670(3) 0.18395(16)
H3A H -0.2535 0.3059 0.2292
C4A C 0.0050(3) 0.6655(2) 0.33219(15)
H4A H 0.0165 0.7356 0.3710
C5B C -0.2736(3) 0.1021(2) 0.46876(16)
H5B H -0.2683 0.1568 0.4285
C6B C 0.1906(3) 0.0254(3) 0.70905(16)
H6B H 0.2839 0.0532 0.7614
O13 O 0.291(2) -0.045(2) 0.1013(14)
O14 O 0.381(2) 0.145(2) 0.2004(13)
O15? O 0.391(2) 0.080(2) 0.1359(13)
loop_
_geom_bond_atom_site_label_1
_geom_bond_atom_site_label_2
_geom_bond_site_symmetry_1
_geom_bond_site_symmetry_2
Ni1 O1 1_555 1_555
Ni2 O2 1_555 1_555
Ni3 O7 1_555 1_555
Ni4 O1 1_555 1_555
O1 C1 1_555 1_555
O2 C1 1_555 1_555
O3 Ni1 1_555 1_555
O4 Ni1 1_555 1_555
O5 Ni1 1_555 1_555
O6 Ni1 1_555 1_555
O7 Ni1 1_555 1_555
O8 C4 1_555 1_555
O9 Ni3 1_555 1_555
O10 Ni3 1_555 1_555
O11 Ni4 1_555 1_555
O12 Ni4 1_555 1_555
C1 H1 1_555 1_555
C2 O4 1_555 1_555
H2 C2 1_555 1_555
C3 O5 1_555 1_555
H3 C3 1_555 1_555
C4 O3 1_555 1_555
H4 C4 1_555 1_555
C5 O7 1_555 1_555
H5 C5 1_555 1_555
C6 O6 1_555 1_555
H6 C6 1_555 1_555
Ni1B O1B_2 1_555 1_555
Ni1A O3A 1_555 1_555
Ni1B_2 O1B 1_555 1_555
Ni2B O2B_2 1_555 1_555
Ni2A O5 1_555 1_555
Ni2C O5B 1_555 1_555
Ni2A_2 O3A 1_555 1_555
Ni2B_2 O2B 1_555 1_555
Ni4_2 O1B_2 1_555 1_555
Ni4C O11A 1_555 1_555
O1B Ni4 1_555 1_555
O2B C1B 1_555 1_555
O3A C4A 1_555 1_555
O3B Ni1B 1_555 1_555
O4B Ni1B 1_555 1_555
O5A Ni2 1_555 1_555
O5B Ni1B 1_555 1_555
O5C Ni2B 1_555 1_555
O6B Ni1B 1_555 1_555
O6A Ni2 1_555 1_555
O6C Ni2B 1_555 1_555
O7B Ni3 1_555 1_555
O8A Ni2 1_555 1_555
O8C Ni2B 1_555 1_555
O9B Ni3 1_555 1_555
O10B Ni3 1_555 1_555
O11A C3A 1_555 1_555
O11B Ni4 1_555 1_555
O12B Ni4_2 1_555 1_555
O12B_2 Ni4 1_555 1_555
C1B O1B 1_555 1_555
H1B C1B 1_555 1_555
C2B O4B 1_555 1_555
H2B C2B 1_555 1_555
C3A O5A 1_555 1_555
H3A C3A 1_555 1_555
C4A O8A 1_555 1_555
H4A C4A 1_555 1_555
C5B O7B 1_555 1_555
H5B C5B 1_555 1_555
C6B O6B 1_555 1_555
H6B C6B 1_555 1_555
Ni2 O3 1_555 1_555
Ni2 O4 1_555 1_555
O6 Ni2A 1_555 1_555
O8 Ni2A 1_555 1_555
O9 C6 1_555 1_555
O10 C2 1_555 1_555
O11 C3 1_555 1_555
O12 C5 1_555 1_555
Ni1B O7B 1_555 1_555
Ni1A O5A 1_555 1_555
Ni1A O6A 1_555 1_555
Ni2B O3B 1_555 1_555
Ni2B O4B 1_555 1_555
Ni2C O6B 1_555 1_555
O9B C6B 1_555 1_555
O10B C2B 1_555 1_555
O12B C5B 1_555 1_555

#END
