
#######################################################################
#
#                 Cambridge Crystallographic Data Centre
#                                CCDC 
#
#######################################################################
#
# If this CIF has been generated from an entry in the Cambridge 
# Structural Database, then it will include bibliographic, chemical, 
# crystal, experimental, refinement or atomic coordinate data resulting 
# from the CCDC's data processing and validation procedures.
#
#######################################################################

data_XOFPIT
_symmetry_cell_setting           monoclinic
_symmetry_space_group_name_H-M   'P 21/c'
_symmetry_Int_Tables_number      14
_space_group_name_Hall           '-P 2ybc'
loop_
_symmetry_equiv_pos_site_id
_symmetry_equiv_pos_as_xyz
1 x,y,z
2 -x,1/2+y,1/2-z
3 -x,-y,-z
4 x,1/2-y,1/2+z
_cell_length_a                   11.8861(3)
_cell_length_b                   20.3996(6)
_cell_length_c                   9.7156(3)
_cell_angle_alpha                90
_cell_angle_beta                 99.59
_cell_angle_gamma                90
_cell_volume                     2322.84
loop_
_atom_site_label
_atom_site_type_symbol
_atom_site_fract_x
_atom_site_fract_y
_atom_site_fract_z
C1 C 1.0075(4) 0.0980(2) 0.9726(5)
C2 C 1.0141(4) 0.1667(2) 0.9194(5)
C3 C 0.9418(4) 0.1863(3) 0.8001(5)
H1 H 0.8958 0.1553 0.7478
C4 C 0.9362(4) 0.2501(3) 0.7573(5)
C5 C 1.0040(5) 0.2959(3) 0.8359(6)
H2 H 0.9999 0.3399 0.8098
C6 C 1.0787(5) 0.2760(3) 0.9548(6)
C7 C 1.0866(4) 0.2111(2) 0.9977(5)
H3 H 1.1381 0.1979 1.0755
C8 C 0.8460(6) 0.2647(3) 0.6225(7)
C9 C 1.3585(4) 0.1025(2) 1.3445(5)
C10 C 1.4264(4) 0.1493(2) 1.4429(5)
C11 C 1.4068(4) 0.2167(2) 1.4295(5)
H4 H 1.3542 0.2335 1.3564
C12 C 1.4681(4) 0.2578(2) 1.5284(5)
C13 C 1.5467(4) 0.2344(2) 1.6384(5)
H5 H 1.5854 0.2630 1.7045
C14 C 1.5666(4) 0.1676(2) 1.6485(5)
C15 C 1.5077(3) 0.1255(2) 1.5504(5)
H6 H 1.5228 0.0808 1.5565
C16 C 1.6560(4) 0.1418(2) 1.7638(5)
N1 N 1.1471(6) 0.3246(3) 1.0428(6)
N2 N 1.4511(5) 0.3288(2) 1.5146(6)
O1 O 1.1409(3) 0.00820(17) 1.3397(4)
O2 O 1.2786(4) 0.0078(2) 1.0463(4)
O3 O 1.2759(3) 0.12232(17) 1.2555(4)
O4 O 1.3811(3) 0.04192(16) 1.3556(4)
O5 O 1.7026(3) 0.08853(18) 1.7371(4)
O6 O 1.0751(3) 0.08167(17) 1.0791(4)
O7 O 0.9320(3) 0.06151(17) 0.9110(4)
O8 O 1.6791(4) 0.1732(2) 1.8717(4)
O9 O 0.8089(4) 0.2227(3) 0.5470(5)
O10 O 0.8267(4) 0.3279(3) 0.6125(5)
O11 O 1.1282(7) 0.3816(2) 1.0163(6)
O12 O 1.2179(5) 0.3063(3) 1.1368(6)
O13 O 1.3830(6) 0.3487(2) 1.4172(6)
O14 O 1.5048(4) 0.36423(19) 1.6011(5)
U1 U 1.21037(2) 0.00899(2) 1.19293(2)
O5B O 1.2974(3) -0.08853(18) 1.2629(4)
O7B O 1.0680(3) -0.06151(17) 1.0890(4)
U1B U 0.78963(2) -0.00899(2) 0.80707(2)
U1B_2 U 1.78963(2) -0.00899(2) 1.80707(2)
C17 C 0.3490(8) 0.0068(4) 0.7314(11)
H7 H 0.4100 -0.0157 0.6978
H8 H 0.3647 0.0087 0.8315
H9 H 0.3424 0.0505 0.6943
C18 C 0.1458(7) -0.0066(4) 0.7213(9)
H10 H 0.0880 -0.0375 0.6834
H11 H 0.1267 0.0359 0.6816
H12 H 0.1505 -0.0045 0.8208
C19 C 0.2571(9) -0.0876(4) 0.6222(9)
H13 H 0.3339 -0.0941 0.6062
H14 H 0.2060 -0.0879 0.5346
H15 H 0.2368 -0.1222 0.6804
N3 N 0.2492(8) -0.0262(5) 0.6898(15)
loop_
_geom_bond_atom_site_label_1
_geom_bond_atom_site_label_2
_geom_bond_site_symmetry_1
_geom_bond_site_symmetry_2
C1 C2 1_555 1_555
C2 C3 1_555 1_555
C3 H1 1_555 1_555
C4 C3 1_555 1_555
C5 C4 1_555 1_555
H2 C5 1_555 1_555
C6 C5 1_555 1_555
C7 C2 1_555 1_555
H3 C7 1_555 1_555
C8 C4 1_555 1_555
C9 C10 1_555 1_555
C10 C11 1_555 1_555
C11 H4 1_555 1_555
C12 C11 1_555 1_555
C13 C12 1_555 1_555
H5 C13 1_555 1_555
C14 C13 1_555 1_555
C15 C10 1_555 1_555
H6 C15 1_555 1_555
C16 C14 1_555 1_555
N1 C6 1_555 1_555
N2 C12 1_555 1_555
O1 U1 1_555 1_555
O2 U1 1_555 1_555
O3 C9 1_555 1_555
O4 C9 1_555 1_555
O5 C16 1_555 1_555
O6 C1 1_555 1_555
O7 C1 1_555 1_555
O8 C16 1_555 1_555
O9 C8 1_555 1_555
O10 C8 1_555 1_555
O11 N1 1_555 1_555
O12 N1 1_555 1_555
O13 N2 1_555 1_555
O14 N2 1_555 1_555
U1 O3 1_555 1_555
C17 H7 1_555 1_555
H8 C17 1_555 1_555
H9 C17 1_555 1_555
C18 H10 1_555 1_555
H11 C18 1_555 1_555
H12 C18 1_555 1_555
C19 H13 1_555 1_555
H14 C19 1_555 1_555
H15 C19 1_555 1_555
N3 C17 1_555 1_555
O5B U1 1_555 1_555
O7B U1 1_555 1_555
U1B O7 1_555 1_555
U1B_2 O5 1_555 1_555
C6 C7 1_555 1_555
C14 C15 1_555 1_555
O4 U1 1_555 1_555
O6 U1 1_555 1_555
C18 N3 1_555 1_555
C19 N3 1_555 1_555

#END
