
#######################################################################
#
#                 Cambridge Crystallographic Data Centre
#                                CCDC 
#
#######################################################################
#
# If this CIF has been generated from an entry in the Cambridge 
# Structural Database, then it will include bibliographic, chemical, 
# crystal, experimental, refinement or atomic coordinate data resulting 
# from the CCDC's data processing and validation procedures.
#
#######################################################################

data_XOHJUA
_symmetry_cell_setting           monoclinic
_symmetry_space_group_name_H-M   'P 21/c'
_symmetry_Int_Tables_number      14
_space_group_name_Hall           '-P 2ybc'
loop_
_symmetry_equiv_pos_site_id
_symmetry_equiv_pos_as_xyz
1 x,y,z
2 -x,1/2+y,1/2-z
3 -x,-y,-z
4 x,1/2-y,1/2+z
_cell_length_a                   9.5454(3)
_cell_length_b                   21.5679(8)
_cell_length_c                   9.1550(3)
_cell_angle_alpha                90
_cell_angle_beta                 116.278(2)
_cell_angle_gamma                90
_cell_volume                     1690
loop_
_atom_site_label
_atom_site_type_symbol
_atom_site_fract_x
_atom_site_fract_y
_atom_site_fract_z
Cu1 Cu 0.69081(14) 0.85425(6) 0.54875(18)
La1 La 1.64235(5) 0.99062(2) 0.87878(5)
C1 C 1.2399(10) 0.9696(5) 0.7236(11)
C2 C 1.1094(10) 0.9330(4) 0.5934(11)
C3 C 0.9831(11) 0.9154(5) 0.6174(12)
H1 H 0.9786 0.9282 0.7122
C4 C 0.8771(12) 0.8623(5) 0.3760(12)
H2 H 0.8001 0.8364 0.3025
C5 C 0.9967(13) 0.8797(6) 0.3404(13)
H3 H 0.9975 0.8675 0.2433
C6 C 1.1146(11) 0.9151(5) 0.4501(11)
H4 H 1.1975 0.9271 0.4293
C7 C 2.0071(9) 0.9658(5) 1.0109(10)
C8 C 0.5228(10) 0.9661(5) 0.4966(10)
C9 C 0.4328(12) 0.8035(5) 0.5990(14)
H5 H 0.4121 0.8443 0.6159
C10 C 0.3393(14) 0.7574(6) 0.6131(15)
H6 H 0.2581 0.7671 0.6392
C11 C 0.3685(12) 0.6968(5) 0.5880(14)
H7 H 0.3090 0.6647 0.5995
C12 C 0.4876(10) 0.6844(4) 0.5456(11)
C13 C 0.5249(10) 0.6199(5) 0.5098(10)
C14 C 0.5750(11) 0.7330(4) 0.5328(12)
H8 H 0.6539 0.7243 0.5023
N1 N 0.8639(9) 0.8800(4) 0.5094(10)
N2 N 0.5520(10) 0.7927(4) 0.5622(11)
O1 O 1.3673(7) 0.9689(3) 0.7139(7)
O2 O 1.2152(8) 0.9961(3) 0.8318(8)
O3 O 1.8841(7) 0.9338(3) 0.9502(8)
O4 O 2.1435(7) 0.9435(3) 1.0884(8)
O5 O 0.6190(7) 0.9419(3) 0.6273(7)
O6 O 0.4606(7) 0.9394(3) 0.3614(7)
O7 O 0.6141(8) 0.6151(3) 0.4422(9)
O8 O 0.4688(8) 0.5742(3) 0.5486(8)
Cu1B Cu 0.30919(14) 1.14575(6) 0.45125(18)
Cu1B_2 Cu 2.30919(14) 1.14575(6) 1.45125(18)
Cu1C Cu 1.69081(14) 0.64575(6) 1.04875(18)
La1B La 0.35765(5) 1.00938(2) 0.12122(5)
La1B_2 La 1.35765(5) 1.00938(2) 1.12122(5)
La1B_3 La 2.35765(5) 1.00938(2) 1.12122(5)
La1_2 La 0.64235(5) 0.99062(2) 0.87878(5)
La1C La 0.64235(5) 0.50938(2) 0.37878(5)
La1A La 0.35765(5) 0.49062(2) 0.62122(5)
C1B C 1.7601(10) 1.0304(5) 1.2764(11)
C2B C 1.8906(10) 1.0670(4) 1.4066(11)
C3B C 2.0169(11) 1.0846(5) 1.3826(12)
H1B H 2.0214 1.0718 1.2878
C4B C 2.1229(12) 1.1377(5) 1.6240(12)
H2B H 2.1999 1.1636 1.6975
C5B C 2.0033(13) 1.1203(6) 1.6596(13)
H3B H 2.0025 1.1325 1.7567
C6B C 1.8854(11) 1.0849(5) 1.5499(11)
H4B H 1.8025 1.0729 1.5707
C7B C 1.9929(9) 1.0342(5) 0.9891(10)
C8B C 0.4772(10) 1.0339(5) 0.5034(10)
C9C C 1.4328(12) 0.6965(5) 1.0990(14)
H5C H 1.4121 0.6557 1.1159
C10C C 1.3393(14) 0.7426(6) 1.1131(15)
H6C H 1.2581 0.7329 1.1392
C11C C 1.3685(12) 0.8032(5) 1.0880(14)
H7C H 1.3090 0.8353 1.0995
C12C C 1.4876(10) 0.8156(4) 1.0456(11)
C13C C 1.5249(10) 0.8801(5) 1.0098(10)
C14C C 1.5750(11) 0.7670(4) 1.0328(12)
H8C H 1.6539 0.7757 1.0023
N1B N 2.1361(9) 1.1200(4) 1.4906(10)
N1B_2 N 0.1361(9) 1.1200(4) 0.4906(10)
N2C N 1.5520(10) 0.7073(4) 1.0622(11)
N2B N 0.4480(10) 1.2073(4) 0.4378(11)
O1B O 1.6327(7) 1.0311(3) 1.2861(7)
O1B_2 O 0.6327(7) 1.0311(3) 0.2861(7)
O2B O 1.7848(8) 1.0039(3) 1.1682(8)
O2_2 O 0.2152(8) 0.9961(3) -0.1682(8)
O3B O 2.1159(7) 1.0662(3) 1.0498(8)
O3B_2 O 0.1159(7) 1.0662(3) 0.0498(8)
O4B O 1.8565(7) 1.0565(3) 0.9116(8)
O4_2 O 0.1435(7) 0.9435(3) 0.0884(8)
O5B O 0.3810(7) 1.0581(3) 0.3727(7)
O5_2 O 1.6190(7) 0.9419(3) 0.6273(7)
O6B O 0.5394(7) 1.0606(3) 0.6386(7)
O6B_2 O 1.5394(7) 1.0606(3) 0.6386(7)
O7C O 1.6141(8) 0.8849(3) 0.9422(9)
O7A O 0.3859(8) 1.1151(3) 0.0578(9)
O8C O 1.4688(8) 0.9258(3) 1.0486(8)
O8A O 1.5312(8) 1.0742(3) 0.9514(8)
O8C_2 O 0.4688(8) 0.9258(3) 0.0486(8)
O9 O 0.910(5) 0.6993(13) 0.446(4)
H9 H 0.8779 0.6934 0.3458
H10 H 0.8411 0.6820 0.4712
loop_
_geom_bond_atom_site_label_1
_geom_bond_atom_site_label_2
_geom_bond_site_symmetry_1
_geom_bond_site_symmetry_2
Cu1 N1 1_555 1_555
La1 O1 1_555 1_555
C1 C2 1_555 1_555
C2 C3 1_555 1_555
C3 H1 1_555 1_555
C4 H2 1_555 1_555
C5 C4 1_555 1_555
H3 C5 1_555 1_555
C6 C2 1_555 1_555
H4 C6 1_555 1_555
C7 O3 1_555 1_555
C8 O5 1_555 1_555
C9 H5 1_555 1_555
C10 C9 1_555 1_555
H6 C10 1_555 1_555
C11 C10 1_555 1_555
H7 C11 1_555 1_555
C12 C11 1_555 1_555
C13 C12 1_555 1_555
C14 C12 1_555 1_555
H8 C14 1_555 1_555
N1 C3 1_555 1_555
N2 Cu1 1_555 1_555
O1 C1 1_555 1_555
O2 C1 1_555 1_555
O3 La1 1_555 1_555
O4 C7 1_555 1_555
O5 Cu1 1_555 1_555
O6 C8 1_555 1_555
O7 C13 1_555 1_555
O8 C13 1_555 1_555
O9 H9 1_555 1_555
H10 O9 1_555 1_555
Cu1B N1B_2 1_555 1_555
Cu1B_2 N1B 1_555 1_555
Cu1C N2C 1_555 1_555
La1B O6 1_555 1_555
La1B_2 O2 1_555 1_555
La1B_3 O4 1_555 1_555
La1_2 O5 1_555 1_555
La1C O7 1_555 1_555
La1A O8 1_555 1_555
C1B C2B 1_555 1_555
C2B C3B 1_555 1_555
C3B H1B 1_555 1_555
C4B H2B 1_555 1_555
C5B C4B 1_555 1_555
H3B C5B 1_555 1_555
C6B C2B 1_555 1_555
H4B C6B 1_555 1_555
C7B C7 1_555 1_555
C8B C8 1_555 1_555
C9C H5C 1_555 1_555
C10C C9C 1_555 1_555
H6C C10C 1_555 1_555
C11C C10C 1_555 1_555
H7C C11C 1_555 1_555
C12C C11C 1_555 1_555
C13C C12C 1_555 1_555
C14C C12C 1_555 1_555
H8C C14C 1_555 1_555
N1B C3B 1_555 1_555
N2C C9C 1_555 1_555
N2B Cu1B 1_555 1_555
O1B La1B_2 1_555 1_555
O1B_2 La1B 1_555 1_555
O2B La1 1_555 1_555
O2_2 La1B 1_555 1_555
O3B La1B_3 1_555 1_555
O3B_2 La1B 1_555 1_555
O4B La1 1_555 1_555
O4_2 La1B 1_555 1_555
O5B Cu1B 1_555 1_555
O5_2 La1 1_555 1_555
O6B La1_2 1_555 1_555
O6B_2 La1 1_555 1_555
O7C La1 1_555 1_555
O7A La1B 1_555 1_555
O8C La1B_2 1_555 1_555
O8A La1 1_555 1_555
O8C_2 La1B 1_555 1_555
C4 N1 1_555 1_555
C5 C6 1_555 1_555
C9 N2 1_555 1_555
C14 N2 1_555 1_555
La1B O5B 1_555 1_555
C1B O1B 1_555 1_555
C1B O2B 1_555 1_555
C4B N1B 1_555 1_555
C5B C6B 1_555 1_555
C7B O3B 1_555 1_555
C7B O4B 1_555 1_555
C8B O5B 1_555 1_555
C8B O6B 1_555 1_555
C13C O7C 1_555 1_555
C13C O8C 1_555 1_555
C14C N2C 1_555 1_555

#END
