
#######################################################################
#
#                 Cambridge Crystallographic Data Centre
#                                CCDC 
#
#######################################################################
#
# If this CIF has been generated from an entry in the Cambridge 
# Structural Database, then it will include bibliographic, chemical, 
# crystal, experimental, refinement or atomic coordinate data resulting 
# from the CCDC's data processing and validation procedures.
#
#######################################################################

data_XOHLEM01
_symmetry_cell_setting           orthorhombic
_symmetry_space_group_name_H-M   'C 2 2 21'
_symmetry_Int_Tables_number      20
_space_group_name_Hall           'C 2n 2'
loop_
_symmetry_equiv_pos_site_id
_symmetry_equiv_pos_as_xyz
1 x,y,z
2 -x,-y,1/2+z
3 -x,y,1/2-z
4 x,-y,-z
5 1/2+x,1/2+y,z
6 1/2-x,1/2-y,1/2+z
7 1/2-x,1/2+y,1/2-z
8 1/2+x,1/2-y,-z
_cell_length_a                   12.971(3)
_cell_length_b                   16.715(3)
_cell_length_c                   15.828(3)
_cell_angle_alpha                90
_cell_angle_beta                 90
_cell_angle_gamma                90
_cell_volume                     3431.67
loop_
_atom_site_label
_atom_site_type_symbol
_atom_site_fract_x
_atom_site_fract_y
_atom_site_fract_z
Zn1 Zn 0.81681(4) 0.05433(2) 0.07621(3)
Zn2 Zn 0.63961(4) -0.08168(3) 0.05664(3)
C1 C 0.7977(3) -0.1132(2) 0.2803(3)
C2 C 0.7635(3) -0.1858(2) 0.3102(3)
H1 H 0.7069 -0.2126 0.2880
C3 C 0.8291(3) -0.2184(2) 0.3848(3)
C4 C 0.9179(4) -0.1854(3) 0.4108(3)
H2 H 0.9581 -0.2120 0.4506
C5 C 0.9529(3) -0.1072(2) 0.3771(3)
C6 C 0.8949(3) -0.0794(2) 0.3116(3)
H3 H 0.9196 -0.0342 0.2837
C7 C 0.7483(3) -0.0773(2) 0.2085(2)
C8 C 0.7943(3) -0.3043(2) 0.4167(3)
C9 C 1.0375(3) -0.0665(3) 0.4228(4)
O1 O 0.7515(2) -0.00241(15) 0.1954(2)
O2 O 0.6966(2) -0.12789(18) 0.15767(18)
O3 O 0.7230(2) -0.34007(15) 0.3823(2)
O4 O 0.8480(2) -0.32287(17) 0.4814(2)
O5 O 1.0516(2) 0.00474(15) 0.39258(19)
O6 O 1.09364(17) -0.10477(14) 0.4709(2)
O7 O 0.7168(3) 0.0000 0.0000
O8 O 0.45993(13) -0.07431(10) 0.09044(11)
Zn1F Zn 0.68319(4) 0.55433(2) 0.42379(3)
Zn1F_2 Zn 0.68319(4) -0.44567(2) 0.42379(3)
Zn1B Zn 1.18319(4) 0.05433(2) 0.42379(3)
Zn1A Zn 1.18319(4) -0.05433(2) 0.57621(3)
Zn1C Zn 0.81681(4) -0.05433(2) -0.07621(3)
Zn1D Zn 0.31681(4) 0.55433(2) 0.07621(3)
Zn1G Zn 0.31681(4) 0.44567(2) -0.07621(3)
Zn2F Zn 0.86039(4) 0.41832(3) 0.44336(3)
Zn2E Zn 0.86039(4) -0.41832(3) 0.55664(3)
Zn2C Zn 0.63961(4) 0.08168(3) -0.05664(3)
C1F C 0.7023(3) 0.3868(2) 0.2197(3)
C2F C 0.7365(3) 0.3142(2) 0.1898(3)
H1F H 0.7931 0.2874 0.2120
C3F C 0.6709(3) 0.2816(2) 0.1152(3)
C4F C 0.5821(4) 0.3146(3) 0.0892(3)
H2F H 0.5419 0.2880 0.0494
C5F C 0.5471(3) 0.3928(2) 0.1229(3)
C6F C 0.6051(3) 0.4206(2) 0.1884(3)
H3F H 0.5804 0.4658 0.2163
C7F C 0.7517(3) 0.4227(2) 0.2915(2)
C8F C 0.7057(3) 0.1957(2) 0.0833(3)
C9F C 0.4625(3) 0.4335(3) 0.0772(4)
O1F O 0.7485(2) 0.49759(15) 0.3046(2)
O2F O 0.8034(2) 0.37211(18) 0.34233(18)
O3F O 0.7770(2) 0.15993(15) 0.1177(2)
O3_2 O 0.7230(2) 0.65993(15) 0.3823(2)
O4F O 0.6520(2) 0.17713(17) 0.0186(2)
O4E O 0.6520(2) -0.17713(17) -0.0186(2)
O4C O 0.8480(2) 0.32287(17) 0.5186(2)
O5F O 0.4484(2) 0.50474(15) 0.10742(19)
O5B O 0.9484(2) 0.00474(15) 0.10742(19)
O5D O 0.5516(2) 0.50474(15) 0.39258(19)
O6F O 0.40636(17) 0.39523(14) 0.0291(2)
O6A O 0.90636(17) 0.10477(14) -0.0291(2)
O6G O 0.59364(17) 0.60477(14) 0.5291(2)
O7E O 0.7832(3) 0.5000 0.5000
O8F O 1.04007(13) 0.42569(10) 0.40956(11)
loop_
_geom_bond_atom_site_label_1
_geom_bond_atom_site_label_2
_geom_bond_site_symmetry_1
_geom_bond_site_symmetry_2
Zn1 O1 1_555 1_555
Zn2 O2 1_555 1_555
C1 C2 1_555 1_555
C2 H1 1_555 1_555
C3 C2 1_555 1_555
C4 C3 1_555 1_555
H2 C4 1_555 1_555
C5 C4 1_555 1_555
C6 C1 1_555 1_555
H3 C6 1_555 1_555
C7 C1 1_555 1_555
C8 C3 1_555 1_555
C9 C5 1_555 1_555
O1 C7 1_555 1_555
O2 C7 1_555 1_555
O3 C8 1_555 1_555
O4 C8 1_555 1_555
O5 C9 1_555 1_555
O6 C9 1_555 1_555
O7 Zn1 1_555 1_555
O8 Zn2 1_555 1_555
Zn1F O1F 1_555 1_555
Zn1F_2 O3 1_555 1_555
Zn1B O5 1_555 1_555
Zn1A O6 1_555 1_555
Zn1C O7 1_555 1_555
Zn1D O5F 1_555 1_555
Zn1G O6F 1_555 1_555
Zn2F O2F 1_555 1_555
Zn2E O4 1_555 1_555
Zn2C O7 1_555 1_555
C1F C2F 1_555 1_555
C2F H1F 1_555 1_555
C3F C2F 1_555 1_555
C4F C3F 1_555 1_555
H2F C4F 1_555 1_555
C5F C4F 1_555 1_555
C6F C1F 1_555 1_555
H3F C6F 1_555 1_555
C7F C1F 1_555 1_555
C8F C3F 1_555 1_555
C9F C5F 1_555 1_555
O1F C7F 1_555 1_555
O2F C7F 1_555 1_555
O3F Zn1 1_555 1_555
O3_2 Zn1F 1_555 1_555
O4F Zn2C 1_555 1_555
O4E Zn2 1_555 1_555
O4C Zn2F 1_555 1_555
O5F C9F 1_555 1_555
O5B Zn1 1_555 1_555
O5D Zn1F 1_555 1_555
O6F C9F 1_555 1_555
O6A Zn1 1_555 1_555
O6G Zn1F 1_555 1_555
O7E Zn1F 1_555 1_555
O8F Zn2F 1_555 1_555
Zn2 O7 1_555 1_555
C5 C6 1_555 1_555
Zn2F O7E 1_555 1_555
C5F C6F 1_555 1_555
C8F O3F 1_555 1_555
C8F O4F 1_555 1_555

#END
