
#######################################################################
#
#                 Cambridge Crystallographic Data Centre
#                                CCDC 
#
#######################################################################
#
# If this CIF has been generated from an entry in the Cambridge 
# Structural Database, then it will include bibliographic, chemical, 
# crystal, experimental, refinement or atomic coordinate data resulting 
# from the CCDC's data processing and validation procedures.
#
#######################################################################

data_XOMCIN
_symmetry_cell_setting           triclinic
_symmetry_space_group_name_H-M   'P -1'
_symmetry_Int_Tables_number      2
_space_group_name_Hall           '-P 1'
loop_
_symmetry_equiv_pos_site_id
_symmetry_equiv_pos_as_xyz
1 x,y,z
2 -x,-y,-z
_cell_length_a                   10.9495(17)
_cell_length_b                   22.0856(14)
_cell_length_c                   28.3314(10)
_cell_angle_alpha                100.496(2)
_cell_angle_beta                 99.542(3)
_cell_angle_gamma                101.674(2)
_cell_volume                     6449.57
loop_
_atom_site_label
_atom_site_type_symbol
_atom_site_fract_x
_atom_site_fract_y
_atom_site_fract_z
C1 C 0.7884(4) -0.10948(18) 0.19229(14)
C2 C 0.9131(4) -0.07650(18) 0.19615(12)
H1 H 0.9323 -0.0327 0.1998
C3 C 1.0086(4) -0.10853(18) 0.19454(13)
C4 C 0.9817(4) -0.17391(17) 0.19031(13)
H2 H 1.0466 -0.1953 0.1901
C5 C 0.8565(4) -0.20687(17) 0.18638(13)
C6 C 0.7602(4) -0.17336(17) 0.18849(13)
H3 H 0.6770 -0.1949 0.1873
C7 C 0.6777(4) -0.07801(17) 0.19416(14)
C8 C 1.1324(4) -0.07364(18) 0.18959(13)
C9 C 0.8553(4) -0.37431(17) 0.19860(13)
H4 H 0.9021 -0.3955 0.2175
C10 C 0.8894(4) -0.30904(17) 0.20930(14)
H5 H 0.9560 -0.2867 0.2354
C11 C 0.8225(4) -0.27717(17) 0.18030(13)
C12 C 0.7213(4) -0.31312(18) 0.14253(13)
H6 H 0.6744 -0.2929 0.1228
C13 C 0.6912(4) -0.37636(17) 0.13452(14)
H7 H 0.6229 -0.3993 0.1093
C14 C 0.3293(4) -0.50570(18) 0.14907(14)
C15 C 0.3562(4) -0.44172(18) 0.15420(12)
H8 H 0.4376 -0.4205 0.1528
C16 C 0.2637(4) -0.40619(17) 0.16158(13)
C17 C 0.1421(4) -0.43926(18) 0.16427(14)
H9 H 0.0804 -0.4172 0.1705
C18 C 0.1128(4) -0.50698(17) 0.15750(13)
C19 C 0.2017(4) -0.54040(18) 0.14820(13)
H10 H 0.1805 -0.5845 0.1415
C20 C 0.4037(4) -0.24025(18) 0.14973(13)
H11 H 0.4561 -0.2204 0.1315
C21 C 0.3752(4) -0.30712(18) 0.14296(13)
H12 H 0.4097 -0.3315 0.1208
C22 C 0.2924(4) -0.33650(17) 0.17068(14)
C23 C 0.2524(4) -0.29972(17) 0.20443(13)
H13 H 0.2046 -0.3179 0.2247
C24 C 0.2815(4) -0.23415(17) 0.20961(13)
H14 H 0.2489 -0.2099 0.2326
C25 C 0.4326(4) -0.53802(17) 0.13884(13)
C26 C -0.0249(4) -0.53768(18) 0.15513(14)
C27 C 0.2540(4) -0.12844(18) 0.03686(13)
C28 C 0.2882(4) -0.18297(18) 0.01428(14)
H15 H 0.3459 -0.2000 0.0324
C29 C 0.2363(4) -0.21189(17) -0.03524(13)
C30 C 0.1454(4) -0.18553(18) -0.06091(13)
H16 H 0.1075 -0.2050 -0.0935
C31 C 0.1110(4) -0.13227(18) -0.03955(13)
C32 C 0.1730(4) -0.10142(18) 0.00910(13)
H17 H 0.1593 -0.0624 0.0227
C33 C -0.1841(4) -0.12239(17) -0.12472(13)
H18 H -0.2563 -0.1507 -0.1451
C34 C -0.0964(3) -0.14560(17) -0.09836(13)
H19 H -0.1111 -0.1892 -0.1011
C35 C 0.0143(4) -0.10690(18) -0.06749(14)
C36 C 0.0337(4) -0.03902(16) -0.06692(12)
H20 H 0.1082 -0.0096 -0.0497
C37 C -0.0640(4) -0.02200(18) -0.09314(13)
H21 H -0.0562 0.0213 -0.0905
C38 C 0.3070(4) -0.09622(18) 0.09004(13)
C39 C 0.2678(4) -0.26844(18) -0.06260(13)
C40 C 0.2995(4) 0.15041(18) 0.29076(13)
C41 C 0.2316(4) 0.18371(17) 0.26587(14)
H22 H 0.2253 0.1779 0.2321
C42 C 0.1711(4) 0.22615(18) 0.28897(13)
C43 C 0.1897(4) 0.23785(17) 0.33969(13)
H23 H 0.1513 0.2670 0.3557
C44 C 0.2645(4) 0.20723(17) 0.36773(13)
C45 C 0.3166(4) 0.16144(18) 0.34233(13)
H24 H 0.3626 0.1383 0.3595
C46 C 0.0169(4) 0.29604(17) 0.18947(13)
H25 H 0.0301 0.3048 0.1596
C47 C 0.1037(4) 0.26915(17) 0.21574(13)
H26 H 0.1720 0.2591 0.2031
C48 C 0.0859(4) 0.25788(17) 0.26055(13)
C49 C -0.0168(4) 0.27563(17) 0.27913(14)
H27 H -0.0294 0.2708 0.3100
C50 C -0.0974(4) 0.30039(17) 0.24970(13)
H28 H -0.1656 0.3114 0.2619
C51 C 0.3602(4) 0.10518(18) 0.26179(13)
C52 C 0.2818(4) 0.22543(18) 0.42197(13)
C53 C 0.7328(4) 0.19996(18) 0.52956(13)
C54 C 0.7080(4) 0.13644(17) 0.52598(13)
H29 H 0.6274 0.1151 0.5282
C55 C 0.8008(4) 0.10186(18) 0.51897(13)
C56 C 0.9237(4) 0.13568(18) 0.51713(13)
H30 H 0.9861 0.1135 0.5125
C57 C 0.9542(4) 0.20142(17) 0.52209(13)
C58 C 0.8586(3) 0.23675(18) 0.52886(13)
H31 H 0.8764 0.2806 0.5326
C59 C 0.6594(4) -0.06586(17) 0.52732(13)
H32 H 0.6063 -0.0861 0.5451
C60 C 0.6893(3) 0.00043(17) 0.53595(13)
H33 H 0.6559 0.0240 0.5590
C61 C 0.7684(4) 0.03021(18) 0.50995(13)
C62 C 0.8197(4) -0.00510(19) 0.47573(14)
H34 H 0.8761 0.0155 0.4593
C63 C 0.7868(4) -0.07088(19) 0.46613(14)
H35 H 0.8173 -0.0944 0.4420
C64 C 0.6265(3) 0.23374(17) 0.53354(12)
C65 C 1.0847(4) 0.23323(18) 0.51940(13)
C66 C 0.2623(4) 0.46549(17) 0.62764(14)
C67 C 0.2825(4) 0.47909(18) 0.67805(13)
H36 H 0.3330 0.4582 0.6958
C68 C 0.2279(4) 0.52410(17) 0.70309(12)
C69 C 0.1530(4) 0.55404(18) 0.67552(13)
H37 H 0.1195 0.5852 0.6918
C70 C 0.1252(4) 0.53923(17) 0.62340(13)
C71 C 0.1863(4) 0.49711(18) 0.60013(15)
H38 H 0.1773 0.4896 0.5662
C72 C -0.1497(4) 0.61271(18) 0.58694(13)
H39 H -0.2155 0.6254 0.5999
C73 C -0.0674(4) 0.58468(18) 0.61472(14)
H40 H -0.0813 0.5768 0.6448
C74 C 0.0365(3) 0.56879(16) 0.59609(13)
C75 C 0.0518(4) 0.58039(17) 0.55004(13)
H41 H 0.1183 0.5697 0.5365
C76 C -0.0349(4) 0.60835(16) 0.52490(13)
H42 H -0.0225 0.6181 0.4952
C77 C 0.3166(4) 0.41751(19) 0.59909(13)
C78 C 0.2498(4) 0.54243(17) 0.75735(12)
C79 C 0.1659(4) 0.47650(18) 0.93624(14)
H43 H 0.0992 0.4548 0.9100
C80 C 0.1512(4) 0.47597(18) 0.98441(13)
H44 H 0.0752 0.4539 0.9902
C81 C 0.2514(3) 0.50877(17) 1.02356(14)
H45 H 0.2428 0.5086 1.0557
C82 C 0.3658(4) 0.54218(18) 1.01433(14)
H46 H 0.4328 0.5645 1.0403
C83 C 0.3780(4) 0.54155(18) 0.96626(14)
H47 H 0.4537 0.5632 0.9601
C84 C 0.4141(4) 0.21534(18) 0.72958(13)
H48 H 0.4217 0.1723 0.7215
H49 H 0.3555 0.2184 0.7511
H50 H 0.4961 0.2426 0.7456
C85 C 0.2636(4) 0.27219(18) 0.67539(13)
H51 H 0.2890 0.3029 0.6567
H52 H 0.2531 0.2934 0.7066
H53 H 0.1843 0.2435 0.6578
C86 C 0.3880(4) 0.20493(19) 0.63603(14)
C87 C 0.4934(4) 0.16993(18) 0.64198(14)
H54 H 0.5066 0.1522 0.6102
H55 H 0.4695 0.1365 0.6585
H56 H 0.5708 0.1989 0.6610
N1 N 0.7586(3) -0.40866(14) 0.16255(10)
N2 N 0.3536(3) -0.20445(14) 0.18336(11)
N3 N -0.1707(3) -0.06077(15) -0.12251(11)
N4 N -0.0869(3) 0.30985(14) 0.20647(11)
N5 N 0.7074(3) -0.10168(15) 0.49296(11)
N6 N -0.1358(3) 0.62157(15) 0.54263(11)
N7 N 0.2787(3) 0.50901(15) 0.92756(11)
N8 N 0.3655(3) 0.23532(15) 0.68324(11)
Ni1 Ni 0.39904(5) -0.10697(2) 0.192192(17)
Ni2 Ni 0.31182(5) 0.02689(2) 0.161413(17)
Ni3 Ni 0.34370(4) 0.20096(2) 0.522022(16)
Ni4 Ni 0.26586(4) 0.33915(2) 0.497643(16)
Ni5 Ni 0.21197(5) 0.65038(2) 0.834889(17)
Ni6 Ni 0.28698(5) 0.50900(2) 0.854533(17)
O1 O 0.5934(2) -0.10481(12) 0.21252(9)
O2 O 0.6795(2) -0.02734(12) 0.17958(8)
O3 O 1.1724(2) -0.01600(12) 0.18778(9)
O4 O 1.2204(2) -0.11046(12) 0.19564(9)
O5 O 0.5296(2) -0.50660(12) 0.13139(9)
O6 O 0.4195(2) -0.59733(12) 0.14091(9)
O7 O -0.0528(2) -0.59374(12) 0.15143(9)
O8 O -0.0991(2) -0.50159(12) 0.16119(9)
O9 O 0.2783(2) -0.04405(11) 0.10262(9)
O10 O 0.3672(2) -0.12357(11) 0.11689(8)
O11 O 0.3366(2) -0.29801(12) -0.04134(9)
O12 O 0.2147(2) -0.28356(12) -0.10753(9)
O13 O 0.3412(2) 0.10227(12) 0.21667(9)
O14 O 0.4109(2) 0.06695(11) 0.28305(9)
O15 O 0.3427(2) 0.19684(11) 0.44784(8)
O16 O 0.2381(2) 0.27034(11) 0.43774(8)
O17 O 0.5243(2) 0.19560(11) 0.53378(8)
O18 O 0.6426(2) 0.29076(12) 0.53288(9)
O19 O 1.1567(2) 0.19605(10) 0.51300(8)
O20 O 1.1190(2) 0.29313(11) 0.52340(8)
O21 O 0.3008(2) 0.41641(12) 0.55306(9)
O22 O 0.3722(2) 0.38404(12) 0.61892(8)
O23 O 0.2958(2) 0.50819(12) 0.78273(9)
O24 O 0.2111(2) 0.58980(12) 0.77234(9)
O25 O 0.3414(2) 0.21202(11) 0.59542(8)
O26 O 0.4549(2) -0.00583(11) 0.20396(9)
H57 H 0.5259 0.0052 0.1957
H58 H 0.4638 0.0108 0.2342
O27 O 0.4004(2) 0.30218(10) 0.54000(8)
H59 H 0.4736 0.3142 0.5337
H60 H 0.4055 0.3160 0.5705
O28 O 0.3476(2) 0.61247(11) 0.87619(9)
H61 H 0.3512 0.6249 0.9067
H62 H 0.4212 0.6252 0.8705
O29 O 0.4364(2) -0.09441(12) 0.26885(9)
H63 H 0.5174 -0.0863 0.2741
H64 H 0.4161 -0.0609 0.2815
O30 O 0.4512(2) 0.07701(11) 0.13172(9)
H65 H 0.4176 0.0978 0.1129
H66 H 0.5158 0.1056 0.1578
O31 O 0.4144(2) 0.38960(11) 0.47191(8)
H67 H 0.4929 0.3975 0.4955
H68 H 0.3970 0.4292 0.4672
O32 O 0.3764(2) 0.71814(12) 0.82083(9)
H69 H 0.3978 0.7568 0.8456
H70 H 0.3533 0.7272 0.7891
N1A N 0.2414(3) 0.40866(14) 0.83745(10)
N3A N 0.1707(3) 0.06077(15) 0.12251(11)
N4A N 0.0869(3) 0.69015(14) 0.79353(11)
N5A N 0.2926(3) 0.10168(15) 0.50704(11)
N6A N 0.1358(3) 0.37843(15) 0.45737(11)
Ni1_2 Ni 1.39904(5) -0.10697(2) 0.192192(17)
Ni2_2 Ni 1.31182(5) 0.02689(2) 0.161413(17)
Ni2A Ni -0.31182(5) -0.02689(2) -0.161413(17)
Ni3_2 Ni 1.34370(4) 0.20096(2) 0.522022(16)
Ni3A Ni 0.65630(4) -0.20096(2) 0.477978(16)
Ni4_2 Ni 1.26586(4) 0.33915(2) 0.497643(16)
Ni4A Ni -0.26586(4) 0.66085(2) 0.502357(16)
Ni5_2 Ni 0.21197(5) -0.34962(2) -0.165111(17)
Ni5A Ni -0.21197(5) -0.65038(2) 0.165111(17)
Ni5A_2 Ni -0.21197(5) 0.34962(2) 0.165111(17)
Ni6A Ni -0.28698(5) -0.50900(2) 0.145467(17)
Ni6A_2 Ni 0.71302(5) -0.50900(2) 0.145467(17)
O3_2 O 0.1724(2) -0.01600(12) 0.18778(9)
O4_2 O 0.2204(2) -0.11046(12) 0.19564(9)
O5A O 0.4704(2) 0.50660(12) 0.86861(9)
O7A O 0.0528(2) 0.59374(12) 0.84857(9)
O8A O 0.0991(2) 0.50159(12) 0.83881(9)
O12_2 O 0.2147(2) 0.71644(12) 0.89247(9)
O19_2 O 0.1567(2) 0.19605(10) 0.51300(8)
O20_2 O 0.1190(2) 0.29313(11) 0.52340(8)
C88 C 0.4611(7) 0.0149(3) 0.9745(3)
H71 H 0.5302 0.0245 0.9576
H72 H 0.4039 -0.0234 0.9535
C89 C 0.3388(7) 0.0640(4) 0.9113(3)
H73 H 0.2519 0.0397 0.9015
H74 H 0.3897 0.0449 0.8914
H75 H 0.3427 0.1065 0.9072
C90 C 0.3678(8) 0.0977(4) 0.9989(3)
C91 C 0.3089(8) 0.1539(4) 0.9934(3)
H76 H 0.2981 0.1580 0.9599
H77 H 0.3642 0.1920 1.0144
H78 H 0.2274 0.1469 1.0025
N9 N 0.3908(7) 0.0655(3) 0.9662(2)
O33 O 0.3882(5) 0.0963(2) 1.04377(19)
C92 C 0.1373(4) 0.99778(17) 0.32730(14)
H79 H 0.2286 1.0057 0.3340
H80 H 0.1122 1.0313 0.3472
H81 H 0.1062 0.9961 0.2932
C93 C -0.0445(4) 0.92991(18) 0.35436(13)
H82 H -0.1115 0.9052 0.3273
H83 H -0.0589 0.9714 0.3641
H84 H -0.0438 0.9094 0.3815
C94 C 0.1383(4) 0.89574(19) 0.33759(14)
C95 C 0.0814(4) 0.83072(17) 0.34395(14)
H85 H 0.0519 0.8342 0.3742
H86 H 0.1448 0.8064 0.3447
H87 H 0.0109 0.8099 0.3170
N10 N 0.0822(3) 0.93567(15) 0.33901(11)
O34 O 0.2420(3) 0.89500(12) 0.32361(9)
C96 C 0.8695(8) 0.1043(4) 0.1751(3)
H88 H 0.8284 0.0606 0.1604
H89 H 0.9598 0.1088 0.1845
H90 H 0.8530 0.1298 0.1518
C97 C 0.8790(7) 0.0988(3) 0.2596(2)
H91 H 0.9031 0.1307 0.2896
H92 H 0.9533 0.0859 0.2518
H93 H 0.8188 0.0629 0.2635
C98 C 0.7311(8) 0.1480(4) 0.2233(3)
C99 C 0.6836(8) 0.1650(3) 0.2693(3)
H94 H 0.6563 0.1273 0.2810
H95 H 0.6132 0.1841 0.2626
H96 H 0.7510 0.1944 0.2939
N11 N 0.8194(7) 0.1253(3) 0.2188(2)
O35 O 0.6757(5) 0.1622(2) 0.18501(19)
C100 C 0.8923(7) 0.2385(4) 0.4071(3)
H97 H 0.9541 0.2411 0.4362
H98 H 0.8621 0.2766 0.4101
H99 H 0.9312 0.2334 0.3791
C101 C 0.6667(7) 0.2114(4) 0.4000(3)
H100 H 0.5899 0.1782 0.3907
H101 H 0.6665 0.2381 0.3768
H102 H 0.6714 0.2362 0.4321
C102 C 0.8190(8) 0.1241(4) 0.3920(3)
C103 C 0.9582(8) 0.1261(4) 0.3962(3)
H103 H 0.9776 0.0916 0.4099
H104 H 1.0078 0.1656 0.4172
H105 H 0.9782 0.1224 0.3642
N12 N 0.7819(6) 0.1823(3) 0.4007(2)
O36 O 0.7394(5) 0.0711(2) 0.38258(18)
C104 C 0.8401(8) 0.4792(3) 0.6726(3)
H106 H 0.9229 0.4869 0.6646
H107 H 0.8468 0.5003 0.7060
H108 H 0.7834 0.4951 0.6511
C105 C 0.8527(4) 0.37356(18) 0.63137(14)
H109 H 0.8898 0.3442 0.6466
H110 H 0.9184 0.4030 0.6229
H111 H 0.7908 0.3508 0.6022
C106 C 0.7136(4) 0.3893(2) 0.68923(14)
C107 C 0.6430(8) 0.4288(4) 0.7156(3)
H112 H 0.6916 0.4720 0.7249
H113 H 0.6284 0.4140 0.7445
H114 H 0.5626 0.4261 0.6947
N13 N 0.7889(6) 0.4090(3) 0.6664(2)
O37 O 0.6808(5) 0.3306(3) 0.68642(18)
C108 C 0.6093(7) 0.5407(3) 0.6474(2)
H115 H 0.5507 0.5017 0.6469
H116 H 0.6925 0.5332 0.6469
H117 H 0.5808 0.5565 0.6192
C109 C 0.7191(7) 0.5833(4) 0.7334(3)
H118 H 0.7497 0.6233 0.7566
H119 H 0.7882 0.5723 0.7196
H120 H 0.6856 0.5511 0.7496
C110 C 0.5575(8) 0.6273(4) 0.6991(3)
C111 C 0.5379(7) 0.6580(3) 0.7486(3)
H121 H 0.5076 0.6258 0.7653
H122 H 0.4762 0.6829 0.7440
H123 H 0.6173 0.6849 0.7678
N14 N 0.6155(6) 0.5882(3) 0.6930(2)
O38 O 0.5143(5) 0.6477(2) 0.66260(18)
C112 C -0.1379(4) 0.72777(18) 0.98616(13)
H124 H -0.1124 0.7608 0.9694
H125 H -0.1663 0.7450 1.0149
H126 H -0.2063 0.6951 0.9646
C113 C 0.0581(4) 0.7299(2) 1.05158(14)
H127 H 0.0248 0.7628 1.0681
H128 H 0.1429 0.7476 1.0481
H129 H 0.0603 0.6980 1.0704
C114 C -0.0053(4) 0.6588(2) 0.97294(15)
C115 C 0.1255(4) 0.64592(19) 0.97737(14)
H130 H 0.1791 0.6763 0.9647
H131 H 0.1190 0.6040 0.9589
H132 H 0.1617 0.6492 1.0113
N15 N -0.0268(3) 0.70022(15) 1.00104(11)
O39 O -0.0776(2) 0.62186(12) 0.93584(9)
O40 O 0.4670(5) 0.0200(2) 0.34848(17)
H133 H 0.5078 0.0036 0.3286
H134 H 0.4730 0.0587 0.3474
O41 O 0.3388(6) 0.2625(3) 0.1061(2)
H135 H 0.4109 0.2821 0.1027
H136 H 0.2993 0.2370 0.0791
O42 O 0.6381(6) 0.3532(3) 0.4567(2)
H137 H 0.6207 0.3317 0.4273
H138 H 0.5704 0.3479 0.4680
O43 O 0.4258(5) 0.5028(2) 0.43722(17)
H139 H 0.4649 0.4738 0.4405
H140 H 0.4594 0.5255 0.4193
O44 O 0.9741(8) 0.6631(5) 0.3253(3)
H141 H 0.9583 0.6964 0.3173
H142 H 1.0438 0.6729 0.3464
O45 O 0.5158(6) 0.6989(3) 0.0391(2)
H143 H 0.4746 0.6623 0.0224
H144 H 0.4639 0.7217 0.0451
H145? H 0.4865 0.0134 1.0083
loop_
_geom_bond_atom_site_label_1
_geom_bond_atom_site_label_2
_geom_bond_site_symmetry_1
_geom_bond_site_symmetry_2
C1 C2 1_555 1_555
C2 H1 1_555 1_555
C3 C2 1_555 1_555
C4 C3 1_555 1_555
H2 C4 1_555 1_555
C5 C4 1_555 1_555
C6 C1 1_555 1_555
H3 C6 1_555 1_555
C7 C1 1_555 1_555
C8 C3 1_555 1_555
C9 H4 1_555 1_555
C10 C9 1_555 1_555
H5 C10 1_555 1_555
C11 C5 1_555 1_555
C12 C11 1_555 1_555
H6 C12 1_555 1_555
C13 C12 1_555 1_555
H7 C13 1_555 1_555
C14 C15 1_555 1_555
C15 H8 1_555 1_555
C16 C15 1_555 1_555
C17 C16 1_555 1_555
H9 C17 1_555 1_555
C18 C17 1_555 1_555
C19 C14 1_555 1_555
H10 C19 1_555 1_555
C20 H11 1_555 1_555
C21 C20 1_555 1_555
H12 C21 1_555 1_555
C22 C16 1_555 1_555
C23 C22 1_555 1_555
H13 C23 1_555 1_555
C24 C23 1_555 1_555
H14 C24 1_555 1_555
C25 C14 1_555 1_555
C26 C18 1_555 1_555
C27 C28 1_555 1_555
C28 H15 1_555 1_555
C29 C28 1_555 1_555
C30 C29 1_555 1_555
H16 C30 1_555 1_555
C31 C30 1_555 1_555
C32 C27 1_555 1_555
H17 C32 1_555 1_555
C33 H18 1_555 1_555
C34 C33 1_555 1_555
H19 C34 1_555 1_555
C35 C31 1_555 1_555
C36 C35 1_555 1_555
H20 C36 1_555 1_555
C37 C36 1_555 1_555
H21 C37 1_555 1_555
C38 C27 1_555 1_555
C39 C29 1_555 1_555
C40 C41 1_555 1_555
C41 H22 1_555 1_555
C42 C41 1_555 1_555
C43 C42 1_555 1_555
H23 C43 1_555 1_555
C44 C43 1_555 1_555
C45 C40 1_555 1_555
H24 C45 1_555 1_555
C46 H25 1_555 1_555
C47 C46 1_555 1_555
H26 C47 1_555 1_555
C48 C42 1_555 1_555
C49 C48 1_555 1_555
H27 C49 1_555 1_555
C50 C49 1_555 1_555
H28 C50 1_555 1_555
C51 C40 1_555 1_555
C52 C44 1_555 1_555
C53 C54 1_555 1_555
C54 H29 1_555 1_555
C55 C54 1_555 1_555
C56 C55 1_555 1_555
H30 C56 1_555 1_555
C57 C56 1_555 1_555
C58 C53 1_555 1_555
H31 C58 1_555 1_555
C59 H32 1_555 1_555
C60 C59 1_555 1_555
H33 C60 1_555 1_555
C61 C55 1_555 1_555
C62 C61 1_555 1_555
H34 C62 1_555 1_555
C63 C62 1_555 1_555
H35 C63 1_555 1_555
C64 C53 1_555 1_555
C65 C57 1_555 1_555
C66 C67 1_555 1_555
C67 H36 1_555 1_555
C68 C67 1_555 1_555
C69 C68 1_555 1_555
H37 C69 1_555 1_555
C70 C69 1_555 1_555
C71 C66 1_555 1_555
H38 C71 1_555 1_555
C72 H39 1_555 1_555
C73 C72 1_555 1_555
H40 C73 1_555 1_555
C74 C70 1_555 1_555
C75 C74 1_555 1_555
H41 C75 1_555 1_555
C76 C75 1_555 1_555
H42 C76 1_555 1_555
C77 C66 1_555 1_555
C78 C68 1_555 1_555
C79 H43 1_555 1_555
C80 C79 1_555 1_555
H44 C80 1_555 1_555
C81 C80 1_555 1_555
H45 C81 1_555 1_555
C82 C81 1_555 1_555
H46 C82 1_555 1_555
C83 C82 1_555 1_555
H47 C83 1_555 1_555
C84 H48 1_555 1_555
H49 C84 1_555 1_555
H50 C84 1_555 1_555
C85 H51 1_555 1_555
H52 C85 1_555 1_555
H53 C85 1_555 1_555
C86 C87 1_555 1_555
C87 H54 1_555 1_555
H55 C87 1_555 1_555
H56 C87 1_555 1_555
N1 C9 1_555 1_555
N2 C20 1_555 1_555
N3 C33 1_555 1_555
N4 C46 1_555 1_555
N5 C59 1_555 1_555
N6 C72 1_555 1_555
N7 C79 1_555 1_555
N8 C84 1_555 1_555
Ni1 N2 1_555 1_555
Ni2 O9 1_555 1_555
Ni3 O15 1_555 1_555
Ni4 O16 1_555 1_555
Ni5 O24 1_555 1_555
Ni6 N7 1_555 1_555
O1 C7 1_555 1_555
O2 C7 1_555 1_555
O3 C8 1_555 1_555
O4 C8 1_555 1_555
O5 C25 1_555 1_555
O6 C25 1_555 1_555
O7 C26 1_555 1_555
O8 C26 1_555 1_555
O9 C38 1_555 1_555
O10 C38 1_555 1_555
O11 C39 1_555 1_555
O12 C39 1_555 1_555
O13 C51 1_555 1_555
O14 C51 1_555 1_555
O15 C52 1_555 1_555
O16 C52 1_555 1_555
O17 C64 1_555 1_555
O18 C64 1_555 1_555
O19 C65 1_555 1_555
O20 C65 1_555 1_555
O21 C77 1_555 1_555
O22 C77 1_555 1_555
O23 C78 1_555 1_555
O24 C78 1_555 1_555
O25 C86 1_555 1_555
O26 Ni1 1_555 1_555
H57 O26 1_555 1_555
H58 O26 1_555 1_555
O27 Ni3 1_555 1_555
H59 O27 1_555 1_555
H60 O27 1_555 1_555
O28 Ni5 1_555 1_555
H61 O28 1_555 1_555
H62 O28 1_555 1_555
O29 Ni1 1_555 1_555
H63 O29 1_555 1_555
H64 O29 1_555 1_555
O30 Ni2 1_555 1_555
H65 O30 1_555 1_555
H66 O30 1_555 1_555
O31 Ni4 1_555 1_555
H67 O31 1_555 1_555
H68 O31 1_555 1_555
O32 Ni5 1_555 1_555
H69 O32 1_555 1_555
H70 O32 1_555 1_555
C88 H71 1_555 1_555
H72 C88 1_555 1_555
C89 H73 1_555 1_555
H74 C89 1_555 1_555
H75 C89 1_555 1_555
C90 C91 1_555 1_555
C91 H76 1_555 1_555
H77 C91 1_555 1_555
H78 C91 1_555 1_555
N9 C88 1_555 1_555
O33 C90 1_555 1_555
C92 H79 1_555 1_555
H80 C92 1_555 1_555
H81 C92 1_555 1_555
C93 H82 1_555 1_555
H83 C93 1_555 1_555
H84 C93 1_555 1_555
C94 C95 1_555 1_555
C95 H85 1_555 1_555
H86 C95 1_555 1_555
H87 C95 1_555 1_555
N10 C92 1_555 1_555
O34 C94 1_555 1_555
C96 H88 1_555 1_555
H89 C96 1_555 1_555
H90 C96 1_555 1_555
C97 H91 1_555 1_555
H92 C97 1_555 1_555
H93 C97 1_555 1_555
C98 C99 1_555 1_555
C99 H94 1_555 1_555
H95 C99 1_555 1_555
H96 C99 1_555 1_555
N11 C96 1_555 1_555
O35 C98 1_555 1_555
C100 H97 1_555 1_555
H98 C100 1_555 1_555
H99 C100 1_555 1_555
C101 H100 1_555 1_555
H101 C101 1_555 1_555
H102 C101 1_555 1_555
C102 C103 1_555 1_555
C103 H103 1_555 1_555
H104 C103 1_555 1_555
H105 C103 1_555 1_555
N12 C100 1_555 1_555
O36 C102 1_555 1_555
C104 H106 1_555 1_555
H107 C104 1_555 1_555
H108 C104 1_555 1_555
C105 H109 1_555 1_555
H110 C105 1_555 1_555
H111 C105 1_555 1_555
C106 C107 1_555 1_555
C107 H112 1_555 1_555
H113 C107 1_555 1_555
H114 C107 1_555 1_555
N13 C104 1_555 1_555
O37 C106 1_555 1_555
C108 H115 1_555 1_555
H116 C108 1_555 1_555
H117 C108 1_555 1_555
C109 H118 1_555 1_555
H119 C109 1_555 1_555
H120 C109 1_555 1_555
C110 C111 1_555 1_555
C111 H121 1_555 1_555
H122 C111 1_555 1_555
H123 C111 1_555 1_555
N14 C108 1_555 1_555
O38 C110 1_555 1_555
C112 H124 1_555 1_555
H125 C112 1_555 1_555
H126 C112 1_555 1_555
C113 H127 1_555 1_555
H128 C113 1_555 1_555
H129 C113 1_555 1_555
C114 C115 1_555 1_555
C115 H130 1_555 1_555
H131 C115 1_555 1_555
H132 C115 1_555 1_555
N15 C112 1_555 1_555
O39 C114 1_555 1_555
O40 H133 1_555 1_555
H134 O40 1_555 1_555
O41 H135 1_555 1_555
H136 O41 1_555 1_555
O42 H137 1_555 1_555
H138 O42 1_555 1_555
O43 H139 1_555 1_555
H140 O43 1_555 1_555
O44 H141 1_555 1_555
H142 O44 1_555 1_555
O45 H143 1_555 1_555
H144 O45 1_555 1_555
N1A Ni6 1_555 1_555
N3A Ni2 1_555 1_555
N4A Ni5 1_555 1_555
N5A Ni3 1_555 1_555
N6A Ni4 1_555 1_555
Ni1_2 O4 1_555 1_555
Ni2_2 O3 1_555 1_555
Ni2A N3 1_555 1_555
Ni3_2 O19 1_555 1_555
Ni3A N5 1_555 1_555
Ni4_2 O20 1_555 1_555
Ni4A N6 1_555 1_555
Ni5_2 O12 1_555 1_555
Ni5A O7 1_555 1_555
Ni5A_2 N4 1_555 1_555
Ni6A O8 1_555 1_555
Ni6A_2 N1 1_555 1_555
O3_2 Ni2 1_555 1_555
O4_2 Ni1 1_555 1_555
O5A Ni6 1_555 1_555
O7A Ni5 1_555 1_555
O8A Ni6 1_555 1_555
O12_2 Ni5 1_555 1_555
O19_2 Ni3 1_555 1_555
O20_2 Ni4 1_555 1_555
C5 C6 1_555 1_555
C10 C11 1_555 1_555
C13 N1 1_555 1_555
C18 C19 1_555 1_555
C21 C22 1_555 1_555
C24 N2 1_555 1_555
C31 C32 1_555 1_555
C34 C35 1_555 1_555
C37 N3 1_555 1_555
C44 C45 1_555 1_555
C47 C48 1_555 1_555
C50 N4 1_555 1_555
C57 C58 1_555 1_555
C60 C61 1_555 1_555
C63 N5 1_555 1_555
C70 C71 1_555 1_555
C73 C74 1_555 1_555
C76 N6 1_555 1_555
C83 N7 1_555 1_555
C85 N8 1_555 1_555
C86 N8 1_555 1_555
Ni1 O1 1_555 1_555
Ni1 O10 1_555 1_555
Ni2 O13 1_555 1_555
Ni2 O26 1_555 1_555
Ni3 O17 1_555 1_555
Ni3 O25 1_555 1_555
Ni4 O21 1_555 1_555
Ni4 O27 1_555 1_555
Ni6 O23 1_555 1_555
Ni6 O28 1_555 1_555
O5 Ni6A_2 1_555 1_555
C89 N9 1_555 1_555
C90 N9 1_555 1_555
C93 N10 1_555 1_555
C94 N10 1_555 1_555
C97 N11 1_555 1_555
C98 N11 1_555 1_555
C101 N12 1_555 1_555
C102 N12 1_555 1_555
C105 N13 1_555 1_555
C106 N13 1_555 1_555
C109 N14 1_555 1_555
C110 N14 1_555 1_555
C113 N15 1_555 1_555
C114 N15 1_555 1_555

#END
