
#######################################################################
#
#                 Cambridge Crystallographic Data Centre
#                                CCDC 
#
#######################################################################
#
# If this CIF has been generated from an entry in the Cambridge 
# Structural Database, then it will include bibliographic, chemical, 
# crystal, experimental, refinement or atomic coordinate data resulting 
# from the CCDC's data processing and validation procedures.
#
#######################################################################

data_XOTSEG
_symmetry_cell_setting           triclinic
_symmetry_space_group_name_H-M   'P -1'
_symmetry_Int_Tables_number      2
_space_group_name_Hall           '-P 1'
loop_
_symmetry_equiv_pos_site_id
_symmetry_equiv_pos_as_xyz
1 x,y,z
2 -x,-y,-z
_cell_length_a                   13.8783(5)
_cell_length_b                   20.3674(8)
_cell_length_c                   21.0344(5)
_cell_angle_alpha                62.572(3)
_cell_angle_beta                 82.489(3)
_cell_angle_gamma                73.850(3)
_cell_volume                     5069.05
loop_
_atom_site_label
_atom_site_type_symbol
_atom_site_fract_x
_atom_site_fract_y
_atom_site_fract_z
Mn1 Mn 0.31424(8) 0.29190(6) 0.42329(5)
Mn2 Mn 0.08736(7) 0.31757(5) 0.33984(4)
Mn3 Mn 0.87694(8) -0.75092(6) 0.44151(5)
O1 O 0.3423(4) 0.2442(3) 0.3504(3)
O2 O 0.2012(4) 0.2325(3) 0.3246(3)
O3 O 0.1498(4) 0.4098(3) 0.2742(2)
O4 O 0.1557(3) 1.2867(2) -0.5542(2)
O5 O 0.0424(3) 1.2266(2) -0.54880(19)
O6 O 0.9628(4) -0.6079(3) 0.3637(2)
O7 O -0.0097(3) 1.3042(2) 0.2802(2)
O8 O -0.0994(4) 1.2217(2) 0.3534(2)
O9 O 0.8134(4) -0.6311(3) 0.3701(3)
O10 O 0.7258(5) 0.2306(4) -0.5213(3)
O11 O 0.5823(9) 0.3022(10) -0.5054(5)
O12 O 0.9069(5) -0.8795(3) 0.5103(3)
O13 O 0.8699(4) -0.7232(4) 0.5304(3)
O14 O 0.3116(4) 0.3355(4) 0.5006(3)
O15 O 0.3563(5) 0.1806(4) 0.5123(3)
O16 O 0.4741(4) 0.2936(4) 0.4040(3)
H1 H 0.5069 0.2581 0.3918
H2 H 0.4802 0.3375 0.3699
O17 O 0.2623(4) 0.4054(3) 0.3432(2)
N1 N 0.4391(11) 0.0749(6) 0.6062(11)
N2 N 0.3556(8) 0.3859(7) 0.5629(6)
N3 N 0.8715(8) -0.9950(5) 0.5364(5)
N4 N 0.7952(7) -0.6663(5) 0.5972(4)
C1 C 0.6658(8) 0.1936(8) -0.3984(6)
C2 C 0.7395(8) 0.1306(7) -0.3742(5)
H3 H 0.7893 0.1200 -0.4046
C3 C 0.7395(9) 0.0751(8) -0.2929(4)
H4 H 0.7853 0.0277 -0.2736
C4 C 0.6705(6) 0.0983(6) -0.2517(4)
C5 C 0.6007(8) 0.1756(7) -0.2871(5)
H5 H 0.5545 0.1933 -0.2588
C6 C 0.6015(9) 0.2214(7) -0.3588(5)
H6 H 0.5589 0.2700 -0.3793
C7 C 0.6633(4) 0.0582(5) -0.1756(3)
C8 C 0.6565(4) 0.0272(4) -0.1123(3)
C9 C 0.6449(4) -0.0077(3) -0.0361(3)
C10 C 0.6745(4) -0.0878(3) 0.0043(3)
C11 C 0.6647(4) -0.1201(3) 0.0785(3)
C12 C 0.6254(4) -0.0745(3) 0.1140(3)
C13 C 0.5930(4) 0.0038(3) 0.0745(3)
C14 C 0.6041(4) 0.0389(3) -0.0019(3)
C15 C 0.5735(5) 0.1243(3) -0.0435(3)
H7 H 0.6309 0.1428 -0.0678
H8 H 0.5464 0.1464 -0.0113
H9 H 0.5235 0.1384 -0.0781
C16 C 0.7160(5) -0.1379(4) -0.0329(3)
H10 H 0.6638 -0.1578 -0.0379
H11 H 0.7697 -0.1794 -0.0050
H12 H 0.7408 -0.1084 -0.0794
C17 C 0.6146(5) -0.1106(4) 0.1948(3)
H13 H 0.5450 -0.0994 0.2074
H14 H 0.6511 -0.0902 0.2143
H15 H 0.6409 -0.1648 0.2140
C18 C 0.6954(4) -0.2017(3) 0.1199(3)
C19 C 0.7218(5) -0.2700(4) 0.1561(3)
C20 C 0.7609(5) -0.3502(3) 0.2015(3)
C21 C 0.8586(5) -0.3785(4) 0.2251(4)
H16 H 0.9010 -0.3457 0.2103
C22 C 0.8941(5) -0.4540(4) 0.2699(4)
H17 H 0.9608 -0.4721 0.2844
C23 C 0.8318(5) -0.5050(4) 0.2947(3)
C24 C 0.7330(6) -0.4767(4) 0.2706(4)
H18 H 0.6913 -0.5099 0.2853
C25 C 0.6959(6) -0.4008(4) 0.2257(4)
H19 H 0.6292 -0.3825 0.2111
C26 C 0.8730(6) -0.5889(4) 0.3463(3)
C27 C 0.5490(4) 0.0492(4) 0.1101(3)
C28 C 0.5096(5) 0.0824(4) 0.1459(3)
C29 C 0.4568(5) 0.1184(4) 0.1890(3)
C30 C 0.5046(5) 0.1502(4) 0.2164(4)
H20 H 0.5722 0.1491 0.2065
C31 C 0.4514(5) 0.1845(4) 0.2595(4)
H21 H 0.4841 0.2064 0.2776
C32 C 0.3523(5) 0.1860(4) 0.2752(3)
C33 C 0.3041(5) 0.1520(4) 0.2483(3)
H22 H 0.2371 0.1514 0.2592
C34 C 0.3577(5) 0.1193(4) 0.2052(3)
H23 H 0.3254 0.0973 0.1869
C35 C 0.2922(6) 0.2243(4) 0.3208(3)
C36 C 0.2068(5) 0.4380(4) 0.2898(3)
C37 C 0.2064(5) 0.5204(3) 0.2398(3)
C38 C 0.1419(6) 0.5632(4) 0.1830(4)
H24 H 0.0972 0.5415 0.1746
C39 C 0.1426(7) 0.6368(4) 0.1388(4)
H25 H 0.0987 0.6649 0.1002
C40 C 0.2089(5) 0.6715(4) 0.1504(3)
C41 C 0.2735(6) 0.6282(4) 0.2079(4)
H26 H 0.3181 0.6499 0.2165
C42 C 0.2727(6) 0.5531(4) 0.2529(4)
H27 H 0.3162 0.5245 0.2917
C43 C 0.2045(5) 0.7507(4) 0.1070(3)
C44 C 0.1918(4) 0.8190(3) 0.0726(3)
C45 C 0.1643(4) 0.9011(3) 0.0365(3)
C46 C 0.1725(4) 0.9382(3) -0.0383(3)
C47 C 0.1401(4) 1.0174(3) -0.0727(3)
C48 C 0.1060(4) 1.0604(3) -0.0340(3)
C49 C 0.1013(4) 1.0200(3) 0.0412(3)
C50 C 0.1285(4) 0.9414(3) 0.0762(3)
C51 C 0.1222(5) 0.8990(4) 0.1568(3)
H28 H 0.0778 0.8661 0.1696
H29 H 0.0971 0.9349 0.1763
H30 H 0.1878 0.8689 0.1758
C52 C 0.2137(5) 0.8930(4) -0.0804(3)
H31 H 0.1793 0.8535 -0.0665
H32 H 0.2841 0.8704 -0.0707
H33 H 0.2040 0.9264 -0.1306
C53 C 0.0728(5) 1.1458(3) -0.0706(3)
H34 H 0.0680 1.1652 -0.0362
H35 H 0.0083 1.1612 -0.0922
H36 H 0.1206 1.1657 -0.1070
C54 C 0.1401(5) 1.0572(4) -0.1495(3)
C55 C 0.1359(5) 1.0886(4) -0.2119(3)
C56 C 0.1268(5) 1.1275(4) -0.2886(3)
C57 C 0.0735(6) 1.1051(4) -0.3251(3)
H37 H 0.0425 1.0655 -0.2986
C58 C 0.0662(5) 1.1402(4) -0.3984(3)
H38 H 0.0329 1.1230 -0.4210
C59 C 0.1083(5) 1.2011(3) -0.4384(3)
C60 C 0.1591(5) 1.2266(4) -0.4046(3)
H39 H 0.1872 1.2678 -0.4318
C61 C 0.1682(5) 1.1904(4) -0.3297(3)
H40 H 0.2014 1.2080 -0.3074
C62 C 0.0637(5) 1.0629(3) 0.0830(3)
C63 C 0.0383(5) 1.0972(4) 0.1163(3)
C64 C 0.0092(5) 1.1402(3) 0.1588(3)
C65 C -0.0567(7) 1.1177(4) 0.2175(4)
H41 H -0.0851 1.0777 0.2275
C66 C -0.0792(7) 1.1554(4) 0.2604(3)
H42 H -0.1243 1.1417 0.2982
C67 C -0.0342(5) 1.2134(3) 0.2468(3)
C68 C 0.0291(5) 1.2350(4) 0.1884(3)
H43 H 0.0575 1.2751 0.1782
C69 C 0.0513(5) 1.1989(4) 0.1449(4)
H44 H 0.0947 1.2143 0.1062
C70 C -0.0481(5) 1.2488(3) 0.2980(3)
C71 C 0.9198(10) -1.0420(8) 0.6014(6)
H45 H 0.9341 -1.0113 0.6209
H46 H 0.9814 -1.0740 0.5945
H47 H 0.8775 -1.0733 0.6340
C72 C 0.8156(12) -1.0307(7) 0.5124(8)
H48 H 0.7912 -0.9960 0.4647
H49 H 0.7600 -1.0428 0.5441
H50 H 0.8590 -1.0766 0.5125
C73 C 0.8749(9) -0.9268(6) 0.4941(5)
H51 H 0.8534 -0.9076 0.4474
C74 C 0.8561(10) -0.7208(8) 0.6592(6)
H52 H 0.8147 -0.7329 0.7013
H53 H 0.9070 -0.6994 0.6635
H54 H 0.8872 -0.7665 0.6540
C75 C 0.7189(15) -0.6037(10) 0.6034(8)
H55 H 0.7452 -0.5594 0.5853
H56 H 0.7004 -0.6184 0.6528
H57 H 0.6609 -0.5921 0.5762
C76 C 0.8090(7) -0.6733(6) 0.5398(5)
H58 H 0.7684 -0.6364 0.5012
C77 C 0.6608(9) 0.2464(8) -0.4841(6)
C78 C 0.1006(5) 1.2401(3) -0.5181(3)
C79 C 0.435(3) 0.422(2) 0.5706(12)
H59 H 0.4096 0.4767 0.5501
H60 H 0.4954 0.4098 0.5462
H61 H 0.4491 0.4028 0.6205
C80 C 0.2934(19) 0.3672(12) 0.6165(8)
H62 H 0.2540 0.3380 0.6113
H63 H 0.2499 0.4126 0.6173
H64 H 0.3304 0.3372 0.6605
C81 C 0.3541(8) 0.3741(6) 0.5038(5)
H65 H 0.3903 0.3996 0.4636
C82 C 0.3619(10) 0.0339(7) 0.6303(10)
H66 H 0.3254 0.0422 0.6691
H67 H 0.3918 -0.0196 0.6463
H68 H 0.3168 0.0519 0.5915
C83 C 0.4858(18) 0.0582(12) 0.6499(7)
H69 H 0.5539 0.0384 0.6392
H70 H 0.4638 0.0196 0.6922
H71 H 0.4820 0.1017 0.6578
C84 C 0.4298(9) 0.1415(7) 0.5377(8)
H72 H 0.4884 0.1526 0.5130
Mn1_2 Mn 0.31424(8) 1.29190(6) -0.57671(5)
Mn2_2 Mn 0.08736(7) 1.31757(5) -0.66016(4)
Mn2_3 Mn 0.08736(7) 1.31757(5) 0.33984(4)
Mn2_4 Mn 1.08736(7) -0.68243(5) 0.33984(4)
Mn3_2 Mn -0.12306(8) 1.24908(6) -0.55849(5)
Mn3_3 Mn -0.12306(8) 1.24908(6) 0.44151(5)
Mn3_4 Mn 0.87694(8) 0.24908(6) -0.55849(5)
O4_2 O 0.1557(3) 0.2867(2) 0.4458(2)
O5_2 O 0.0424(3) 0.2266(2) 0.45120(19)
O5_3 O 1.0424(3) -0.7734(2) 0.45120(19)
O6_2 O -0.0372(4) 0.3921(3) 0.3637(2)
O7_2 O -0.0097(3) 0.3042(2) 0.2802(2)
O8_2 O 0.9006(4) -0.7783(2) 0.3534(2)
O10_2 O 0.7258(5) -0.7694(4) 0.4787(3)
loop_
_geom_bond_atom_site_label_1
_geom_bond_atom_site_label_2
_geom_bond_site_symmetry_1
_geom_bond_site_symmetry_2
Mn1 O1 1_555 1_555
Mn2 O2 1_555 1_555
Mn3 O9 1_555 1_555
O1 C35 1_555 1_555
O2 C35 1_555 1_555
O3 Mn2 1_555 1_555
O4 C78 1_555 1_555
O5 C78 1_555 1_555
O6 C26 1_555 1_555
O7 C70 1_555 1_555
O8 C70 1_555 1_555
O9 C26 1_555 1_555
O10 C77 1_555 1_555
O11 C77 1_555 1_555
O12 Mn3 1_555 1_555
O13 Mn3 1_555 1_555
O14 Mn1 1_555 1_555
O15 Mn1 1_555 1_555
O16 Mn1 1_555 1_555
H1 O16 1_555 1_555
H2 O16 1_555 1_555
O17 Mn1 1_555 1_555
N1 C82 1_555 1_555
N2 C79 1_555 1_555
N3 C71 1_555 1_555
N4 C74 1_555 1_555
C1 C2 1_555 1_555
C2 H3 1_555 1_555
C3 C2 1_555 1_555
H4 C3 1_555 1_555
C4 C3 1_555 1_555
C5 C4 1_555 1_555
H5 C5 1_555 1_555
C6 C1 1_555 1_555
H6 C6 1_555 1_555
C7 C4 1_555 1_555
C8 C7 1_555 1_555
C9 C8 1_555 1_555
C10 C9 1_555 1_555
C11 C10 1_555 1_555
C12 C11 1_555 1_555
C13 C12 1_555 1_555
C14 C9 1_555 1_555
C15 C14 1_555 1_555
H7 C15 1_555 1_555
H8 C15 1_555 1_555
H9 C15 1_555 1_555
C16 C10 1_555 1_555
H10 C16 1_555 1_555
H11 C16 1_555 1_555
H12 C16 1_555 1_555
C17 C12 1_555 1_555
H13 C17 1_555 1_555
H14 C17 1_555 1_555
H15 C17 1_555 1_555
C18 C11 1_555 1_555
C19 C18 1_555 1_555
C20 C19 1_555 1_555
C21 C20 1_555 1_555
H16 C21 1_555 1_555
C22 C21 1_555 1_555
H17 C22 1_555 1_555
C23 C22 1_555 1_555
C24 C23 1_555 1_555
H18 C24 1_555 1_555
C25 C20 1_555 1_555
H19 C25 1_555 1_555
C26 C23 1_555 1_555
C27 C13 1_555 1_555
C28 C27 1_555 1_555
C29 C28 1_555 1_555
C30 C29 1_555 1_555
H20 C30 1_555 1_555
C31 C30 1_555 1_555
H21 C31 1_555 1_555
C32 C31 1_555 1_555
C33 C32 1_555 1_555
H22 C33 1_555 1_555
C34 C29 1_555 1_555
H23 C34 1_555 1_555
C35 C32 1_555 1_555
C36 O3 1_555 1_555
C37 C36 1_555 1_555
C38 C37 1_555 1_555
H24 C38 1_555 1_555
C39 C38 1_555 1_555
H25 C39 1_555 1_555
C40 C39 1_555 1_555
C41 C40 1_555 1_555
H26 C41 1_555 1_555
C42 C37 1_555 1_555
H27 C42 1_555 1_555
C43 C40 1_555 1_555
C44 C43 1_555 1_555
C45 C44 1_555 1_555
C46 C45 1_555 1_555
C47 C46 1_555 1_555
C48 C47 1_555 1_555
C49 C48 1_555 1_555
C50 C45 1_555 1_555
C51 C50 1_555 1_555
H28 C51 1_555 1_555
H29 C51 1_555 1_555
H30 C51 1_555 1_555
C52 C46 1_555 1_555
H31 C52 1_555 1_555
H32 C52 1_555 1_555
H33 C52 1_555 1_555
C53 C48 1_555 1_555
H34 C53 1_555 1_555
H35 C53 1_555 1_555
H36 C53 1_555 1_555
C54 C47 1_555 1_555
C55 C54 1_555 1_555
C56 C55 1_555 1_555
C57 C56 1_555 1_555
H37 C57 1_555 1_555
C58 C57 1_555 1_555
H38 C58 1_555 1_555
C59 C58 1_555 1_555
C60 C59 1_555 1_555
H39 C60 1_555 1_555
C61 C56 1_555 1_555
H40 C61 1_555 1_555
C62 C49 1_555 1_555
C63 C62 1_555 1_555
C64 C63 1_555 1_555
C65 C64 1_555 1_555
H41 C65 1_555 1_555
C66 C65 1_555 1_555
H42 C66 1_555 1_555
C67 C66 1_555 1_555
C68 C67 1_555 1_555
H43 C68 1_555 1_555
C69 C64 1_555 1_555
H44 C69 1_555 1_555
C70 C67 1_555 1_555
C71 H45 1_555 1_555
H46 C71 1_555 1_555
H47 C71 1_555 1_555
C72 N3 1_555 1_555
H48 C72 1_555 1_555
H49 C72 1_555 1_555
H50 C72 1_555 1_555
C73 O12 1_555 1_555
H51 C73 1_555 1_555
C74 H52 1_555 1_555
H53 C74 1_555 1_555
H54 C74 1_555 1_555
C75 N4 1_555 1_555
H55 C75 1_555 1_555
H56 C75 1_555 1_555
H57 C75 1_555 1_555
C76 O13 1_555 1_555
H58 C76 1_555 1_555
C77 C1 1_555 1_555
C78 C59 1_555 1_555
C79 H59 1_555 1_555
H60 C79 1_555 1_555
H61 C79 1_555 1_555
C80 N2 1_555 1_555
H62 C80 1_555 1_555
H63 C80 1_555 1_555
H64 C80 1_555 1_555
C81 O14 1_555 1_555
H65 C81 1_555 1_555
C82 H66 1_555 1_555
H67 C82 1_555 1_555
H68 C82 1_555 1_555
C83 N1 1_555 1_555
H69 C83 1_555 1_555
H70 C83 1_555 1_555
H71 C83 1_555 1_555
C84 O15 1_555 1_555
H72 C84 1_555 1_555
Mn1_2 O4 1_555 1_555
Mn2_2 O4 1_555 1_555
Mn2_3 O7 1_555 1_555
Mn2_4 O6 1_555 1_555
Mn3_2 O5 1_555 1_555
Mn3_3 O8 1_555 1_555
Mn3_4 O10 1_555 1_555
O4_2 Mn1 1_555 1_555
O5_2 Mn2 1_555 1_555
O5_3 Mn3 1_555 1_555
O6_2 Mn2 1_555 1_555
O7_2 Mn2 1_555 1_555
O8_2 Mn3 1_555 1_555
O10_2 Mn3 1_555 1_555
Mn2 O4_2 1_555 1_555
O5 Mn2_2 1_555 1_555
O17 C36 1_555 1_555
N1 C84 1_555 1_555
N2 C81 1_555 1_555
N3 C73 1_555 1_555
N4 C76 1_555 1_555
C5 C6 1_555 1_555
C13 C14 1_555 1_555
C24 C25 1_555 1_555
C33 C34 1_555 1_555
C41 C42 1_555 1_555
C49 C50 1_555 1_555
C60 C61 1_555 1_555
C68 C69 1_555 1_555
Mn2_4 O5_3 1_555 1_555

#END
