
#######################################################################
#
#                 Cambridge Crystallographic Data Centre
#                                CCDC 
#
#######################################################################
#
# If this CIF has been generated from an entry in the Cambridge 
# Structural Database, then it will include bibliographic, chemical, 
# crystal, experimental, refinement or atomic coordinate data resulting 
# from the CCDC's data processing and validation procedures.
#
#######################################################################

data_XOTXUB
_symmetry_cell_setting           monoclinic
_symmetry_space_group_name_H-M   'P 21/c'
_symmetry_Int_Tables_number      14
_space_group_name_Hall           '-P 2ybc'
loop_
_symmetry_equiv_pos_site_id
_symmetry_equiv_pos_as_xyz
1 x,y,z
2 -x,1/2+y,1/2-z
3 -x,-y,-z
4 x,1/2-y,1/2+z
_cell_length_a                   22.297(15)
_cell_length_b                   5.501(4)
_cell_length_c                   20.799(13)
_cell_angle_alpha                90
_cell_angle_beta                 97.543(9)
_cell_angle_gamma                90
_cell_volume                     2529.04
loop_
_atom_site_label
_atom_site_type_symbol
_atom_site_fract_x
_atom_site_fract_y
_atom_site_fract_z
C1 C 0.19810(19) 0.3643(7) 0.93852(19)
C2 C 0.22345(19) 0.5416(7) 0.99071(18)
H1 H 0.2288 0.6986 0.9699
C3 C 0.1824(2) 0.5810(7) 1.04291(19)
H2 H 0.1775 0.4289 1.0652
H3 H 0.1428 0.6338 1.0228
C4 C 0.2091(2) 0.7719(7) 1.09179(19)
H4 H 0.1823 0.7945 1.1245
H5 H 0.2123 0.9259 1.0698
C5 C 0.2717(2) 0.6944(7) 1.12461(18)
H6 H 0.2893 0.8360 1.1488
C6 C 0.3136(2) 0.6343(8) 1.0740(2)
H7 H 0.3237 0.7834 1.0529
H8 H 0.3509 0.5658 1.0958
C7 C 0.28550(19) 0.4552(8) 1.02236(19)
H9 H 0.3121 0.4370 0.9894
H10 H 0.2814 0.2974 1.0422
C8 C 0.26716(19) 0.4928(7) 1.17436(18)
C9 C 0.3219(2) -0.1259(8) 0.8846(2)
H11 H 0.2962 -0.2527 0.8924
C10 C 0.3823(2) -0.1196(8) 0.9048(2)
H12 H 0.4051 -0.2374 0.9289
C11 C 0.3545(2) 0.2091(8) 0.8506(2)
H13 H 0.3563 0.3598 0.8307
C12 C 0.4651(2) 0.1832(9) 0.8891(2)
H14 H 0.4710 0.2724 0.8502
H15 H 0.4922 0.0445 0.8923
C13 C 0.4821(2) 0.3468(8) 0.9477(2)
C14 C 0.4563(2) 0.3247(8) 1.0039(2)
H16 H 0.4267 0.2078 1.0070
C15 C 0.47427(19) 0.4761(8) 1.0559(2)
H17 H 0.4568 0.4589 1.0939
C16 C 0.0351(2) 0.4500(10) 0.7006(2)
H18 H 0.0019 0.5536 0.6944
C17 C 0.0834(2) 0.4700(9) 0.7469(2)
H19 H 0.0889 0.5912 0.7783
C18 C 0.0977(2) 0.1583(8) 0.6907(2)
H20 H 0.1150 0.0200 0.6752
C19 C 0.0062(3) 0.1594(10) 0.6068(2)
H21 H -0.0343 0.1298 0.6174
H22 H 0.0222 0.0059 0.5937
C20 C 0.0027(2) 0.3337(9) 0.5515(2)
C21 C 0.0504(2) 0.3651(11) 0.5168(3)
H23 H 0.0854 0.2739 0.5275
C22 C 0.0474(2) 0.5289(11) 0.4664(3)
H24 H 0.0806 0.5460 0.4440
Mn1 Mn 0.21215(3) 0.18820(10) 0.79929(3)
N1 N 0.30417(16) 0.0828(6) 0.85083(16)
N2 N 0.40269(16) 0.0950(6) 0.88250(17)
N3 N 0.12315(17) 0.2848(6) 0.74049(16)
N4 N 0.04426(18) 0.2489(7) 0.66456(18)
O1 O 0.19775(13) 0.4283(5) 0.87959(13)
O2 O 0.18131(16) 0.1603(5) 0.95509(14)
O3 O 0.23174(13) 0.5358(5) 1.21669(12)
O4 O 0.29659(16) 0.3024(5) 1.17296(16)
O5 O 0.16793(13) -0.1044(5) 0.84773(13)
H25 H 0.1617 -0.0585 0.8838
O6 O 0.25907(14) 0.4942(5) 0.76068(13)
H26 H 0.2722 0.4521 0.7274
H27 H 0.1743 -0.2562 0.8544
H28 H 0.2443 0.6215 0.7420
C9B C 0.6781(2) 1.1259(8) 1.1154(2)
H11B H 0.7038 1.2527 1.1076
C10B C 0.6177(2) 1.1196(8) 1.0952(2)
H12B H 0.5949 1.2374 1.0711
C11B C 0.6455(2) 0.7909(8) 1.1494(2)
H13B H 0.6437 0.6402 1.1693
C12B C 0.5349(2) 0.8168(9) 1.1109(2)
H14B H 0.5290 0.7276 1.1498
H15B H 0.5078 0.9555 1.1077
C13B C 0.5179(2) 0.6532(8) 1.0523(2)
C14B C 0.5437(2) 0.6753(8) 0.9961(2)
H16B H 0.5733 0.7922 0.9930
C15B C 0.52573(19) 0.5239(8) 0.9441(2)
H17B H 0.5432 0.5411 0.9061
N1B N 0.69583(16) 0.9172(6) 1.14917(16)
N2B N 0.59731(16) 0.9050(6) 1.11750(17)
C16B C -0.0351(2) 0.5500(10) 0.2994(2)
H18B H -0.0019 0.4464 0.3056
C17B C -0.0834(2) 0.5300(9) 0.2531(2)
H19B H -0.0889 0.4088 0.2217
C18B C -0.0977(2) 0.8417(8) 0.3093(2)
H20B H -0.1150 0.9800 0.3248
C19B C -0.0062(3) 0.8406(10) 0.3932(2)
H21B H 0.0343 0.8702 0.3826
H22B H -0.0222 0.9941 0.4063
C20B C -0.0027(2) 0.6663(9) 0.4485(2)
C21B C -0.0504(2) 0.6349(11) 0.4832(3)
H23B H -0.0854 0.7261 0.4725
C22B C -0.0474(2) 0.4711(11) 0.5336(3)
H24B H -0.0806 0.4540 0.5560
N3B N -0.12315(17) 0.7152(6) 0.25951(16)
N4B N -0.04426(18) 0.7511(7) 0.33544(18)
C1B C -0.19810(19) 0.6357(7) 0.06148(19)
C2B C -0.22345(19) 0.4584(7) 0.00929(18)
H1B H -0.2288 0.3014 0.0301
C3B C -0.1824(2) 0.4190(7) -0.04291(19)
H2B H -0.1775 0.5711 -0.0652
H3B H -0.1428 0.3662 -0.0228
C4B C -0.2091(2) 0.2281(7) -0.09179(19)
H4B H -0.1823 0.2055 -0.1245
H5B H -0.2123 0.0741 -0.0698
C5B C -0.2717(2) 0.3056(7) -0.12461(18)
H6B H -0.2893 0.1640 -0.1488
C6B C -0.3136(2) 0.3657(8) -0.0740(2)
H7B H -0.3237 0.2166 -0.0529
H8B H -0.3509 0.4342 -0.0958
C7B C -0.28550(19) 0.5448(8) -0.02236(19)
H9B H -0.3121 0.5630 0.0106
H10B H -0.2814 0.7026 -0.0422
C8B C -0.26716(19) 0.5072(7) -0.17436(18)
Mn1B Mn -0.21215(3) 0.81180(10) 0.20071(3)
O1B O -0.19775(13) 0.5717(5) 0.12041(13)
O2B O -0.18131(16) 0.8397(5) 0.04491(14)
O3B O -0.23174(13) 0.4642(5) -0.21669(12)
O4B O -0.29659(16) 0.6976(5) -0.17296(16)
O5B O -0.16793(13) 1.1044(5) 0.15227(13)
H25B H -0.1617 1.0585 0.1162
O6B O -0.25907(14) 0.5058(5) 0.23932(13)
H26B H -0.2722 0.5479 0.2726
H27B H -0.1743 1.2562 0.1456
H28B H -0.2443 0.3785 0.2580
Mn1A Mn -0.21215(3) 0.68820(10) -0.29929(3)
Mn1B_2 Mn 0.78785(3) 0.81180(10) 1.20071(3)
Mn1C Mn 0.21215(3) 0.31180(10) 1.29929(3)
N1B_2 N -0.30417(16) 0.9172(6) 0.14917(16)
O3A O -0.23174(13) 1.0358(5) 0.28331(12)
O3C O 0.23174(13) -0.0358(5) 0.71669(12)
O7 O 0.5810(3) 0.7886(19) 0.8090(5)
H29 H 0.5874 0.8687 0.8449
H30 H 0.5826 0.9337 0.7948
O8 O 0.5615(7) 0.2303(19) 0.7460(4)
H31 H 0.5985 0.2729 0.7508
H32 H 0.5408 0.1767 0.7117
loop_
_geom_bond_atom_site_label_1
_geom_bond_atom_site_label_2
_geom_bond_site_symmetry_1
_geom_bond_site_symmetry_2
C1 C2 1_555 1_555
C2 H1 1_555 1_555
C3 C2 1_555 1_555
H2 C3 1_555 1_555
H3 C3 1_555 1_555
C4 C3 1_555 1_555
H4 C4 1_555 1_555
H5 C4 1_555 1_555
C5 C4 1_555 1_555
H6 C5 1_555 1_555
C6 C5 1_555 1_555
H7 C6 1_555 1_555
H8 C6 1_555 1_555
C7 C2 1_555 1_555
H9 C7 1_555 1_555
H10 C7 1_555 1_555
C8 C5 1_555 1_555
C9 H11 1_555 1_555
C10 C9 1_555 1_555
H12 C10 1_555 1_555
C11 H13 1_555 1_555
C12 H14 1_555 1_555
H15 C12 1_555 1_555
C13 C12 1_555 1_555
C14 C13 1_555 1_555
H16 C14 1_555 1_555
C15 C14 1_555 1_555
H17 C15 1_555 1_555
C16 H18 1_555 1_555
C17 C16 1_555 1_555
H19 C17 1_555 1_555
C18 H20 1_555 1_555
C19 H21 1_555 1_555
H22 C19 1_555 1_555
C20 C19 1_555 1_555
C21 C20 1_555 1_555
H23 C21 1_555 1_555
C22 C21 1_555 1_555
H24 C22 1_555 1_555
Mn1 N1 1_555 1_555
N1 C9 1_555 1_555
N2 C10 1_555 1_555
N3 C17 1_555 1_555
N4 C16 1_555 1_555
O1 C1 1_555 1_555
O2 C1 1_555 1_555
O3 C8 1_555 1_555
O4 C8 1_555 1_555
O5 Mn1 1_555 1_555
H25 O5 1_555 1_555
O6 Mn1 1_555 1_555
H26 O6 1_555 1_555
H27 O5 1_555 1_555
H28 O6 1_555 1_555
O7 H29 1_555 1_555
H30 O7 1_555 1_555
O8 H31 1_555 1_555
H32 O8 1_555 1_555
C9B H11B 1_555 1_555
C10B C9B 1_555 1_555
H12B C10B 1_555 1_555
C11B H13B 1_555 1_555
C12B H14B 1_555 1_555
H15B C12B 1_555 1_555
C13B C15 1_555 1_555
C14B C13B 1_555 1_555
H16B C14B 1_555 1_555
C15B C13 1_555 1_555
H17B C15B 1_555 1_555
N1B C9B 1_555 1_555
N2B C10B 1_555 1_555
C16B H18B 1_555 1_555
C17B C16B 1_555 1_555
H19B C17B 1_555 1_555
C18B H20B 1_555 1_555
C19B H21B 1_555 1_555
H22B C19B 1_555 1_555
C20B C22 1_555 1_555
C21B C20B 1_555 1_555
H23B C21B 1_555 1_555
C22B C20 1_555 1_555
H24B C22B 1_555 1_555
N3B C17B 1_555 1_555
N4B C16B 1_555 1_555
C1B C2B 1_555 1_555
C2B H1B 1_555 1_555
C3B C2B 1_555 1_555
H2B C3B 1_555 1_555
H3B C3B 1_555 1_555
C4B C3B 1_555 1_555
H4B C4B 1_555 1_555
H5B C4B 1_555 1_555
C5B C4B 1_555 1_555
H6B C5B 1_555 1_555
C6B C5B 1_555 1_555
H7B C6B 1_555 1_555
H8B C6B 1_555 1_555
C7B C2B 1_555 1_555
H9B C7B 1_555 1_555
H10B C7B 1_555 1_555
C8B C5B 1_555 1_555
Mn1B N3B 1_555 1_555
O1B C1B 1_555 1_555
O2B C1B 1_555 1_555
O3B C8B 1_555 1_555
O4B C8B 1_555 1_555
O5B Mn1B 1_555 1_555
H25B O5B 1_555 1_555
O6B Mn1B 1_555 1_555
H26B O6B 1_555 1_555
H27B O5B 1_555 1_555
H28B O6B 1_555 1_555
Mn1A O3B 1_555 1_555
Mn1B_2 N1B 1_555 1_555
Mn1C O3 1_555 1_555
N1B_2 Mn1B 1_555 1_555
O3A Mn1B 1_555 1_555
O3C Mn1 1_555 1_555
C6 C7 1_555 1_555
C11 N1 1_555 1_555
C11 N2 1_555 1_555
C12 N2 1_555 1_555
C18 N3 1_555 1_555
C18 N4 1_555 1_555
C19 N4 1_555 1_555
Mn1 N3 1_555 1_555
Mn1 O1 1_555 1_555
C11B N1B 1_555 1_555
C11B N2B 1_555 1_555
C12B C13B 1_555 1_555
C12B N2B 1_555 1_555
C14B C15B 1_555 1_555
C18B N3B 1_555 1_555
C18B N4B 1_555 1_555
C19B C20B 1_555 1_555
C19B N4B 1_555 1_555
C21B C22B 1_555 1_555
C6B C7B 1_555 1_555
Mn1B O1B 1_555 1_555

#END
