
#######################################################################
#
#                 Cambridge Crystallographic Data Centre
#                                CCDC 
#
#######################################################################
#
# If this CIF has been generated from an entry in the Cambridge 
# Structural Database, then it will include bibliographic, chemical, 
# crystal, experimental, refinement or atomic coordinate data resulting 
# from the CCDC's data processing and validation procedures.
#
#######################################################################

data_XOVVIO
_symmetry_cell_setting           triclinic
_symmetry_space_group_name_H-M   'P -1'
_symmetry_Int_Tables_number      2
_space_group_name_Hall           '-P 1'
loop_
_symmetry_equiv_pos_site_id
_symmetry_equiv_pos_as_xyz
1 x,y,z
2 -x,-y,-z
_cell_length_a                   9.924(2)
_cell_length_b                   11.738(2)
_cell_length_c                   15.203(3)
_cell_angle_alpha                94.77(3)
_cell_angle_beta                 98.94(3)
_cell_angle_gamma                112.62(3)
_cell_volume                     1594.92
loop_
_atom_site_label
_atom_site_type_symbol
_atom_site_fract_x
_atom_site_fract_y
_atom_site_fract_z
Zn1 Zn 0.5000 0.0000 0.0000
Zn2 Zn 1.01456(7) 0.93243(7) 0.20794(5)
Zn3 Zn 0.55672(7) 0.89140(7) 0.43165(5)
Zn4 Zn 0.88625(8) 0.18484(7) 0.16654(5)
O1 O 0.5658(5) 0.1516(4) 0.1114(3)
O2 O 0.7914(5) 0.3025(5) 0.1632(4)
O3 O 0.8920(5) 0.7448(4) 0.1946(3)
O4 O 0.7288(6) 0.7983(5) 0.1114(4)
O5 O 0.2464(5) 0.4002(5) 0.0638(4)
H1 H 0.2302 0.4632 0.0599
O6 O 1.1357(5) 1.1513(5) 0.2092(3)
O7 O 1.0790(5) 1.3131(5) 0.2353(4)
O8 O 1.4601(5) 1.7107(5) 0.4015(4)
O9 O 1.6883(5) 1.7292(5) 0.4580(4)
O10 O 1.6556(7) 1.2842(6) 0.3790(6)
H2 H 1.7372 1.3313 0.4095
O11 O 0.5035(6) -0.1250(5) 0.0912(3)
C1 C 0.2456(7) -0.0147(6) 0.0947(4)
H3 H 0.3182 0.0349 0.1445
C2 C 0.0381(7) -0.1296(6) 0.0115(4)
H4 H -0.0634 -0.1772 -0.0092
C3 C 1.2871(7) 0.9024(7) 0.3156(4)
H5 H 1.2893 0.8472 0.2688
C4 C 1.2242(7) 1.0218(6) 0.3925(4)
H6 H 1.1724 1.0675 0.4113
C5 C 0.8058(7) 0.9230(7) 0.3332(5)
H7 H 0.8269 0.8622 0.3606
C6 C 0.7067(7) 1.0457(7) 0.2962(4)
H8 H 0.6444 1.0881 0.2918
C7 C 0.6511(7) 0.2653(6) 0.1337(4)
C8 C 0.7611(7) 0.7170(6) 0.1475(5)
C9 C 0.5951(7) 0.3657(6) 0.1266(4)
C10 C 0.6977(7) 0.4903(6) 0.1466(5)
H9 H 0.7984 0.5095 0.1673
C11 C 0.6494(7) 0.5854(6) 0.1356(4)
C12 C 0.4987(8) 0.5571(7) 0.1082(5)
H10 H 0.4660 0.6208 0.1014
C13 C 0.3969(7) 0.4335(7) 0.0909(5)
C14 C 0.4432(7) 0.3369(6) 0.0993(4)
H11 H 0.3742 0.2542 0.0870
C15 C 1.1715(7) 1.2595(7) 0.2448(4)
C16 C 1.5584(7) 1.6640(7) 0.4182(4)
C17 C 1.3231(7) 1.3345(6) 0.3007(4)
C18 C 1.3671(7) 1.4595(6) 0.3354(4)
H12 H 1.3004 1.4974 0.3250
C19 C 1.5086(7) 1.5274(6) 0.3849(4)
C20 C 1.6086(8) 1.4718(8) 0.4009(5)
H13 H 1.7044 1.5179 0.4345
C21 C 1.5649(7) 1.3477(7) 0.3668(5)
C22 C 1.4222(8) 1.2794(7) 0.3158(5)
H14 H 1.3938 1.1961 0.2919
N1 N 0.2762(5) -0.0399(5) 0.0159(3)
N2 N 0.0998(5) -0.0675(5) 0.0963(3)
N3 N 0.1398(6) -0.1145(5) -0.0384(3)
N4 N 1.1836(6) 0.9499(5) 0.3120(3)
N5 N 1.3858(6) 0.9425(5) 0.3925(3)
N6 N 1.3436(6) 1.0216(5) 0.4421(3)
N7 N 0.8787(6) 0.9825(5) 0.2743(3)
N8 N 0.8144(6) 1.0644(5) 0.2501(3)
N9 N 0.6975(6) 0.9591(5) 0.3499(3)
Zn2A Zn -0.01456(7) -0.93243(7) -0.20794(5)
Zn2_2 Zn 0.01456(7) -0.06757(7) 0.20794(5)
Zn2A_2 Zn 0.98544(7) 0.06757(7) -0.20794(5)
Zn2_3 Zn 1.01456(7) -0.06757(7) 0.20794(5)
Zn3_2 Zn 0.55672(7) -0.10860(7) 0.43165(5)
Zn3_3 Zn 1.55672(7) 1.89140(7) 0.43165(5)
Zn3_4 Zn 1.55672(7) 0.89140(7) 0.43165(5)
Zn3A Zn 1.44328(7) 1.10860(7) 0.56835(5)
Zn3A_2 Zn -0.55672(7) -0.89140(7) -0.43165(5)
Zn3_5 Zn -0.44328(7) -1.10860(7) -0.56835(5)
Zn4A Zn 0.11375(8) -0.18484(7) -0.16654(5)
Zn4_2 Zn 0.88625(8) 1.18484(7) 0.16654(5)
O1A O 0.4342(5) -0.1516(4) -0.1114(3)
O2A O 0.2086(5) -0.3025(5) -0.1632(4)
O3A O 0.1080(5) -0.7448(4) -0.1946(3)
O4A O 0.2712(6) -0.7983(5) -0.1114(4)
O5A O 0.7536(5) -0.4002(5) -0.0638(4)
H1A H 0.7698 -0.4632 -0.0599
O6_2 O 1.1357(5) 0.1513(5) 0.2092(3)
O6A O -0.1357(5) -1.1513(5) -0.2092(3)
O7_2 O 1.0790(5) 0.3131(5) 0.2353(4)
O7A O -0.0790(5) -0.3131(5) -0.2353(4)
O8_2 O 1.4601(5) 0.7107(5) 0.4015(4)
O8_3 O 0.4601(5) 0.7107(5) 0.4015(4)
O8_4 O 0.4601(5) -0.2893(5) 0.4015(4)
O9_2 O 1.6883(5) 0.7292(5) 0.4580(4)
O10_2 O 1.6556(7) 0.2842(6) 0.3790(6)
H2_2 H 1.7372 0.3313 0.4095
O11A O 0.4965(6) 0.1250(5) -0.0912(3)
C1A C 0.7544(7) 0.0147(6) -0.0947(4)
H3A H 0.6818 -0.0349 -0.1445
C2A C 0.9619(7) 0.1296(6) -0.0115(4)
H4A H 1.0634 0.1772 0.0092
C3A C -0.2871(7) -0.9024(7) -0.3156(4)
H5A H -0.2893 -0.8472 -0.2688
C4A C -0.2242(7) -1.0218(6) -0.3925(4)
H6A H -0.1724 -1.0675 -0.4113
C5_2 C 0.8058(7) -0.0770(7) 0.3332(5)
H7_2 H 0.8269 -0.1378 0.3606
C6_2 C 0.7067(7) 0.0457(7) 0.2962(4)
H8_2 H 0.6444 0.0881 0.2918
C7A C 0.3489(7) -0.2653(6) -0.1337(4)
C8A C 0.2389(7) -0.7170(6) -0.1475(5)
C9A C 0.4049(7) -0.3657(6) -0.1266(4)
C10A C 0.3023(7) -0.4903(6) -0.1466(5)
H9A H 0.2016 -0.5095 -0.1673
C11A C 0.3506(7) -0.5854(6) -0.1356(4)
C12A C 0.5013(8) -0.5571(7) -0.1082(5)
H10A H 0.5340 -0.6208 -0.1014
C13A C 0.6031(7) -0.4335(7) -0.0909(5)
C14A C 0.5568(7) -0.3369(6) -0.0993(4)
H11A H 0.6258 -0.2542 -0.0870
C15_2 C 1.1715(7) 0.2595(7) 0.2448(4)
C16_2 C 1.5584(7) 0.6640(7) 0.4182(4)
C17_2 C 1.3231(7) 0.3345(6) 0.3007(4)
C18_2 C 1.3671(7) 0.4595(6) 0.3354(4)
H12_2 H 1.3004 0.4974 0.3250
C19_2 C 1.5086(7) 0.5274(6) 0.3849(4)
C20_2 C 1.6086(8) 0.4718(8) 0.4009(5)
H13_2 H 1.7044 0.5179 0.4345
C21_2 C 1.5649(7) 0.3477(7) 0.3668(5)
C22_2 C 1.4222(8) 0.2794(7) 0.3158(5)
H14_2 H 1.3938 0.1961 0.2919
N1A N 0.7238(5) 0.0399(5) -0.0159(3)
N2A N 0.9002(5) 0.0675(5) -0.0963(3)
N2_2 N 1.0998(5) 0.9325(5) 0.0963(3)
N2A_2 N -0.0998(5) -0.9325(5) -0.0963(3)
N3A N 0.8602(6) 0.1145(5) 0.0384(3)
N4A N -0.1836(6) -0.9499(5) -0.3120(3)
N5A N -0.3858(6) -0.9425(5) -0.3925(3)
N5_2 N 0.3858(6) 0.9425(5) 0.3925(3)
N5_3 N 0.3858(6) -0.0575(5) 0.3925(3)
N6A N -0.3436(6) -1.0216(5) -0.4421(3)
N6A_2 N 0.6564(6) 0.9784(5) 0.5579(3)
N6A_3 N 0.6564(6) -0.0216(5) 0.5579(3)
N7_2 N 0.8787(6) -0.0175(5) 0.2743(3)
N7A N 0.1213(6) -0.9825(5) -0.2743(3)
N8_2 N 0.8144(6) 0.0644(5) 0.2501(3)
N8A N 0.1856(6) -0.0644(5) -0.2501(3)
N9_2 N 0.6975(6) -0.0409(5) 0.3499(3)
O12 O 0.2166(10) 0.6475(10) 0.0564(8)
O13 O 0.9529(11) 0.4055(10) 0.3780(8)
O14 O 0.0174(12) 0.2366(12) 0.4857(10)
O15 O 0.0923(12) 0.6147(18) 0.1946(10)
loop_
_geom_bond_atom_site_label_1
_geom_bond_atom_site_label_2
_geom_bond_site_symmetry_1
_geom_bond_site_symmetry_2
Zn1 O1 1_555 1_555
Zn2 O3 1_555 1_555
Zn3 N9 1_555 1_555
Zn4 O2 1_555 1_555
O1 C7 1_555 1_555
O2 C7 1_555 1_555
O3 C8 1_555 1_555
O4 C8 1_555 1_555
O5 H1 1_555 1_555
O6 Zn2 1_555 1_555
O7 C15 1_555 1_555
O8 C16 1_555 1_555
O9 C16 1_555 1_555
O10 H2 1_555 1_555
O11 Zn1 1_555 1_555
C1 H3 1_555 1_555
C2 H4 1_555 1_555
C3 H5 1_555 1_555
C4 H6 1_555 1_555
C5 H7 1_555 1_555
C6 H8 1_555 1_555
C7 C9 1_555 1_555
C8 C11 1_555 1_555
C9 C10 1_555 1_555
C10 H9 1_555 1_555
C11 C10 1_555 1_555
C12 C11 1_555 1_555
H10 C12 1_555 1_555
C13 O5 1_555 1_555
C14 C9 1_555 1_555
H11 C14 1_555 1_555
C15 O6 1_555 1_555
C16 C19 1_555 1_555
C17 C15 1_555 1_555
C18 C17 1_555 1_555
H12 C18 1_555 1_555
C19 C18 1_555 1_555
C20 C19 1_555 1_555
H13 C20 1_555 1_555
C21 O10 1_555 1_555
C22 C17 1_555 1_555
H14 C22 1_555 1_555
N1 Zn1 1_555 1_555
N2 C1 1_555 1_555
N3 C2 1_555 1_555
N4 Zn2 1_555 1_555
N5 C3 1_555 1_555
N6 C4 1_555 1_555
N7 Zn2 1_555 1_555
N8 C6 1_555 1_555
N9 C5 1_555 1_555
Zn2A O3A 1_555 1_555
Zn2_2 N2 1_555 1_555
Zn2A_2 N2A 1_555 1_555
Zn2_3 O6_2 1_555 1_555
Zn3_2 O8_4 1_555 1_555
Zn3_3 O8 1_555 1_555
Zn3_4 N5 1_555 1_555
Zn3A N6 1_555 1_555
Zn3A_2 N5A 1_555 1_555
Zn3_5 N6A 1_555 1_555
Zn4A N3 1_555 1_555
Zn4_2 O7 1_555 1_555
O1A Zn1 1_555 1_555
O2A Zn4A 1_555 1_555
O3A C8A 1_555 1_555
O4A C8A 1_555 1_555
O5A H1A 1_555 1_555
O6_2 C15_2 1_555 1_555
O6A Zn2A 1_555 1_555
O7_2 Zn4 1_555 1_555
O7A Zn4A 1_555 1_555
O8_2 Zn3_4 1_555 1_555
O8_3 Zn3 1_555 1_555
O9_2 C16_2 1_555 1_555
O10_2 H2_2 1_555 1_555
O11A Zn1 1_555 1_555
C1A H3A 1_555 1_555
C2A H4A 1_555 1_555
C3A H5A 1_555 1_555
C4A H6A 1_555 1_555
C5_2 H7_2 1_555 1_555
C6_2 H8_2 1_555 1_555
C7A O1A 1_555 1_555
C8A C11A 1_555 1_555
C9A C7A 1_555 1_555
C10A C9A 1_555 1_555
H9A C10A 1_555 1_555
C11A C10A 1_555 1_555
C12A C11A 1_555 1_555
H10A C12A 1_555 1_555
C13A O5A 1_555 1_555
C14A C9A 1_555 1_555
H11A C14A 1_555 1_555
C15_2 O7_2 1_555 1_555
C16_2 O8_2 1_555 1_555
C17_2 C15_2 1_555 1_555
C18_2 C17_2 1_555 1_555
H12_2 C18_2 1_555 1_555
C19_2 C16_2 1_555 1_555
C20_2 C19_2 1_555 1_555
H13_2 C20_2 1_555 1_555
C21_2 O10_2 1_555 1_555
C22_2 C17_2 1_555 1_555
H14_2 C22_2 1_555 1_555
N1A Zn1 1_555 1_555
N2A C1A 1_555 1_555
N2_2 Zn2 1_555 1_555
N2A_2 Zn2A 1_555 1_555
N3A Zn4 1_555 1_555
N4A Zn2A 1_555 1_555
N5A C3A 1_555 1_555
N5_2 Zn3 1_555 1_555
N5_3 Zn3_2 1_555 1_555
N6A C4A 1_555 1_555
N6A_2 Zn3 1_555 1_555
N6A_3 Zn3_2 1_555 1_555
N7_2 Zn2_3 1_555 1_555
N7A Zn2A 1_555 1_555
N8_2 Zn4 1_555 1_555
N8A Zn4A 1_555 1_555
N9_2 Zn3_2 1_555 1_555
C1 N1 1_555 1_555
C2 N2 1_555 1_555
C3 N4 1_555 1_555
C4 N4 1_555 1_555
C5 N7 1_555 1_555
C6 N9 1_555 1_555
C12 C13 1_555 1_555
C13 C14 1_555 1_555
C20 C21 1_555 1_555
C21 C22 1_555 1_555
N1 N3 1_555 1_555
N5 N6 1_555 1_555
N7 N8 1_555 1_555
N8 Zn4_2 1_555 1_555
O2A C7A 1_555 1_555
C1A N1A 1_555 1_555
C2A N2A 1_555 1_555
C2A N3A 1_555 1_555
C3A N4A 1_555 1_555
C4A N4A 1_555 1_555
C5_2 N7_2 1_555 1_555
C5_2 N9_2 1_555 1_555
C6_2 N8_2 1_555 1_555
C6_2 N9_2 1_555 1_555
C12A C13A 1_555 1_555
C13A C14A 1_555 1_555
C18_2 C19_2 1_555 1_555
C20_2 C21_2 1_555 1_555
C21_2 C22_2 1_555 1_555
N1A N3A 1_555 1_555
N5A N6A 1_555 1_555
N7_2 N8_2 1_555 1_555

#END
