
#######################################################################
#
#                 Cambridge Crystallographic Data Centre
#                                CCDC 
#
#######################################################################
#
# If this CIF has been generated from an entry in the Cambridge 
# Structural Database, then it will include bibliographic, chemical, 
# crystal, experimental, refinement or atomic coordinate data resulting 
# from the CCDC's data processing and validation procedures.
#
#######################################################################

data_XUDPIX
_symmetry_cell_setting           orthorhombic
_symmetry_space_group_name_H-M   'P c c n'
_symmetry_Int_Tables_number      56
_space_group_name_Hall           '-P 2ab 2ac'
loop_
_symmetry_equiv_pos_site_id
_symmetry_equiv_pos_as_xyz
1 x,y,z
2 1/2-x,1/2-y,z
3 1/2+x,-y,1/2-z
4 -x,1/2+y,1/2-z
5 -x,-y,-z
6 1/2+x,1/2+y,-z
7 1/2-x,y,1/2+z
8 x,1/2-y,1/2+z
_cell_length_a                   37.441(7)
_cell_length_b                   37.449(7)
_cell_length_c                   27.250(5)
_cell_angle_alpha                90
_cell_angle_beta                 90
_cell_angle_gamma                90
_cell_volume                     38208
loop_
_atom_site_label
_atom_site_type_symbol
_atom_site_fract_x
_atom_site_fract_y
_atom_site_fract_z
Cu1 Cu 0.00102(2) 0.00335(2) 0.14958(2)
Cu2 Cu -0.00911(2) -0.00205(2) 0.24613(2)
Cu3 Cu 0.23856(2) 0.28367(2) 0.03999(3)
N1 N 0.09341(17) 0.30135(14) 0.3418(2)
N2 N 0.09182(16) 0.19675(14) 0.2360(2)
N3 N 0.19445(15) -0.09112(19) 0.2246(3)
O1 O 0.02520(12) 0.04760(11) 0.17054(18)
O2 O 0.04497(12) -0.02399(12) 0.1647(2)
O3 O 0.26616(14) -0.20508(16) 0.0812(2)
O4 O 0.20991(17) -0.22449(18) 0.0817(2)
O5 O 0.03889(11) -0.02430(13) 0.24578(19)
O6 O 0.01457(12) 0.04553(11) 0.25101(18)
O7 O 0.44550(11) -0.02189(13) 0.27184(18)
O8 O 0.23272(14) -0.20557(18) 0.4802(2)
O9 O 0.28887(16) -0.22354(18) 0.4789(2)
O10 O 0.45533(11) -0.02889(12) 0.35204(17)
O11 O 0.01461(18) 0.0120(2) 0.0740(2)
O12 O 0.20498(15) 0.26665(14) 0.0891(2)
O13 O 0.22513(14) 0.21020(14) 0.0903(2)
O14 O 0.02528(12) 0.45707(10) 0.35680(17)
O15 O 0.02990(12) 0.45143(11) 0.27513(17)
O16 O 0.22472(14) 0.29159(14) 0.4905(2)
O17 O 0.20582(14) 0.23482(14) 0.4902(2)
C1 C 0.07391(19) 0.27466(17) 0.3147(3)
C2 C 0.09156(18) 0.24868(16) 0.2884(3)
H1 H 0.1164 0.2487 0.2873
C3 C 0.07297(18) 0.22308(17) 0.2639(3)
C4 C 0.07597(19) 0.16252(17) 0.2290(3)
C5 C 0.0731(2) 0.1463(2) 0.1843(3)
H2 H 0.0822 0.1579 0.1568
C6 C 0.0574(2) 0.11355(19) 0.1784(3)
H3 H 0.0556 0.1035 0.1473
C7 C 0.04399(17) 0.09513(16) 0.2189(3)
C8 C 0.02714(16) 0.06006(15) 0.2129(3)
C9 C 0.05558(17) -0.03076(16) 0.2071(3)
C10 C 0.09080(16) -0.04836(17) 0.2125(3)
C11 C 0.1101(2) -0.0577(2) 0.1720(3)
H4 H 0.0997 -0.0547 0.1413
C12 C 0.1445(2) -0.0716(3) 0.1743(4)
H5 H 0.1575 -0.0764 0.1461
C13 C 0.15858(18) -0.0779(2) 0.2212(3)
C14 C 0.21886(17) -0.0730(2) 0.2534(3)
C15 C 0.24538(16) -0.0913(2) 0.2797(3)
H6 H 0.2461 -0.1161 0.2790
C16 C 0.27000(18) -0.0728(2) 0.3063(3)
C17 C 0.2685(2) -0.0356(2) 0.3091(4)
H7 H 0.2852 -0.0231 0.3275
C18 C 0.2425(3) -0.0180(3) 0.2848(5)
H8 H 0.2407 0.0067 0.2875
C19 C 0.2182(2) -0.0370(3) 0.2554(5)
H9 H 0.2014 -0.0245 0.2370
C20 C 0.2043(2) -0.1198(2) 0.1933(3)
C21 C 0.2376(2) -0.1210(2) 0.1728(4)
H10 H 0.2536 -0.1027 0.1801
C22 C 0.2487(2) -0.1479(3) 0.1420(4)
H11 H 0.2716 -0.1480 0.1289
C23 C 0.2240(2) -0.1760(2) 0.1306(3)
C24 C 0.2358(2) -0.2042(2) 0.0957(4)
C25 C 0.1899(2) -0.1749(2) 0.1508(4)
H12 H 0.1735 -0.1926 0.1431
C26 C 0.1803(2) -0.1473(2) 0.1827(3)
H13 H 0.1578 -0.1472 0.1969
C27 C 0.13975(18) -0.0693(2) 0.2618(4)
H14 H 0.1495 -0.0733 0.2927
C28 C 0.10594(19) -0.0543(2) 0.2575(3)
H15 H 0.0934 -0.0482 0.2857
C29 C 0.43655(15) -0.03176(16) 0.3135(3)
C30 C 0.40094(16) -0.04929(17) 0.3192(3)
C31 C 0.38809(18) -0.0595(2) 0.3642(3)
H16 H 0.4024 -0.0569 0.3919
C32 C 0.35419(19) -0.0734(2) 0.3687(3)
H17 H 0.3457 -0.0800 0.3994
C33 C 0.33290(17) -0.0777(2) 0.3281(3)
C34 C 0.34581(18) -0.0677(2) 0.2824(3)
H18 H 0.3314 -0.0704 0.2549
C35 C 0.37909(18) -0.0540(2) 0.2775(3)
H19 H 0.3876 -0.0477 0.2466
N4 N 0.29766(15) -0.0918(2) 0.3324(3)
C36 C 0.28929(18) -0.1206(2) 0.3646(3)
C37 C 0.25588(19) -0.1223(2) 0.3876(4)
H20 H 0.2392 -0.1046 0.3809
C38 C 0.2472(2) -0.1475(2) 0.4178(4)
H21 H 0.2243 -0.1480 0.4311
C39 C 0.2726(2) -0.1746(2) 0.4310(3)
C40 C 0.2636(2) -0.2034(2) 0.4668(3)
C41 C 0.30616(19) -0.1733(2) 0.4085(4)
H22 H 0.3234 -0.1903 0.4161
C42 C 0.3139(2) -0.1462(2) 0.3746(3)
H23 H 0.3359 -0.1459 0.3588
C43 C 0.0486(2) 0.11005(19) 0.2652(3)
H24 H 0.0412 0.0976 0.2930
C44 C 0.0644(2) 0.1438(2) 0.2702(3)
H25 H 0.0672 0.1537 0.3012
C45 C 0.11954(19) 0.20724(17) 0.2043(3)
C46 C 0.1476(2) 0.18339(19) 0.1939(3)
H26 H 0.1479 0.1610 0.2087
C47 C 0.1745(2) 0.19279(19) 0.1623(3)
H27 H 0.1924 0.1765 0.1550
C48 C 0.1751(2) 0.2253(2) 0.1418(3)
C49 C 0.2045(2) 0.2343(2) 0.1045(3)
C50 C 0.1482(2) 0.2494(2) 0.1520(3)
H28 H 0.1491 0.2722 0.1383
C51 C 0.1206(2) 0.24055(17) 0.1816(3)
H29 H 0.1023 0.2568 0.1869
C52 C 0.0364(2) 0.2232(2) 0.2655(4)
H30 H 0.0234 0.2057 0.2491
C53 C 0.0189(2) 0.2498(3) 0.2917(5)
H31 H -0.0059 0.2502 0.2919
C54 C 0.0366(2) 0.2745(2) 0.3165(4)
H32 H 0.0244 0.2915 0.3349
C55 C 0.08075(19) 0.33753(16) 0.3369(3)
C56 C 0.0736(2) 0.35106(18) 0.2897(3)
H33 H 0.0792 0.3374 0.2622
C57 C 0.0586(2) 0.38445(17) 0.2837(3)
H34 H 0.0533 0.3929 0.2524
C58 C 0.05126(16) 0.40527(16) 0.3244(2)
C59 C 0.03444(15) 0.44074(15) 0.3170(3)
C60 C 0.0592(2) 0.39259(18) 0.3717(3)
H35 H 0.0544 0.4066 0.3991
C61 C 0.0745(2) 0.35848(18) 0.3772(3)
H36 H 0.0803 0.3501 0.4083
C62 C 0.12078(19) 0.29301(16) 0.3746(3)
C63 C 0.1472(2) 0.31775(17) 0.3864(3)
H37 H 0.1462 0.3405 0.3729
C64 C 0.1741(2) 0.30925(18) 0.4170(3)
H38 H 0.1919 0.3259 0.4234
C65 C 0.17526(19) 0.27578(18) 0.4390(3)
C66 C 0.2042(2) 0.2668(2) 0.4757(3)
C67 C 0.1506(2) 0.2520(2) 0.4279(3)
H39 H 0.1521 0.2292 0.4415
C68 C 0.1222(2) 0.26006(17) 0.3962(3)
H40 H 0.1046 0.2432 0.3900
N5 N -0.02457(18) -0.01039(19) 0.3180(2)
C69 C -0.0077(2) 0.0004(3) 0.3622(3)
H41 H 0.0131 0.0140 0.3646
N6 N -0.0280(4) -0.0130(4) 0.40206(19)
C70 C -0.0575(3) -0.0322(4) 0.3825(3)
H42 H -0.0751 -0.0438 0.4005
C71 C -0.0554(2) -0.0305(3) 0.3305(3)
H43 H -0.0713 -0.0409 0.3085
N7 N 0.2182(2) 0.33785(15) 0.0405(3)
C72 C 0.1899(3) 0.3502(3) 0.0709(4)
H44 H 0.1805 0.3382 0.0979
N8 N 0.1787(3) 0.3839(3) 0.0529(5)
C73 C 0.1999(4) 0.3925(2) 0.0114(5)
H45 H 0.1981 0.4131 -0.0075
C74 C 0.2243(3) 0.3640(3) 0.0037(4)
H46 H 0.2413 0.3627 -0.0211
C75 C -0.0119(6) -0.0047(7) 0.4532(4)
C76 C -0.0345(4) -0.0086(6) 0.4905(7)
H47 H -0.0580 -0.0149 0.4840
C77 C 0.1449(5) 0.4022(7) 0.0751(7)
C78 C 0.0243(5) 0.0037(6) 0.4629(6)
H48 H 0.0407 0.0058 0.4374
N9 N 0.0535(4) 0.0072(5) 0.0100(5)
C79 C 0.0361(4) -0.0007(5) 0.0514(5)
H49 H 0.0439 -0.0222 0.0648
C80 C 0.0453(10) 0.0372(7) -0.0217(11)
H50 H 0.0294 0.0532 -0.0051
H51 H 0.0341 0.0286 -0.0512
H52 H 0.0669 0.0495 -0.0300
C81 C 0.0740(8) -0.0132(7) -0.0217(9)
H53 H 0.0822 -0.0342 -0.0049
H54 H 0.0942 0.0004 -0.0326
H55 H 0.0598 -0.0201 -0.0495
Cu4 Cu 0.28340(2) -0.23891(3) 0.03072(4)
O18 O 0.33891(17) -0.2216(2) 0.0295(3)
N5D N 0.02457(18) 0.01039(19) 0.6820(2)
C69D C 0.0077(2) -0.0004(3) 0.6378(3)
H41D H -0.0131 -0.0140 0.6354
N6D N 0.0280(4) 0.0130(4) 0.59794(19)
C70D C 0.0575(3) 0.0322(4) 0.6175(3)
H42D H 0.0751 0.0438 0.5995
C71D C 0.0554(2) 0.0305(3) 0.6695(3)
H43D H 0.0713 0.0409 0.6915
C75D C 0.0119(6) 0.0047(7) 0.5468(4)
C76D C 0.0345(4) 0.0086(6) 0.5095(7)
H47D H 0.0580 0.0149 0.5160
C78D C -0.0243(5) -0.0037(6) 0.5371(6)
H48D H -0.0407 -0.0058 0.5626
Cu1A Cu 0.49898(2) -0.50335(2) 0.14958(2)
Cu2A Cu 0.50911(2) -0.49795(2) 0.24613(2)
Cu3A Cu 0.26144(2) -0.78367(2) 0.03999(3)
N1A N 0.40659(17) -0.80135(14) 0.3418(2)
N2A N 0.40818(16) -0.69675(14) 0.2360(2)
N3A N 0.30555(15) -0.40888(19) 0.2246(3)
O1A O 0.47480(12) -0.54760(11) 0.17054(18)
O2A O 0.45503(12) -0.47601(12) 0.1647(2)
O3A O 0.23384(14) -0.29492(16) 0.0812(2)
O4A O 0.29009(17) -0.27551(18) 0.0817(2)
O5A O 0.46111(11) -0.47570(13) 0.24578(19)
O6A O 0.48543(12) -0.54553(11) 0.25101(18)
O7A O 0.05450(11) -0.47811(13) 0.27184(18)
O8A O 0.26728(14) -0.29443(18) 0.4802(2)
O9A O 0.21113(16) -0.27646(18) 0.4789(2)
O10A O 0.04467(11) -0.47111(12) 0.35204(17)
O11A O 0.48539(18) -0.5120(2) 0.0740(2)
O12A O 0.29502(15) -0.76665(14) 0.0891(2)
O13A O 0.27487(14) -0.71020(14) 0.0903(2)
O14A O 0.47472(12) -0.95707(10) 0.35680(17)
O15A O 0.47010(12) -0.95143(11) 0.27513(17)
O16A O 0.27528(14) -0.79159(14) 0.4905(2)
O17A O 0.29418(14) -0.73482(14) 0.4902(2)
C1A C 0.42609(19) -0.77466(17) 0.3147(3)
C2A C 0.40844(18) -0.74868(16) 0.2884(3)
H1A H 0.3836 -0.7487 0.2873
C3A C 0.42703(18) -0.72308(17) 0.2639(3)
C4A C 0.42403(19) -0.66252(17) 0.2290(3)
C5A C 0.4269(2) -0.6463(2) 0.1843(3)
H2A H 0.4178 -0.6579 0.1568
C6A C 0.4426(2) -0.61355(19) 0.1784(3)
H3A H 0.4444 -0.6035 0.1473
C7A C 0.45601(17) -0.59513(16) 0.2189(3)
C8A C 0.47286(16) -0.56006(15) 0.2129(3)
C9A C 0.44442(17) -0.46924(16) 0.2071(3)
C10A C 0.40920(16) -0.45164(17) 0.2125(3)
C11A C 0.3899(2) -0.4423(2) 0.1720(3)
H4A H 0.4003 -0.4453 0.1413
C12A C 0.3555(2) -0.4284(3) 0.1743(4)
H5A H 0.3425 -0.4236 0.1461
C13A C 0.34142(18) -0.4221(2) 0.2212(3)
C14A C 0.28114(17) -0.4270(2) 0.2534(3)
C15A C 0.25462(16) -0.4087(2) 0.2797(3)
H6A H 0.2539 -0.3839 0.2790
C16A C 0.23000(18) -0.4272(2) 0.3063(3)
C17A C 0.2315(2) -0.4644(2) 0.3091(4)
H7A H 0.2148 -0.4769 0.3275
C18A C 0.2575(3) -0.4820(3) 0.2848(5)
H8A H 0.2593 -0.5067 0.2875
C19A C 0.2818(2) -0.4630(3) 0.2554(5)
H9A H 0.2986 -0.4755 0.2370
C20A C 0.2957(2) -0.3802(2) 0.1933(3)
C21A C 0.2624(2) -0.3790(2) 0.1728(4)
H10A H 0.2464 -0.3973 0.1801
C22A C 0.2513(2) -0.3521(3) 0.1420(4)
H11A H 0.2284 -0.3520 0.1289
C23A C 0.2760(2) -0.3240(2) 0.1306(3)
C24A C 0.2642(2) -0.2958(2) 0.0957(4)
C25A C 0.3101(2) -0.3251(2) 0.1508(4)
H12A H 0.3265 -0.3074 0.1431
C26A C 0.3197(2) -0.3527(2) 0.1827(3)
H13A H 0.3422 -0.3528 0.1969
C27A C 0.36025(18) -0.4307(2) 0.2618(4)
H14A H 0.3505 -0.4267 0.2927
C28A C 0.39406(19) -0.4457(2) 0.2575(3)
H15A H 0.4066 -0.4518 0.2857
C29A C 0.06345(15) -0.46824(16) 0.3135(3)
C30A C 0.09906(16) -0.45071(17) 0.3192(3)
C31A C 0.11191(18) -0.4405(2) 0.3642(3)
H16A H 0.0976 -0.4431 0.3919
C32A C 0.14581(19) -0.4266(2) 0.3687(3)
H17A H 0.1543 -0.4200 0.3994
C33A C 0.16710(17) -0.4223(2) 0.3281(3)
C34A C 0.15419(18) -0.4323(2) 0.2824(3)
H18A H 0.1686 -0.4296 0.2549
C35A C 0.12091(18) -0.4460(2) 0.2775(3)
H19A H 0.1124 -0.4523 0.2466
N4A N 0.20234(15) -0.4082(2) 0.3324(3)
C36A C 0.21071(18) -0.3794(2) 0.3646(3)
C37A C 0.24412(19) -0.3777(2) 0.3876(4)
H20A H 0.2608 -0.3954 0.3809
C38A C 0.2528(2) -0.3525(2) 0.4178(4)
H21A H 0.2757 -0.3520 0.4311
C39A C 0.2274(2) -0.3254(2) 0.4310(3)
C40A C 0.2364(2) -0.2966(2) 0.4668(3)
C41A C 0.19384(19) -0.3267(2) 0.4085(4)
H22A H 0.1766 -0.3097 0.4161
C42A C 0.1861(2) -0.3538(2) 0.3746(3)
H23A H 0.1641 -0.3541 0.3588
C43A C 0.4514(2) -0.61005(19) 0.2652(3)
H24A H 0.4588 -0.5976 0.2930
C44A C 0.4356(2) -0.6438(2) 0.2702(3)
H25A H 0.4328 -0.6537 0.3012
C45A C 0.38046(19) -0.70724(17) 0.2043(3)
C46A C 0.3524(2) -0.68339(19) 0.1939(3)
H26A H 0.3521 -0.6610 0.2087
C47A C 0.3255(2) -0.69279(19) 0.1623(3)
H27A H 0.3076 -0.6765 0.1550
C48A C 0.3249(2) -0.7253(2) 0.1418(3)
C49A C 0.2955(2) -0.7343(2) 0.1045(3)
C50A C 0.3518(2) -0.7494(2) 0.1520(3)
H28A H 0.3509 -0.7722 0.1383
C51A C 0.3794(2) -0.74055(17) 0.1816(3)
H29A H 0.3977 -0.7568 0.1869
C52A C 0.4636(2) -0.7232(2) 0.2655(4)
H30A H 0.4766 -0.7057 0.2491
C53A C 0.4811(2) -0.7498(3) 0.2917(5)
H31A H 0.5059 -0.7502 0.2919
C54A C 0.4634(2) -0.7745(2) 0.3165(4)
H32A H 0.4756 -0.7915 0.3349
C55A C 0.41925(19) -0.83753(16) 0.3369(3)
C56A C 0.4264(2) -0.85106(18) 0.2897(3)
H33A H 0.4208 -0.8374 0.2622
C57A C 0.4414(2) -0.88445(17) 0.2837(3)
H34A H 0.4467 -0.8929 0.2524
C58A C 0.44874(16) -0.90527(16) 0.3244(2)
C59A C 0.46556(15) -0.94074(15) 0.3170(3)
C60A C 0.4408(2) -0.89259(18) 0.3717(3)
H35A H 0.4456 -0.9066 0.3991
C61A C 0.4255(2) -0.85848(18) 0.3772(3)
H36A H 0.4197 -0.8501 0.4083
C62A C 0.37922(19) -0.79301(16) 0.3746(3)
C63A C 0.3528(2) -0.81775(17) 0.3864(3)
H37A H 0.3538 -0.8405 0.3729
C64A C 0.3259(2) -0.80925(18) 0.4170(3)
H38A H 0.3081 -0.8259 0.4234
C65A C 0.32474(19) -0.77578(18) 0.4390(3)
C66A C 0.2958(2) -0.7668(2) 0.4757(3)
C67A C 0.3494(2) -0.7520(2) 0.4279(3)
H39A H 0.3479 -0.7292 0.4415
C68A C 0.3778(2) -0.76006(17) 0.3962(3)
H40A H 0.3954 -0.7432 0.3900
N7A N 0.2818(2) -0.83785(15) 0.0405(3)
C72A C 0.3101(3) -0.8502(3) 0.0709(4)
H44A H 0.3195 -0.8382 0.0979
N8A N 0.3213(3) -0.8839(3) 0.0529(5)
C73A C 0.3001(4) -0.8925(2) 0.0114(5)
H45A H 0.3019 -0.9131 -0.0075
C74A C 0.2757(3) -0.8640(3) 0.0037(4)
H46A H 0.2587 -0.8627 -0.0211
C77A C 0.3551(5) -0.9022(7) 0.0751(7)
N9A N 0.4465(4) -0.5072(5) 0.0100(5)
C79A C 0.4639(4) -0.4993(5) 0.0514(5)
H49A H 0.4561 -0.4778 0.0648
C80A C 0.4547(10) -0.5372(7) -0.0217(11)
H50A H 0.4706 -0.5532 -0.0051
H51A H 0.4659 -0.5286 -0.0512
H52A H 0.4331 -0.5495 -0.0300
C81A C 0.4260(8) -0.4868(7) -0.0217(9)
H53A H 0.4178 -0.4658 -0.0049
H54A H 0.4058 -0.5004 -0.0326
H55A H 0.4402 -0.4799 -0.0495
Cu4A Cu 0.21660(2) -0.26109(3) 0.03072(4)
O18A O 0.16109(17) -0.2784(2) 0.0295(3)
Cu1B Cu 0.50102(2) -1.00335(2) 0.35042(2)
Cu1B_2 Cu 0.50102(2) -0.00335(2) 0.35042(2)
Cu1C Cu -0.00102(2) -0.49665(2) 0.35042(2)
Cu1C_2 Cu -0.00102(2) 0.50335(2) 0.35042(2)
Cu2B Cu 0.49089(2) -0.99795(2) 0.25387(2)
Cu2B_2 Cu 0.49089(2) 0.00205(2) 0.25387(2)
Cu2C Cu 0.00911(2) -0.50205(2) 0.25387(2)
Cu2C_2 Cu 0.00911(2) 0.49795(2) 0.25387(2)
Cu2D Cu 0.00911(2) 0.00205(2) 0.75387(2)
Cu3_2 Cu 0.23856(2) -0.71633(2) 0.03999(3)
Cu3A_2 Cu 0.26144(2) 0.21633(2) 0.03999(3)
Cu3F Cu 0.26144(2) -0.71633(2) 0.53999(3)
Cu3F_2 Cu 0.26144(2) 0.28367(2) 0.53999(3)
Cu3G Cu 0.23856(2) -0.78367(2) 0.53999(3)
Cu3G_2 Cu 0.23856(2) 0.21633(2) 0.53999(3)
O7B O -0.05450(11) 0.02189(13) 0.22816(18)
O7C O 0.55450(11) -0.52189(13) 0.22816(18)
O8F O 0.26728(14) -0.20557(18) -0.0198(2)
O8G O 0.23272(14) -0.29443(18) -0.0198(2)
O9F O 0.21113(16) -0.22354(18) -0.0211(2)
O9G O 0.28887(16) -0.27646(18) -0.0211(2)
O10B O -0.04467(11) 0.02889(12) 0.14796(17)
O10C O 0.54467(11) -0.52889(12) 0.14796(17)
O13_2 O 0.22513(14) -0.78980(14) 0.0903(2)
O13A_2 O 0.27487(14) 0.28980(14) 0.0903(2)
O14B O 0.52528(12) -0.45707(10) 0.14320(17)
O14C O -0.02528(12) -0.04293(10) 0.14320(17)
O15B O 0.52990(12) -0.45143(11) 0.22487(17)
O15C O -0.02990(12) -0.04857(11) 0.22487(17)
O16F O 0.27528(14) 0.29159(14) -0.0095(2)
O16G O 0.22472(14) -0.79159(14) -0.0095(2)
O17F O 0.29418(14) -0.76518(14) -0.0098(2)
O17G O 0.20582(14) 0.26518(14) -0.0098(2)
N5A N 0.52457(18) -0.48961(19) 0.3180(2)
Cu4F Cu 0.21660(2) -0.23891(3) 0.53072(4)
Cu4G Cu 0.28340(2) -0.26109(3) 0.53072(4)
loop_
_geom_bond_atom_site_label_1
_geom_bond_atom_site_label_2
_geom_bond_site_symmetry_1
_geom_bond_site_symmetry_2
Cu1 O1 1_555 1_555
Cu2 O5 1_555 1_555
Cu3 O12 1_555 1_555
N1 C1 1_555 1_555
N2 C3 1_555 1_555
N3 C13 1_555 1_555
O1 C8 1_555 1_555
O2 Cu1 1_555 1_555
O3 C24 1_555 1_555
O4 C24 1_555 1_555
O5 C9 1_555 1_555
O6 Cu2 1_555 1_555
O7 C29 1_555 1_555
O8 C40 1_555 1_555
O9 C40 1_555 1_555
O10 C29 1_555 1_555
O11 Cu1 1_555 1_555
O12 C49 1_555 1_555
O13 C49 1_555 1_555
O14 C59 1_555 1_555
O15 C59 1_555 1_555
O16 C66 1_555 1_555
O17 C66 1_555 1_555
C1 C2 1_555 1_555
C2 H1 1_555 1_555
C3 C2 1_555 1_555
C4 N2 1_555 1_555
C5 C4 1_555 1_555
H2 C5 1_555 1_555
C6 C5 1_555 1_555
H3 C6 1_555 1_555
C7 C6 1_555 1_555
C8 O6 1_555 1_555
C9 O2 1_555 1_555
C10 C9 1_555 1_555
C11 C10 1_555 1_555
H4 C11 1_555 1_555
C12 C11 1_555 1_555
H5 C12 1_555 1_555
C13 C12 1_555 1_555
C14 N3 1_555 1_555
C15 C14 1_555 1_555
H6 C15 1_555 1_555
C16 C15 1_555 1_555
C17 C16 1_555 1_555
H7 C17 1_555 1_555
C18 C17 1_555 1_555
H8 C18 1_555 1_555
C19 C14 1_555 1_555
H9 C19 1_555 1_555
C20 N3 1_555 1_555
C21 C20 1_555 1_555
H10 C21 1_555 1_555
C22 C21 1_555 1_555
H11 C22 1_555 1_555
C23 C22 1_555 1_555
C24 C23 1_555 1_555
C25 C23 1_555 1_555
H12 C25 1_555 1_555
C26 C20 1_555 1_555
H13 C26 1_555 1_555
C27 C13 1_555 1_555
H14 C27 1_555 1_555
C28 C10 1_555 1_555
H15 C28 1_555 1_555
C29 C30 1_555 1_555
C30 C31 1_555 1_555
C31 H16 1_555 1_555
C32 C31 1_555 1_555
H17 C32 1_555 1_555
C33 C32 1_555 1_555
C34 C33 1_555 1_555
H18 C34 1_555 1_555
C35 C30 1_555 1_555
H19 C35 1_555 1_555
N4 C16 1_555 1_555
C36 N4 1_555 1_555
C37 C36 1_555 1_555
H20 C37 1_555 1_555
C38 C37 1_555 1_555
H21 C38 1_555 1_555
C39 C38 1_555 1_555
C40 C39 1_555 1_555
C41 C39 1_555 1_555
H22 C41 1_555 1_555
C42 C36 1_555 1_555
H23 C42 1_555 1_555
C43 C7 1_555 1_555
H24 C43 1_555 1_555
C44 C4 1_555 1_555
H25 C44 1_555 1_555
C45 N2 1_555 1_555
C46 C45 1_555 1_555
H26 C46 1_555 1_555
C47 C46 1_555 1_555
H27 C47 1_555 1_555
C48 C47 1_555 1_555
C49 C48 1_555 1_555
C50 C48 1_555 1_555
H28 C50 1_555 1_555
C51 C45 1_555 1_555
H29 C51 1_555 1_555
C52 C3 1_555 1_555
H30 C52 1_555 1_555
C53 C52 1_555 1_555
H31 C53 1_555 1_555
C54 C1 1_555 1_555
H32 C54 1_555 1_555
C55 N1 1_555 1_555
C56 C55 1_555 1_555
H33 C56 1_555 1_555
C57 C56 1_555 1_555
H34 C57 1_555 1_555
C58 C57 1_555 1_555
C59 C58 1_555 1_555
C60 C58 1_555 1_555
H35 C60 1_555 1_555
C61 C55 1_555 1_555
H36 C61 1_555 1_555
C62 N1 1_555 1_555
C63 C62 1_555 1_555
H37 C63 1_555 1_555
C64 C63 1_555 1_555
H38 C64 1_555 1_555
C65 C64 1_555 1_555
C66 C65 1_555 1_555
C67 C65 1_555 1_555
H39 C67 1_555 1_555
C68 C62 1_555 1_555
H40 C68 1_555 1_555
N5 Cu2 1_555 1_555
C69 N5 1_555 1_555
H41 C69 1_555 1_555
N6 C69 1_555 1_555
C70 N6 1_555 1_555
H42 C70 1_555 1_555
C71 N5 1_555 1_555
H43 C71 1_555 1_555
N7 Cu3 1_555 1_555
C72 N7 1_555 1_555
H44 C72 1_555 1_555
N8 C72 1_555 1_555
C73 N8 1_555 1_555
H45 C73 1_555 1_555
C74 N7 1_555 1_555
H46 C74 1_555 1_555
C75 N6 1_555 1_555
C76 C75 1_555 1_555
H47 C76 1_555 1_555
C77 N8 1_555 1_555
C78 C75 1_555 1_555
H48 C78 1_555 1_555
N9 C79 1_555 1_555
C79 O11 1_555 1_555
H49 C79 1_555 1_555
C80 N9 1_555 1_555
H50 C80 1_555 1_555
H51 C80 1_555 1_555
H52 C80 1_555 1_555
C81 N9 1_555 1_555
H53 C81 1_555 1_555
H54 C81 1_555 1_555
H55 C81 1_555 1_555
Cu4 O3 1_555 1_555
O18 Cu4 1_555 1_555
N5D C69D 1_555 1_555
C69D H41D 1_555 1_555
N6D C69D 1_555 1_555
C70D N6D 1_555 1_555
H42D C70D 1_555 1_555
C71D N5D 1_555 1_555
H43D C71D 1_555 1_555
C75D N6D 1_555 1_555
C76D C78 1_555 1_555
H47D C76D 1_555 1_555
C78D C76 1_555 1_555
H48D C78D 1_555 1_555
Cu1A O1A 1_555 1_555
Cu2A O5A 1_555 1_555
Cu3A O12A 1_555 1_555
N1A C1A 1_555 1_555
N2A C3A 1_555 1_555
N3A C13A 1_555 1_555
O1A C8A 1_555 1_555
O2A Cu1A 1_555 1_555
O3A C24A 1_555 1_555
O4A Cu4 1_555 1_555
O5A C9A 1_555 1_555
O6A Cu2A 1_555 1_555
O7A C29A 1_555 1_555
O8A C40A 1_555 1_555
O9A C40A 1_555 1_555
O10A C29A 1_555 1_555
O11A Cu1A 1_555 1_555
O12A C49A 1_555 1_555
O13A C49A 1_555 1_555
O14A C59A 1_555 1_555
O15A C59A 1_555 1_555
O16A C66A 1_555 1_555
O17A C66A 1_555 1_555
C1A C2A 1_555 1_555
C2A H1A 1_555 1_555
C3A C2A 1_555 1_555
C4A N2A 1_555 1_555
C5A C4A 1_555 1_555
H2A C5A 1_555 1_555
C6A C5A 1_555 1_555
H3A C6A 1_555 1_555
C7A C6A 1_555 1_555
C8A O6A 1_555 1_555
C9A O2A 1_555 1_555
C10A C9A 1_555 1_555
C11A C10A 1_555 1_555
H4A C11A 1_555 1_555
C12A C11A 1_555 1_555
H5A C12A 1_555 1_555
C13A C12A 1_555 1_555
C14A N3A 1_555 1_555
C15A C14A 1_555 1_555
H6A C15A 1_555 1_555
C16A C15A 1_555 1_555
C17A C16A 1_555 1_555
H7A C17A 1_555 1_555
C18A C17A 1_555 1_555
H8A C18A 1_555 1_555
C19A C14A 1_555 1_555
H9A C19A 1_555 1_555
C20A N3A 1_555 1_555
C21A C20A 1_555 1_555
H10A C21A 1_555 1_555
C22A C21A 1_555 1_555
H11A C22A 1_555 1_555
C23A C22A 1_555 1_555
C24A O4A 1_555 1_555
C25A C23A 1_555 1_555
H12A C25A 1_555 1_555
C26A C20A 1_555 1_555
H13A C26A 1_555 1_555
C27A C13A 1_555 1_555
H14A C27A 1_555 1_555
C28A C10A 1_555 1_555
H15A C28A 1_555 1_555
C29A C30A 1_555 1_555
C30A C31A 1_555 1_555
C31A H16A 1_555 1_555
C32A C31A 1_555 1_555
H17A C32A 1_555 1_555
C33A C32A 1_555 1_555
C34A C33A 1_555 1_555
H18A C34A 1_555 1_555
C35A C30A 1_555 1_555
H19A C35A 1_555 1_555
N4A C16A 1_555 1_555
C36A N4A 1_555 1_555
C37A C36A 1_555 1_555
H20A C37A 1_555 1_555
C38A C37A 1_555 1_555
H21A C38A 1_555 1_555
C39A C38A 1_555 1_555
C40A C39A 1_555 1_555
C41A C39A 1_555 1_555
H22A C41A 1_555 1_555
C42A C36A 1_555 1_555
H23A C42A 1_555 1_555
C43A C7A 1_555 1_555
H24A C43A 1_555 1_555
C44A C4A 1_555 1_555
H25A C44A 1_555 1_555
C45A N2A 1_555 1_555
C46A C45A 1_555 1_555
H26A C46A 1_555 1_555
C47A C46A 1_555 1_555
H27A C47A 1_555 1_555
C48A C47A 1_555 1_555
C49A C48A 1_555 1_555
C50A C48A 1_555 1_555
H28A C50A 1_555 1_555
C51A C45A 1_555 1_555
H29A C51A 1_555 1_555
C52A C3A 1_555 1_555
H30A C52A 1_555 1_555
C53A C52A 1_555 1_555
H31A C53A 1_555 1_555
C54A C1A 1_555 1_555
H32A C54A 1_555 1_555
C55A N1A 1_555 1_555
C56A C55A 1_555 1_555
H33A C56A 1_555 1_555
C57A C56A 1_555 1_555
H34A C57A 1_555 1_555
C58A C57A 1_555 1_555
C59A C58A 1_555 1_555
C60A C58A 1_555 1_555
H35A C60A 1_555 1_555
C61A C55A 1_555 1_555
H36A C61A 1_555 1_555
C62A N1A 1_555 1_555
C63A C62A 1_555 1_555
H37A C63A 1_555 1_555
C64A C63A 1_555 1_555
H38A C64A 1_555 1_555
C65A C64A 1_555 1_555
C66A C65A 1_555 1_555
C67A C65A 1_555 1_555
H39A C67A 1_555 1_555
C68A C62A 1_555 1_555
H40A C68A 1_555 1_555
N7A Cu3A 1_555 1_555
C72A N7A 1_555 1_555
H44A C72A 1_555 1_555
N8A C72A 1_555 1_555
C73A N8A 1_555 1_555
H45A C73A 1_555 1_555
C74A N7A 1_555 1_555
H46A C74A 1_555 1_555
C77A N8A 1_555 1_555
N9A C79A 1_555 1_555
C79A O11A 1_555 1_555
H49A C79A 1_555 1_555
C80A N9A 1_555 1_555
H50A C80A 1_555 1_555
H51A C80A 1_555 1_555
H52A C80A 1_555 1_555
C81A N9A 1_555 1_555
H53A C81A 1_555 1_555
H54A C81A 1_555 1_555
H55A C81A 1_555 1_555
Cu4A O4 1_555 1_555
O18A Cu4A 1_555 1_555
Cu1B O14A 1_555 1_555
Cu1B_2 O10 1_555 1_555
Cu1C O10A 1_555 1_555
Cu1C_2 O14 1_555 1_555
Cu2B O15A 1_555 1_555
Cu2B_2 O7 1_555 1_555
Cu2C O7A 1_555 1_555
Cu2C_2 O15 1_555 1_555
Cu2D N5D 1_555 1_555
Cu3_2 O13A 1_555 1_555
Cu3A_2 O13 1_555 1_555
Cu3F O17A 1_555 1_555
Cu3F_2 O16 1_555 1_555
Cu3G O16A 1_555 1_555
Cu3G_2 O17 1_555 1_555
O7B Cu2 1_555 1_555
O7C Cu2A 1_555 1_555
O8F Cu4 1_555 1_555
O8G Cu4A 1_555 1_555
O9F Cu4A 1_555 1_555
O9G Cu4 1_555 1_555
O10B Cu1 1_555 1_555
O10C Cu1A 1_555 1_555
O13_2 Cu3A 1_555 1_555
O13A_2 Cu3 1_555 1_555
O14B Cu1A 1_555 1_555
O14C Cu1 1_555 1_555
O15B Cu2A 1_555 1_555
O15C Cu2 1_555 1_555
O16F Cu3 1_555 1_555
O16G Cu3A 1_555 1_555
O17F Cu3A 1_555 1_555
O17G Cu3 1_555 1_555
N5A Cu2A 1_555 1_555
Cu4F O8 1_555 1_555
Cu4G O9 1_555 1_555
C7 C8 1_555 1_555
C18 C19 1_555 1_555
C25 C26 1_555 1_555
C27 C28 1_555 1_555
C33 N4 1_555 1_555
C34 C35 1_555 1_555
C41 C42 1_555 1_555
C43 C44 1_555 1_555
C50 C51 1_555 1_555
C53 C54 1_555 1_555
C60 C61 1_555 1_555
C67 C68 1_555 1_555
C70 C71 1_555 1_555
C73 C74 1_555 1_555
C70D C71D 1_555 1_555
C75D C76D 1_555 1_555
C75D C78D 1_555 1_555
O3A Cu4A 1_555 1_555
O8A Cu4G 1_555 1_555
O9A Cu4F 1_555 1_555
C7A C8A 1_555 1_555
C18A C19A 1_555 1_555
C23A C24A 1_555 1_555
C25A C26A 1_555 1_555
C27A C28A 1_555 1_555
C33A N4A 1_555 1_555
C34A C35A 1_555 1_555
C41A C42A 1_555 1_555
C43A C44A 1_555 1_555
C50A C51A 1_555 1_555
C53A C54A 1_555 1_555
C60A C61A 1_555 1_555
C67A C68A 1_555 1_555
C73A C74A 1_555 1_555

#END
