
#######################################################################
#
#                 Cambridge Crystallographic Data Centre
#                                CCDC 
#
#######################################################################
#
# If this CIF has been generated from an entry in the Cambridge 
# Structural Database, then it will include bibliographic, chemical, 
# crystal, experimental, refinement or atomic coordinate data resulting 
# from the CCDC's data processing and validation procedures.
#
#######################################################################

data_XUDWEA
_symmetry_cell_setting           monoclinic
_symmetry_space_group_name_H-M   'C 2'
_symmetry_Int_Tables_number      5
_space_group_name_Hall           'C 2y'
loop_
_symmetry_equiv_pos_site_id
_symmetry_equiv_pos_as_xyz
1 x,y,z
2 -x,y,-z
3 1/2+x,1/2+y,z
4 1/2-x,1/2+y,-z
_cell_length_a                   44.964(2)
_cell_length_b                   12.4911(2)
_cell_length_c                   31.6821(17)
_cell_angle_alpha                90
_cell_angle_beta                 134.571(9)
_cell_angle_gamma                90
_cell_volume                     12676.3
loop_
_atom_site_label
_atom_site_type_symbol
_atom_site_fract_x
_atom_site_fract_y
_atom_site_fract_z
Cd1 Cd 0.238098(19) -0.49344(5) -0.14792(3)
Cd2 Cd 0.23766(2) 0.22798(6) -0.12250(3)
Cd3 Cd 0.5000 0.34274(5) 0.0000
Cd4 Cd 0.5000 0.60308(5) 0.0000
Cd5 Cd 0.413412(16) 1.47056(5) -0.36149(2)
Cd6 Cd 0.321675(17) 1.53232(4) -0.51906(2)
Cd7 Cd 0.357550(18) 1.72198(4) -0.40091(2)
Cd8 Cd 0.64603(3) 0.90985(7) -0.25510(4)
C1 C 0.2465(3) -0.3603(7) -0.2292(4)
H1 H 0.2233 -0.4010 -0.2596
C2 C 0.2623(3) -0.2925(7) -0.2427(4)
H2 H 0.2508 -0.2892 -0.2811
C3 C 0.2957(3) -0.2284(7) -0.1988(4)
C4 C 0.3115(3) -0.2350(8) -0.1425(4)
H3 H 0.3337 -0.1919 -0.1122
C5 C 0.2939(3) -0.3065(8) -0.1318(4)
H4 H 0.3041 -0.3095 -0.0942
C6 C 0.3160(3) -0.1503(6) -0.2069(4)
C7 C 0.3249(3) 0.0048(6) -0.2890(4)
H5 H 0.2951 0.0125 -0.3235
H6 H 0.3369 0.0760 -0.2756
C8 C 0.3254(3) -0.1096(7) -0.3536(4)
H7 H 0.2971 -0.1252 -0.3835
C9 C 0.3890(3) -0.0978(9) -0.3014(4)
H8 H 0.4149 -0.1094 -0.2879
C10 C 0.3583(2) -0.0314(7) -0.1837(3)
C11 C 0.3917(3) 0.0482(6) -0.1464(4)
C12 C 0.4162(3) 0.0908(7) -0.1548(4)
H9 H 0.4115 0.0708 -0.1874
C13 C 0.4478(3) 0.1637(7) -0.1133(4)
H10 H 0.4633 0.1923 -0.1199
C14 C 0.4348(3) 0.1479(7) -0.0564(4)
H11 H 0.4427 0.1618 -0.0209
C15 C 0.4016(3) 0.0813(7) -0.0962(4)
H12 H 0.3856 0.0581 -0.0894
C16 C 0.4915(3) 0.7969(9) -0.0756(4)
H13 H 0.4645 0.7706 -0.1003
C17 C 0.5003(3) 0.8798(8) -0.0945(4)
H14 H 0.4785 0.9171 -0.1289
C18 C 0.5402(3) 0.9073(7) -0.0635(4)
C19 C 0.5720(3) 0.8606(8) -0.0082(4)
H15 H 0.5998 0.8800 0.0152
C20 C 0.5614(3) 0.7850(8) 0.0107(4)
H16 H 0.5825 0.7541 0.0477
C21 C 0.5467(2) 0.9908(7) -0.0901(3)
C22 C 0.6199(3) 0.9517(7) -0.0470(4)
H17 H 0.6172 0.8809 -0.0375
H18 H 0.6256 0.9436 -0.0712
C23 C 0.5341(3) 1.1203(7) -0.1426(4)
C24 C 0.5095(3) 1.2009(7) -0.1901(3)
C25 C 0.4675(3) 1.2086(8) -0.2253(4)
H19 H 0.4547 1.1643 -0.2183
C26 C 0.4443(3) 1.2798(9) -0.2702(5)
H20 H 0.4156 1.2806 -0.2947
C27 C 0.5015(3) 1.3463(8) -0.2465(4)
H21 H 0.5136 1.3968 -0.2523
C28 C 0.5277(3) 1.2706(7) -0.2013(4)
H22 H 0.5559 1.2668 -0.1797
C29 C 0.4806(3) 1.5011(7) -0.3734(5)
H23 H 0.4822 1.5701 -0.3609
C30 C 0.5056(3) 1.4765(8) -0.3827(5)
H24 H 0.5229 1.5281 -0.3774
C31 C 0.5045(3) 1.3750(8) -0.4000(5)
C32 C 0.4778(3) 1.3004(8) -0.4071(5)
H25 H 0.4764 1.2303 -0.4183
C33 C 0.4538(3) 1.3323(8) -0.3973(5)
H26 H 0.4362 1.2824 -0.4021
C34 C 0.5279(3) 1.3451(9) -0.4142(5)
C35 C 0.55639(18) 1.1640(5) -0.4638(3)
H27 H 0.5653 1.1874 -0.4827
H28 H 0.5292 1.1303 -0.4930
C36 C 0.56646(18) 1.3563(5) -0.4291(3)
C37 C 0.59241(18) 1.3981(5) -0.4380(3)
C38 C 0.58413(18) 1.4880(5) -0.4634(3)
H29 H 0.5630 1.5309 -0.4738
C39 C 0.6066(3) 1.5207(10) -0.4754(5)
H30 H 0.5977 1.5827 -0.4978
C40 C 0.6509(4) 1.3834(10) -0.4266(6)
H31 H 0.6749 1.3494 -0.4123
C41 C 0.6310(4) 1.3380(10) -0.4135(6)
H32 H 0.6402 1.2755 -0.3915
C42 C 0.3182(3) -0.5404(8) -0.0402(4)
C43 C 0.3635(3) -0.5561(8) 0.0111(4)
C44 C 0.3886(3) -0.4556(10) 0.0471(5)
H33 H 0.3769 -0.3937 0.0212
H34 H 0.3878 -0.4429 0.0765
C45 C 0.4333(3) -0.4742(10) 0.0771(4)
H35 H 0.4435 -0.4127 0.0718
H36 H 0.4514 -0.4865 0.1192
C46 C 0.4317(3) -0.5702(8) 0.0480(4)
H37 H 0.4417 -0.6302 0.0751
C47 C 0.3869(3) -0.5951(8) -0.0076(4)
C48 C 0.3729(3) -0.5243(10) -0.0576(4)
H38 H 0.3443 -0.5395 -0.0927
H39 H 0.3900 -0.5379 -0.0649
H40 H 0.3756 -0.4506 -0.0468
C49 C 0.3773(3) -0.7111(10) -0.0277(5)
H41 H 0.3858 -0.7560 0.0038
H42 H 0.3922 -0.7315 -0.0380
H43 H 0.3478 -0.7193 -0.0617
C50 C 0.3675(4) -0.6413(12) 0.0494(6)
H44 H 0.3516 -0.7034 0.0258
H45 H 0.3570 -0.6133 0.0651
H46 H 0.3963 -0.6606 0.0815
C51 C 0.4593(2) -0.5688(7) 0.0353(3)
C52 C 0.1765(4) -0.3464(9) -0.1895(6)
C53 C 0.1519(4) -0.2428(9) -0.2025(6)
H47 H 0.1242 -0.2495 -0.2430
C54 C 0.1450(5) -0.2228(11) -0.1649(7)
H48 H 0.1654 -0.2618 -0.1280
H49 H 0.1174 -0.2475 -0.1844
C55 C 0.1488(4) -0.1059(10) -0.1526(6)
H50 H 0.1736 -0.0908 -0.1113
H51 H 0.1245 -0.0798 -0.1616
C56 C 0.1518(4) -0.0529(9) -0.1942(6)
C57 C 0.1725(4) -0.1433(10) -0.2017(6)
C58 C 0.1668(5) -0.1346(14) -0.2541(8)
H52 H 0.1375 -0.1342 -0.2898
H53 H 0.1799 -0.1946 -0.2546
H54 H 0.1793 -0.0694 -0.2515
C59 C 0.2197(4) -0.1443(11) -0.1480(7)
H55 H 0.2316 -0.0798 -0.1476
H56 H 0.2316 -0.2051 -0.1504
H57 H 0.2258 -0.1486 -0.1124
C60 C 0.1107(4) -0.0198(12) -0.2512(7)
H58 H 0.0925 -0.0808 -0.2704
H59 H 0.1137 0.0099 -0.2760
H60 H 0.0990 0.0332 -0.2443
C61 C 0.1804(5) 0.0454(12) -0.1629(8)
C62 C 0.5741(2) 0.5170(7) 0.1158(3)
C63 C 0.6117(3) 0.5164(8) 0.1837(3)
C64 C 0.6234(4) 0.4072(11) 0.2128(5)
H61 H 0.6419 0.3710 0.2117
H62 H 0.5984 0.3640 0.1912
C65 C 0.6453(4) 0.4194(11) 0.2779(5)
H63 H 0.6347 0.3682 0.2877
H64 H 0.6753 0.4107 0.3052
C66 C 0.6342(3) 0.5296(9) 0.2785(4)
H65 H 0.6595 0.5725 0.2996
C67 C 0.5999(4) 0.5820(10) 0.2164(4)
C68 C 0.5585(3) 0.5550(11) 0.1875(5)
H66 H 0.5561 0.4786 0.1877
H67 H 0.5392 0.5803 0.1474
H68 H 0.5524 0.5878 0.2081
C69 C 0.6068(5) 0.6996(11) 0.2181(5)
H69 H 0.6349 0.7122 0.2368
H70 H 0.6024 0.7349 0.2403
H71 H 0.5876 0.7274 0.1785
C70 C 0.6463(4) 0.5778(13) 0.1985(6)
H72 H 0.6358 0.6448 0.1777
H73 H 0.6578 0.5374 0.1871
H74 H 0.6676 0.5911 0.2404
C71 C 0.6221(3) 0.5428(9) 0.3133(4)
C72 C 0.3392(3) 1.3029(7) -0.4690(5)
C73 C 0.3228(3) 1.1900(8) -0.4766(5)
C74 C 0.2976(3) 1.1892(7) -0.4582(5)
C75 C 0.2700(3) 1.0870(8) -0.4928(5)
H75 H 0.2858 1.0243 -0.4675
C76 C 0.2642(4) 1.0788(10) -0.5438(6)
H76 H 0.2351 1.0919 -0.5795
H77 H 0.2711 1.0068 -0.5461
C77 C 0.2913(4) 1.1581(10) -0.5400(6)
H78 H 0.3045 1.1251 -0.5511
H79 H 0.2751 1.2193 -0.5655
C78 C 0.3581(4) 1.1154(11) -0.4449(8)
H80 H 0.3488 1.0439 -0.4484
H81 H 0.3794 1.1351 -0.4038
H82 H 0.3693 1.1184 -0.4618
C79 C 0.3248(4) 1.1719(11) -0.3928(6)
H83 H 0.3421 1.2338 -0.3713
H84 H 0.3422 1.1102 -0.3799
H85 H 0.3075 1.1607 -0.3857
C80 C 0.2729(3) 1.2894(8) -0.4771(5)
H86 H 0.2916 1.3489 -0.4548
H87 H 0.2555 1.2826 -0.4700
H88 H 0.2559 1.3013 -0.5185
C81 C 0.2312(4) 1.0927(9) -0.5069(7)
C82 C 0.4312(4) 1.8740(12) -0.3712(6)
C83 C 0.4696(4) 1.9366(11) -0.3295(6)
H89 H 0.4615 2.0122 -0.3389
C84 C 0.4951(4) 1.9229(14) -0.2645(6)
H90 H 0.4891 1.9807 -0.2509
H91 H 0.4879 1.8557 -0.2580
C85 C 0.5406(4) 1.9235(14) -0.2303(7)
H92 H 0.5520 1.8516 -0.2184
H93 H 0.5563 1.9681 -0.1953
C86 C 0.5415(4) 1.9703(14) -0.2746(6)
C87 C 0.5407(6) 2.0869(14) -0.2800(9)
H94 H 0.5418 2.1054 -0.3083
H95 H 0.5643 2.1173 -0.2422
H96 H 0.5154 2.1144 -0.2931
C88 C 0.5024(4) 1.9169(13) -0.3336(6)
C89 C 0.4879(5) 1.9651(15) -0.3900(7)
H97 H 0.5082 1.9500 -0.3913
H98 H 0.4848 2.0411 -0.3900
H99 H 0.4616 1.9342 -0.4241
C90 C 0.5066(4) 1.7990(11) -0.3351(7)
H100 H 0.5264 1.7846 -0.3375
H101 H 0.4800 1.7691 -0.3691
H102 H 0.5162 1.7672 -0.2998
C91 C 0.5798(5) 1.9404(13) -0.2614(7)
C92 C 0.2820(3) 1.6595(8) -0.6171(4)
C93 C 0.2582(3) 1.7307(9) -0.6714(4)
H103 H 0.2287 1.7134 -0.6962
C94 C 0.2613(4) 1.8468(10) -0.6615(5)
H104 H 0.2886 1.8670 -0.6238
H105 H 0.2401 1.8721 -0.6631
C95 C 0.2535(4) 1.8901(10) -0.7151(5)
H106 H 0.2288 1.9351 -0.7399
H107 H 0.2771 1.9335 -0.7004
C96 C 0.2478(4) 1.8005(9) -0.7510(4)
C97 C 0.1983(4) 1.7810(12) -0.8037(6)
H108 H 0.1930 1.7233 -0.8283
H109 H 0.1851 1.8449 -0.8270
H110 H 0.1874 1.7630 -0.7873
C98 C 0.2668(3) 1.7007(9) -0.7092(4)
C99 C 0.2504(4) 1.5899(10) -0.7386(5)
H111 H 0.2207 1.5873 -0.7641
H112 H 0.2634 1.5358 -0.7086
H113 H 0.2567 1.5774 -0.7615
C100 C 0.3133(3) 1.6976(10) -0.6706(4)
H114 H 0.3252 1.6372 -0.6445
H115 H 0.3258 1.7623 -0.6478
H116 H 0.3185 1.6915 -0.6952
C101 C 0.2624(3) 1.8163(9) -0.7817(4)
N1 N 0.2622(2) -0.3722(6) -0.1748(4)
N2 N 0.3493(2) -0.0931(6) -0.1605(3)
N3 N 0.3039(2) -0.1264(5) -0.2582(3)
N4 N 0.33126(19) -0.0487(5) -0.2426(3)
N5 N 0.3431(2) -0.0514(5) -0.3058(3)
N6 N 0.3848(2) -0.0404(8) -0.2730(4)
N7 N 0.3537(3) -0.1417(7) -0.3524(3)
N8 N 0.4569(2) 0.1945(5) -0.0654(3)
N9 N 0.5226(2) 0.7542(5) -0.0212(3)
N10 N 0.5173(2) 1.0595(6) -0.1287(3)
N11 N 0.58086(19) 1.0107(5) -0.0802(3)
N12 N 0.5727(2) 1.0940(5) -0.1144(3)
N13 N 0.66205(16) 1.0015(5) 0.05589(19)
N14 N 0.65388(14) 1.0072(4) 0.00658(18)
C102 C 0.68178(15) 1.0726(4) 0.01685(19)
H117 H 0.6833 1.0909 -0.0101
N15 N 0.70719(15) 1.1074(4) 0.07250(19)
C103 C 0.69499(16) 1.0634(5) 0.09663(19)
H118 H 0.7073 1.0741 0.1351
N16 N 0.4612(2) 1.3499(7) -0.2810(3)
N17 N 0.4546(2) 1.4324(5) -0.3811(3)
N18 N 0.5514(3) 1.4162(7) -0.4138(4)
N19 N 0.5302(4) 1.2438(7) -0.4258(6)
N20 N 0.5562(4) 1.2546(8) -0.4329(6)
N21 N 0.5887(3) 1.0892(8) -0.4111(4)
N22 N 0.6181(4) 1.0506(11) -0.4061(6)
C104 C 0.6392(4) 0.9800(11) -0.3632(6)
H119 H 0.6619 0.9404 -0.3503
N23 N 0.6228(4) 0.9749(9) -0.3418(5)
C105 C 0.5915(4) 1.0424(10) -0.3714(5)
H120 H 0.5744 1.0549 -0.3653
N24 N 0.6395(2) 1.4722(7) -0.4581(3)
O1 O 0.2051(3) -0.3749(7) -0.1366(4)
O2 O 0.1690(3) -0.3957(6) -0.2297(3)
O3 O 0.1841(3) 0.1052(8) -0.1886(5)
O4 O 0.1982(3) 0.0754(8) -0.1155(5)
O5 O 0.3021(2) -0.4498(6) -0.0453(3)
O6 O 0.2950(2) -0.6073(7) -0.0791(3)
O7 O 0.47019(18) -0.6592(4) 0.0320(2)
O8 O 0.46922(18) -0.4816(5) 0.0297(2)
O9 O 0.55791(19) 0.4302(5) 0.0896(3)
O10 O 0.56065(18) 0.6078(4) 0.0915(2)
O11 O 0.6200(2) 0.4611(6) 0.3331(3)
O12 O 0.6125(3) 0.6327(7) 0.3169(3)
O13 O 0.3723(3) 1.3311(7) -0.4214(4)
O14 O 0.3156(3) 1.3609(6) -0.5139(4)
O15 O 0.2303(4) 1.0646(12) -0.4720(7)
O16 O 0.1994(4) 1.1334(12) -0.5550(8)
O17 O 0.4237(2) 1.7999(6) -0.3492(3)
O18 O 0.4053(3) 1.9014(8) -0.4255(4)
O19 O 0.6100(4) 1.9122(13) -0.2122(7)
O20 O 0.5831(4) 1.9481(14) -0.2946(7)
O21 O 0.31394(19) 1.6976(5) -0.5662(2)
O22 O 0.2704(2) 1.5662(6) -0.6217(3)
O23 O 0.2816(3) 1.9027(6) -0.7724(3)
O24 O 0.2561(2) 1.7403(5) -0.8130(3)
O25 O 0.37814(17) 1.5996(4) -0.4297(2)
O26 O 0.19832(17) 0.3738(5) -0.1594(3)
O27 O 0.2591(3) 0.2584(7) -0.0331(3)
H121 H 0.2650 0.2967 -0.0059
H122 H 0.2548 0.1949 -0.0287
O28 O 0.3274(2) 1.8294(5) -0.4823(3)
H123 H 0.3441 1.8767 -0.4752
H124 H 0.3168 1.7974 -0.5140
O29 O 0.4656(2) 1.6019(7) -0.2955(4)
H125 H 0.4887 1.6094 -0.2597
H126 H 0.4557 1.6641 -0.3098
O30 O 0.6292(3) 0.7355(7) -0.2869(5)
H127 H 0.6451 0.6913 -0.2585
H128 H 0.6382 0.7430 -0.3031
Cd5A Cd 0.586588(16) 1.47056(5) -0.63851(2)
Cd6A Cd 0.678325(17) 1.53232(4) -0.48094(2)
Cd7A Cd 0.642450(18) 1.72198(4) -0.59909(2)
Cd8A Cd 0.35397(3) 0.90985(7) -0.74490(4)
C16A C 0.5085(3) 0.7969(9) -0.9244(4)
H13A H 0.5355 0.7706 -0.8997
C17A C 0.4997(3) 0.8798(8) -0.9055(4)
H14A H 0.5215 0.9171 -0.8711
C18A C 0.4598(3) 0.9073(7) -0.9365(4)
C19A C 0.4280(3) 0.8606(8) -0.9918(4)
H15A H 0.4002 0.8800 -1.0152
C20A C 0.4386(3) 0.7850(8) -1.0107(4)
H16A H 0.4175 0.7541 -1.0477
C21A C 0.4533(2) 0.9908(7) -0.9099(3)
C22A C 0.3801(3) 0.9517(7) -0.9530(4)
H17A H 0.3828 0.8809 -0.9625
H18A H 0.3744 0.9436 -0.9288
C23A C 0.4659(3) 1.1203(7) -0.8574(4)
C24A C 0.4905(3) 1.2009(7) -0.8099(3)
C25A C 0.5325(3) 1.2086(8) -0.7747(4)
H19A H 0.5453 1.1643 -0.7817
C26A C 0.5557(3) 1.2798(9) -0.7298(5)
H20A H 0.5844 1.2806 -0.7053
C27A C 0.4985(3) 1.3463(8) -0.7535(4)
H21A H 0.4864 1.3968 -0.7477
C28A C 0.4723(3) 1.2706(7) -0.7987(4)
H22A H 0.4441 1.2668 -0.8203
C29A C 0.5194(3) 1.5011(7) -0.6266(5)
H23A H 0.5178 1.5701 -0.6391
C30A C 0.4944(3) 1.4765(8) -0.6173(5)
H24A H 0.4771 1.5281 -0.6226
C31A C 0.4955(3) 1.3750(8) -0.6000(5)
C32A C 0.5222(3) 1.3004(8) -0.5929(5)
H25A H 0.5236 1.2303 -0.5817
C33A C 0.5462(3) 1.3323(8) -0.6027(5)
H26A H 0.5638 1.2824 -0.5979
C34A C 0.4721(3) 1.3451(9) -0.5858(5)
C35A C 0.44361(18) 1.1640(5) -0.5362(3)
H27A H 0.4347 1.1874 -0.5173
H28A H 0.4708 1.1303 -0.5070
C36A C 0.43354(18) 1.3563(5) -0.5709(3)
C37A C 0.40759(18) 1.3981(5) -0.5620(3)
C38A C 0.41587(18) 1.4880(5) -0.5366(3)
H29A H 0.4370 1.5309 -0.5262
C39A C 0.3934(3) 1.5207(10) -0.5246(5)
H30A H 0.4023 1.5827 -0.5022
C40A C 0.3491(4) 1.3834(10) -0.5734(6)
H31A H 0.3251 1.3494 -0.5877
C41A C 0.3690(4) 1.3380(10) -0.5865(6)
H32A H 0.3598 1.2755 -0.6085
C72A C 0.6608(3) 1.3029(7) -0.5310(5)
C73A C 0.6772(3) 1.1900(8) -0.5234(5)
C74A C 0.7024(3) 1.1892(7) -0.5418(5)
C75A C 0.7300(3) 1.0870(8) -0.5072(5)
H75A H 0.7142 1.0243 -0.5325
C76A C 0.7358(4) 1.0788(10) -0.4562(6)
H76A H 0.7649 1.0919 -0.4205
H77A H 0.7289 1.0068 -0.4539
C77A C 0.7087(4) 1.1581(10) -0.4600(6)
H78A H 0.6955 1.1251 -0.4489
H79A H 0.7249 1.2193 -0.4345
C78A C 0.6419(4) 1.1154(11) -0.5551(8)
H80A H 0.6512 1.0439 -0.5516
H81A H 0.6206 1.1351 -0.5962
H82A H 0.6307 1.1184 -0.5382
C79A C 0.6752(4) 1.1719(11) -0.6072(6)
H83A H 0.6579 1.2338 -0.6287
H84A H 0.6578 1.1102 -0.6201
H85A H 0.6925 1.1607 -0.6143
C80A C 0.7271(3) 1.2894(8) -0.5229(5)
H86A H 0.7084 1.3489 -0.5452
H87A H 0.7445 1.2826 -0.5300
H88A H 0.7441 1.3013 -0.4815
C81A C 0.7688(4) 1.0927(9) -0.4931(7)
C82A C 0.5688(4) 1.8740(12) -0.6288(6)
C83A C 0.5304(4) 1.9366(11) -0.6705(6)
H89A H 0.5385 2.0122 -0.6611
C84A C 0.5049(4) 1.9229(14) -0.7355(6)
H90A H 0.5109 1.9807 -0.7491
H91A H 0.5121 1.8557 -0.7420
C85A C 0.4594(4) 1.9235(14) -0.7697(7)
H92A H 0.4480 1.8516 -0.7816
H93A H 0.4437 1.9681 -0.8047
C86A C 0.4585(4) 1.9703(14) -0.7254(6)
C87A C 0.4593(6) 2.0869(14) -0.7200(9)
H94A H 0.4582 2.1054 -0.6917
H95A H 0.4357 2.1173 -0.7578
H96A H 0.4846 2.1144 -0.7069
C88A C 0.4976(4) 1.9169(13) -0.6664(6)
C89A C 0.5121(5) 1.9651(15) -0.6100(7)
H97A H 0.4918 1.9500 -0.6087
H98A H 0.5152 2.0411 -0.6100
H99A H 0.5384 1.9342 -0.5759
C90A C 0.4934(4) 1.7990(11) -0.6649(7)
H100A H 0.4736 1.7846 -0.6625
H101A H 0.5200 1.7691 -0.6309
H102A H 0.4838 1.7672 -0.7002
C91A C 0.4202(5) 1.9404(13) -0.7386(7)
C92A C 0.7180(3) 1.6595(8) -0.3829(4)
C93A C 0.7418(3) 1.7307(9) -0.3286(4)
H103A H 0.7713 1.7134 -0.3038
C94A C 0.7387(4) 1.8468(10) -0.3385(5)
H104A H 0.7114 1.8670 -0.3762
H105A H 0.7599 1.8721 -0.3369
C95A C 0.7465(4) 1.8901(10) -0.2849(5)
H106A H 0.7712 1.9351 -0.2601
H107A H 0.7229 1.9335 -0.2996
C96A C 0.7522(4) 1.8005(9) -0.2490(4)
C97A C 0.8017(4) 1.7810(12) -0.1963(6)
H108A H 0.8070 1.7233 -0.1717
H109A H 0.8149 1.8449 -0.1730
H110A H 0.8126 1.7630 -0.2127
C98A C 0.7332(3) 1.7007(9) -0.2908(4)
C99A C 0.7496(4) 1.5899(10) -0.2614(5)
H111A H 0.7793 1.5873 -0.2359
H112A H 0.7366 1.5358 -0.2914
H113A H 0.7433 1.5774 -0.2385
C100A C 0.6867(3) 1.6976(10) -0.3294(4)
H114A H 0.6748 1.6372 -0.3555
H115A H 0.6742 1.7623 -0.3522
H116A H 0.6815 1.6915 -0.3048
C101A C 0.7376(3) 1.8163(9) -0.2183(4)
N9A N 0.4774(2) 0.7542(5) -0.9788(3)
N10A N 0.4827(2) 1.0595(6) -0.8713(3)
N11A N 0.41914(19) 1.0107(5) -0.9198(3)
N12A N 0.4273(2) 1.0940(5) -0.8856(3)
N13A N 0.33795(16) 1.0015(5) -1.05589(19)
N14A N 0.34612(14) 1.0072(4) -1.00658(18)
C102A C 0.31822(15) 1.0726(4) -1.01685(19)
H117A H 0.3167 1.0909 -0.9899
N15A N 0.29281(15) 1.1074(4) -1.07250(19)
C103A C 0.30501(16) 1.0634(5) -1.09663(19)
H118A H 0.2927 1.0741 -1.1351
N16A N 0.5388(2) 1.3499(7) -0.7190(3)
N17A N 0.5454(2) 1.4324(5) -0.6189(3)
N18A N 0.4486(3) 1.4162(7) -0.5862(4)
N19A N 0.4698(4) 1.2438(7) -0.5742(6)
N20A N 0.4438(4) 1.2546(8) -0.5671(6)
N21A N 0.4113(3) 1.0892(8) -0.5889(4)
N22A N 0.3819(4) 1.0506(11) -0.5939(6)
C104A C 0.3608(4) 0.9800(11) -0.6368(6)
H119A H 0.3381 0.9404 -0.6497
N23A N 0.3772(4) 0.9749(9) -0.6582(5)
C105A C 0.4085(4) 1.0424(10) -0.6286(5)
H120A H 0.4256 1.0549 -0.6347
N24A N 0.3605(2) 1.4722(7) -0.5419(3)
O13A O 0.6277(3) 1.3311(7) -0.5786(4)
O14A O 0.6844(3) 1.3609(6) -0.4861(4)
O15A O 0.7697(4) 1.0646(12) -0.5280(7)
O16A O 0.8006(4) 1.1334(12) -0.4450(8)
O17A O 0.5763(2) 1.7999(6) -0.6508(3)
O18A O 0.5947(3) 1.9014(8) -0.5745(4)
O19A O 0.3900(4) 1.9122(13) -0.7878(7)
O20A O 0.4169(4) 1.9481(14) -0.7054(7)
O21A O 0.68606(19) 1.6976(5) -0.4338(2)
O22A O 0.7296(2) 1.5662(6) -0.3783(3)
O23A O 0.7184(3) 1.9027(6) -0.2276(3)
O24A O 0.7439(2) 1.7403(5) -0.1870(3)
O25A O 0.62186(17) 1.5996(4) -0.5703(2)
O28A O 0.6726(2) 1.8294(5) -0.5177(3)
H123A H 0.6559 1.8767 -0.5248
H124A H 0.6832 1.7974 -0.4860
O29A O 0.5344(2) 1.6019(7) -0.7045(4)
H125A H 0.5113 1.6094 -0.7403
H126A H 0.5443 1.6641 -0.6902
O30A O 0.3708(3) 0.7355(7) -0.7131(5)
H127A H 0.3549 0.6913 -0.7415
H128A H 0.3618 0.7430 -0.6969
Cd1_2 Cd 0.238098(19) -1.49344(5) -0.14792(3)
Cd2_2 Cd 0.23766(2) -0.77202(6) -0.12250(3)
C1_2 C 0.2465(3) -1.3603(7) -0.2292(4)
H1_2 H 0.2233 -1.4010 -0.2596
C2_2 C 0.2623(3) -1.2925(7) -0.2427(4)
H2_2 H 0.2508 -1.2892 -0.2811
C3_2 C 0.2957(3) -1.2284(7) -0.1988(4)
C4_2 C 0.3115(3) -1.2350(8) -0.1425(4)
H3_2 H 0.3337 -1.1919 -0.1122
C5_2 C 0.2939(3) -1.3065(8) -0.1318(4)
H4_2 H 0.3041 -1.3095 -0.0942
C6_2 C 0.3160(3) -1.1503(6) -0.2069(4)
C7_2 C 0.3249(3) -0.9952(6) -0.2890(4)
H5_2 H 0.2951 -0.9875 -0.3235
H6_2 H 0.3369 -0.9240 -0.2756
C8_2 C 0.3254(3) -1.1096(7) -0.3536(4)
H7_2 H 0.2971 -1.1252 -0.3835
C9_2 C 0.3890(3) -1.0978(9) -0.3014(4)
H8_2 H 0.4149 -1.1094 -0.2879
C10_2 C 0.3583(2) -1.0314(7) -0.1837(3)
C11_2 C 0.3917(3) -0.9518(6) -0.1464(4)
C12_2 C 0.4162(3) -0.9092(7) -0.1548(4)
H9_2 H 0.4115 -0.9292 -0.1874
C13_2 C 0.4478(3) -0.8363(7) -0.1133(4)
H10_2 H 0.4633 -0.8077 -0.1199
C14_2 C 0.4348(3) -0.8521(7) -0.0564(4)
H11_2 H 0.4427 -0.8382 -0.0209
C15_2 C 0.4016(3) -0.9187(7) -0.0962(4)
H12_2 H 0.3856 -0.9419 -0.0894
C42_2 C 0.3182(3) -1.5404(8) -0.0402(4)
C43_2 C 0.3635(3) -1.5561(8) 0.0111(4)
C44_2 C 0.3886(3) -1.4556(10) 0.0471(5)
H33_2 H 0.3769 -1.3937 0.0212
H34_2 H 0.3878 -1.4429 0.0765
C45_2 C 0.4333(3) -1.4742(10) 0.0771(4)
H35_2 H 0.4435 -1.4127 0.0718
H36_2 H 0.4514 -1.4865 0.1192
C46_2 C 0.4317(3) -1.5702(8) 0.0480(4)
H37_2 H 0.4417 -1.6302 0.0751
C47_2 C 0.3869(3) -1.5951(8) -0.0076(4)
C48_2 C 0.3729(3) -1.5243(10) -0.0576(4)
H38_2 H 0.3443 -1.5395 -0.0927
H39_2 H 0.3900 -1.5379 -0.0649
H40_2 H 0.3756 -1.4506 -0.0468
C49_2 C 0.3773(3) -1.7111(10) -0.0277(5)
H41_2 H 0.3858 -1.7560 0.0038
H42_2 H 0.3922 -1.7315 -0.0380
H43_2 H 0.3478 -1.7193 -0.0617
C50_2 C 0.3675(4) -1.6413(12) 0.0494(6)
H44_2 H 0.3516 -1.7034 0.0258
H45_2 H 0.3570 -1.6133 0.0651
H46_2 H 0.3963 -1.6606 0.0815
C51_2 C 0.4593(2) -1.5688(7) 0.0353(3)
C52_2 C 0.1765(4) -1.3464(9) -0.1895(6)
C53_2 C 0.1519(4) -1.2428(9) -0.2025(6)
H47_2 H 0.1242 -1.2495 -0.2430
C54_2 C 0.1450(5) -1.2228(11) -0.1649(7)
H48_2 H 0.1654 -1.2618 -0.1280
H49_2 H 0.1174 -1.2475 -0.1844
C55_2 C 0.1488(4) -1.1059(10) -0.1526(6)
H50_2 H 0.1736 -1.0908 -0.1113
H51_2 H 0.1245 -1.0798 -0.1616
C56_2 C 0.1518(4) -1.0529(9) -0.1942(6)
C57_2 C 0.1725(4) -1.1433(10) -0.2017(6)
C58_2 C 0.1668(5) -1.1346(14) -0.2541(8)
H52_2 H 0.1375 -1.1342 -0.2898
H53_2 H 0.1799 -1.1946 -0.2546
H54_2 H 0.1793 -1.0694 -0.2515
C59_2 C 0.2197(4) -1.1443(11) -0.1480(7)
H55_2 H 0.2316 -1.0798 -0.1476
H56_2 H 0.2316 -1.2051 -0.1504
H57_2 H 0.2258 -1.1486 -0.1124
C60_2 C 0.1107(4) -1.0198(12) -0.2512(7)
H58_2 H 0.0925 -1.0808 -0.2704
H59_2 H 0.1137 -0.9901 -0.2760
H60_2 H 0.0990 -0.9668 -0.2443
C61_2 C 0.1804(5) -0.9546(12) -0.1629(8)
N1_2 N 0.2622(2) -1.3722(6) -0.1748(4)
N2_2 N 0.3493(2) -1.0931(6) -0.1605(3)
N3_2 N 0.3039(2) -1.1264(5) -0.2582(3)
N4_2 N 0.33126(19) -1.0487(5) -0.2426(3)
N5_2 N 0.3431(2) -1.0514(5) -0.3058(3)
N6_2 N 0.3848(2) -1.0404(8) -0.2730(4)
N7_2 N 0.3537(3) -1.1417(7) -0.3524(3)
N8_2 N 0.4569(2) -0.8055(5) -0.0654(3)
O1_2 O 0.2051(3) -1.3749(7) -0.1366(4)
O2_2 O 0.1690(3) -1.3957(6) -0.2297(3)
O3_2 O 0.1841(3) -0.8948(8) -0.1886(5)
O4_2 O 0.1982(3) -0.9246(8) -0.1155(5)
O5_2 O 0.3021(2) -1.4498(6) -0.0453(3)
O6_2 O 0.2950(2) -1.6073(7) -0.0791(3)
O7_2 O 0.47019(18) -1.6592(4) 0.0320(2)
O8_2 O 0.46922(18) -1.4816(5) 0.0297(2)
O26_2 O 0.19832(17) -0.6262(5) -0.1594(3)
O27_2 O 0.2591(3) -0.7416(7) -0.0331(3)
H121_2 H 0.2650 -0.7033 -0.0059
H122_2 H 0.2548 -0.8051 -0.0287
C62A C 0.4259(2) 0.5170(7) -0.1158(3)
C63A C 0.3883(3) 0.5164(8) -0.1837(3)
C64A C 0.3766(4) 0.4072(11) -0.2128(5)
H61A H 0.3581 0.3710 -0.2117
H62A H 0.4016 0.3640 -0.1912
C65A C 0.3547(4) 0.4194(11) -0.2779(5)
H63A H 0.3653 0.3682 -0.2877
H64A H 0.3247 0.4107 -0.3052
C66A C 0.3658(3) 0.5296(9) -0.2785(4)
H65A H 0.3405 0.5725 -0.2996
C67A C 0.4001(4) 0.5820(10) -0.2164(4)
C68A C 0.4415(3) 0.5550(11) -0.1875(5)
H66A H 0.4439 0.4786 -0.1877
H67A H 0.4608 0.5803 -0.1474
H68A H 0.4476 0.5878 -0.2081
C69A C 0.3932(5) 0.6996(11) -0.2181(5)
H69A H 0.3651 0.7122 -0.2368
H70A H 0.3976 0.7349 -0.2403
H71A H 0.4124 0.7274 -0.1785
C70A C 0.3537(4) 0.5778(13) -0.1985(6)
H72A H 0.3642 0.6448 -0.1777
H73A H 0.3422 0.5374 -0.1871
H74A H 0.3324 0.5911 -0.2404
C71A C 0.3779(3) 0.5428(9) -0.3133(4)
O9A O 0.44209(19) 0.4302(5) -0.0896(3)
O10A O 0.43935(18) 0.6078(4) -0.0915(2)
O11A O 0.3800(2) 0.4611(6) -0.3331(3)
O12A O 0.3875(3) 0.6327(7) -0.3169(3)
Cd1_3 Cd 0.238098(19) 0.50656(5) -0.14792(3)
Cd1B Cd 0.738098(19) 2.00656(5) -0.14792(3)
Cd1C Cd 0.261902(19) 2.00656(5) -0.85208(3)
Cd2_3 Cd 0.23766(2) -1.77202(6) -0.12250(3)
Cd2_4 Cd 0.23766(2) 1.22798(6) -1.12250(3)
Cd2A Cd 0.76234(2) 1.22798(6) 0.12250(3)
Cd2B Cd 0.73766(2) 1.72798(6) -0.12250(3)
Cd2C Cd 0.26234(2) 1.72798(6) -0.87750(3)
Cd3_2 Cd 0.5000 -1.65726(5) 0.0000
Cd3_3 Cd 0.5000 -0.65726(5) 0.0000
Cd4_2 Cd 0.5000 -1.39692(5) 0.0000
Cd4_3 Cd 0.5000 -0.39692(5) 0.0000
Cd4_4 Cd 0.5000 0.60308(5) -1.0000
Cd5_2 Cd 0.413412(16) 0.47056(5) -0.36149(2)
Cd5A_2 Cd 0.586588(16) 0.47056(5) 0.36149(2)
Cd6B Cd 0.821675(17) 1.03232(4) -0.51906(2)
Cd6C Cd 0.178325(17) 1.03232(4) -0.48094(2)
Cd7_2 Cd 0.357550(18) -1.27802(4) -0.40091(2)
Cd7_3 Cd 0.357550(18) -0.27802(4) -0.40091(2)
Cd7_4 Cd 0.357550(18) 0.72198(4) -0.40091(2)
Cd7A_2 Cd 0.642450(18) 0.72198(4) 0.40091(2)
Cd7B Cd 0.857550(18) 1.22198(4) -0.40091(2)
Cd7C Cd 0.142450(18) 1.22198(4) -0.59909(2)
Cd8_2 Cd 0.64603(3) 1.90985(7) -0.25510(4)
Cd8A_2 Cd 0.35397(3) 1.90985(7) -0.74490(4)
Cd8B Cd 0.14603(3) -1.59015(7) -0.25510(4)
Cd8B_2 Cd 0.14603(3) -0.59015(7) -0.25510(4)
Cd8B_3 Cd 0.14603(3) 0.40985(7) -0.25510(4)
N7_3 N 0.3537(3) 1.8583(7) -0.3524(3)
N7A N 0.6463(3) 1.8583(7) -0.6476(3)
N8A N 0.5431(2) 0.1945(5) 0.0654(3)
N9A_2 N 0.4774(2) 0.7542(5) 0.0212(3)
N15A_2 N 0.29281(15) -0.8926(4) -0.07250(19)
N15A_3 N 0.29281(15) 0.1074(4) -0.07250(19)
O2B O 0.6690(3) 1.1043(6) -0.2297(3)
O2C O 0.3310(3) 1.1043(6) -0.7703(3)
O6_3 O 0.2950(2) 0.3927(7) -0.0791(3)
O7_3 O 0.47019(18) 0.3408(4) 0.0320(2)
O7A O 0.52981(18) 0.3408(4) -0.0320(2)
O8_3 O 0.46922(18) 0.5184(5) 0.0297(2)
O8A O 0.53078(18) 0.5184(5) -0.0297(2)
O11_2 O 0.6200(2) 1.4611(6) -0.6669(3)
O11A_2 O 0.3800(2) 1.4611(6) -0.3331(3)
O12_2 O 0.6125(3) 1.6327(7) -0.6831(3)
O12A_2 O 0.3875(3) 1.6327(7) -0.3169(3)
O15B O 0.7303(4) 1.5646(12) -0.4720(7)
O15C O 0.2697(4) 1.5646(12) -0.5280(7)
O16B O 0.6994(4) 1.6334(12) -0.5550(8)
O16C O 0.3006(4) 1.6334(12) -0.4450(8)
O19_2 O 0.6100(4) 0.9122(13) -0.2122(7)
O19A_2 O 0.3900(4) 0.9122(13) -0.7878(7)
O20_2 O 0.5831(4) 0.9481(14) -0.2946(7)
O20A_2 O 0.4169(4) 0.9481(14) -0.7054(7)
O23_2 O 0.2816(3) 0.9027(6) -0.7724(3)
O23A_2 O 0.7184(3) 0.9027(6) -0.2276(3)
O23C O 0.2184(3) -1.5973(6) -0.2276(3)
O23C_2 O 0.2184(3) -0.5973(6) -0.2276(3)
O24C O 0.2439(2) -0.7597(5) -0.1870(3)
O24C_2 O 0.2439(2) 0.2403(5) -0.1870(3)
O26_3 O 0.19832(17) -1.6262(5) -0.1594(3)
O26B O 0.69832(17) 0.8738(5) -0.1594(3)
O26C O 0.30168(17) 0.8738(5) -0.8406(3)
O31 O 0.5556(5) 1.6574(13) -0.4001(6)
H129 H 0.5722 1.6047 -0.3862
H130 H 0.5605 1.6866 -0.3716
O32 O 0.3930(4) 1.7844(13) -0.5104(7)
H131 H 0.3976 1.8287 -0.4860
H132 H 0.3697 1.7547 -0.5289
O33 O 0.5374(6) 1.7524(16) -0.4998(7)
H133 H 0.5273 1.7730 -0.5333
H134 H 0.5597 1.7876 -0.4732
O34 O 0.6662(7) 2.005(2) -0.0981(9)
O35 O 0.6785(8) 0.765(2) -0.0129(12)
O36 O 0.5520(6) 1.6066(17) -0.1999(8)
O37 O 0.5000 0.944(4) -0.5000
loop_
_geom_bond_atom_site_label_1
_geom_bond_atom_site_label_2
_geom_bond_site_symmetry_1
_geom_bond_site_symmetry_2
Cd1 N1 1_555 1_555
Cd2 O3 1_555 1_555
Cd3 N8 1_555 1_555
Cd4 N9 1_555 1_555
Cd5 N16 1_555 1_555
Cd6 O14 1_555 1_555
Cd7 O17 1_555 1_555
Cd8 N23 1_555 1_555
C1 H1 1_555 1_555
C2 C1 1_555 1_555
H2 C2 1_555 1_555
C3 C2 1_555 1_555
C4 C3 1_555 1_555
H3 C4 1_555 1_555
C5 C4 1_555 1_555
H4 C5 1_555 1_555
C6 C3 1_555 1_555
C7 H5 1_555 1_555
H6 C7 1_555 1_555
C8 H7 1_555 1_555
C9 H8 1_555 1_555
C10 C11 1_555 1_555
C11 C12 1_555 1_555
C12 H9 1_555 1_555
C13 C12 1_555 1_555
H10 C13 1_555 1_555
C14 H11 1_555 1_555
C15 C11 1_555 1_555
H12 C15 1_555 1_555
C16 H13 1_555 1_555
C17 C16 1_555 1_555
H14 C17 1_555 1_555
C18 C17 1_555 1_555
C19 C18 1_555 1_555
H15 C19 1_555 1_555
C20 C19 1_555 1_555
H16 C20 1_555 1_555
C21 C18 1_555 1_555
C22 H17 1_555 1_555
H18 C22 1_555 1_555
C23 C24 1_555 1_555
C24 C25 1_555 1_555
C25 H19 1_555 1_555
C26 C25 1_555 1_555
H20 C26 1_555 1_555
C27 H21 1_555 1_555
C28 C24 1_555 1_555
H22 C28 1_555 1_555
C29 H23 1_555 1_555
C30 C29 1_555 1_555
H24 C30 1_555 1_555
C31 C30 1_555 1_555
C32 C31 1_555 1_555
H25 C32 1_555 1_555
C33 C32 1_555 1_555
H26 C33 1_555 1_555
C34 C31 1_555 1_555
C35 H27 1_555 1_555
H28 C35 1_555 1_555
C36 C37 1_555 1_555
C37 C38 1_555 1_555
C38 H29 1_555 1_555
C39 C38 1_555 1_555
H30 C39 1_555 1_555
C40 H31 1_555 1_555
C41 C37 1_555 1_555
H32 C41 1_555 1_555
C42 C43 1_555 1_555
C43 C44 1_555 1_555
C44 H33 1_555 1_555
H34 C44 1_555 1_555
C45 C44 1_555 1_555
H35 C45 1_555 1_555
H36 C45 1_555 1_555
C46 C45 1_555 1_555
H37 C46 1_555 1_555
C47 C43 1_555 1_555
C48 C47 1_555 1_555
H38 C48 1_555 1_555
H39 C48 1_555 1_555
H40 C48 1_555 1_555
C49 C47 1_555 1_555
H41 C49 1_555 1_555
H42 C49 1_555 1_555
H43 C49 1_555 1_555
C50 C43 1_555 1_555
H44 C50 1_555 1_555
H45 C50 1_555 1_555
H46 C50 1_555 1_555
C51 C46 1_555 1_555
C52 C53 1_555 1_555
C53 H47 1_555 1_555
C54 C53 1_555 1_555
H48 C54 1_555 1_555
H49 C54 1_555 1_555
C55 C54 1_555 1_555
H50 C55 1_555 1_555
H51 C55 1_555 1_555
C56 C55 1_555 1_555
C57 C53 1_555 1_555
C58 C57 1_555 1_555
H52 C58 1_555 1_555
H53 C58 1_555 1_555
H54 C58 1_555 1_555
C59 C57 1_555 1_555
H55 C59 1_555 1_555
H56 C59 1_555 1_555
H57 C59 1_555 1_555
C60 C56 1_555 1_555
H58 C60 1_555 1_555
H59 C60 1_555 1_555
H60 C60 1_555 1_555
C61 C56 1_555 1_555
C62 C63 1_555 1_555
C63 C64 1_555 1_555
C64 H61 1_555 1_555
H62 C64 1_555 1_555
C65 C64 1_555 1_555
H63 C65 1_555 1_555
H64 C65 1_555 1_555
C66 C65 1_555 1_555
H65 C66 1_555 1_555
C67 C63 1_555 1_555
C68 C67 1_555 1_555
H66 C68 1_555 1_555
H67 C68 1_555 1_555
H68 C68 1_555 1_555
C69 C67 1_555 1_555
H69 C69 1_555 1_555
H70 C69 1_555 1_555
H71 C69 1_555 1_555
C70 C63 1_555 1_555
H72 C70 1_555 1_555
H73 C70 1_555 1_555
H74 C70 1_555 1_555
C71 C66 1_555 1_555
C72 C73 1_555 1_555
C73 C74 1_555 1_555
C74 C75 1_555 1_555
C75 H75 1_555 1_555
C76 C75 1_555 1_555
H76 C76 1_555 1_555
H77 C76 1_555 1_555
C77 C73 1_555 1_555
H78 C77 1_555 1_555
H79 C77 1_555 1_555
C78 C73 1_555 1_555
H80 C78 1_555 1_555
H81 C78 1_555 1_555
H82 C78 1_555 1_555
C79 C74 1_555 1_555
H83 C79 1_555 1_555
H84 C79 1_555 1_555
H85 C79 1_555 1_555
C80 C74 1_555 1_555
H86 C80 1_555 1_555
H87 C80 1_555 1_555
H88 C80 1_555 1_555
C81 C75 1_555 1_555
C82 C83 1_555 1_555
C83 H89 1_555 1_555
C84 C83 1_555 1_555
H90 C84 1_555 1_555
H91 C84 1_555 1_555
C85 C84 1_555 1_555
H92 C85 1_555 1_555
H93 C85 1_555 1_555
C86 C85 1_555 1_555
C87 C86 1_555 1_555
H94 C87 1_555 1_555
H95 C87 1_555 1_555
H96 C87 1_555 1_555
C88 C83 1_555 1_555
C89 C88 1_555 1_555
H97 C89 1_555 1_555
H98 C89 1_555 1_555
H99 C89 1_555 1_555
C90 C88 1_555 1_555
H100 C90 1_555 1_555
H101 C90 1_555 1_555
H102 C90 1_555 1_555
C91 C86 1_555 1_555
C92 C93 1_555 1_555
C93 H103 1_555 1_555
C94 C93 1_555 1_555
H104 C94 1_555 1_555
H105 C94 1_555 1_555
C95 C94 1_555 1_555
H106 C95 1_555 1_555
H107 C95 1_555 1_555
C96 C95 1_555 1_555
C97 C96 1_555 1_555
H108 C97 1_555 1_555
H109 C97 1_555 1_555
H110 C97 1_555 1_555
C98 C93 1_555 1_555
C99 C98 1_555 1_555
H111 C99 1_555 1_555
H112 C99 1_555 1_555
H113 C99 1_555 1_555
C100 C98 1_555 1_555
H114 C100 1_555 1_555
H115 C100 1_555 1_555
H116 C100 1_555 1_555
C101 C96 1_555 1_555
N1 C1 1_555 1_555
N2 C6 1_555 1_555
N3 C6 1_555 1_555
N4 C7 1_555 1_555
N5 C7 1_555 1_555
N6 C9 1_555 1_555
N7 C8 1_555 1_555
N8 C13 1_555 1_555
N9 C16 1_555 1_555
N10 C21 1_555 1_555
N11 C21 1_555 1_555
N12 C23 1_555 1_555
N13 N14 1_555 1_555
N14 C22 1_555 1_555
C102 N14 1_555 1_555
H117 C102 1_555 1_555
N15 C102 1_555 1_555
C103 N13 1_555 1_555
H118 C103 1_555 1_555
N16 C26 1_555 1_555
N17 Cd5 1_555 1_555
N18 C34 1_555 1_555
N19 C34 1_555 1_555
N20 C35 1_555 1_555
N21 C35 1_555 1_555
N22 N21 1_555 1_555
C104 N22 1_555 1_555
H119 C104 1_555 1_555
N23 C104 1_555 1_555
C105 N21 1_555 1_555
H120 C105 1_555 1_555
N24 C39 1_555 1_555
O1 Cd1 1_555 1_555
O2 Cd1 1_555 1_555
O3 C61 1_555 1_555
O4 Cd2 1_555 1_555
O5 Cd1 1_555 1_555
O6 Cd1 1_555 1_555
O7 C51 1_555 1_555
O8 C51 1_555 1_555
O9 Cd3 1_555 1_555
O10 Cd4 1_555 1_555
O11 C71 1_555 1_555
O12 C71 1_555 1_555
O13 Cd5 1_555 1_555
O14 C72 1_555 1_555
O15 C81 1_555 1_555
O16 C81 1_555 1_555
O17 C82 1_555 1_555
O18 C82 1_555 1_555
O19 C91 1_555 1_555
O20 C91 1_555 1_555
O21 Cd6 1_555 1_555
O22 Cd6 1_555 1_555
O23 C101 1_555 1_555
O24 C101 1_555 1_555
O25 Cd5 1_555 1_555
O26 Cd2 1_555 1_555
O27 Cd2 1_555 1_555
H121 O27 1_555 1_555
H122 O27 1_555 1_555
O28 Cd7 1_555 1_555
H123 O28 1_555 1_555
H124 O28 1_555 1_555
O29 Cd5 1_555 1_555
H125 O29 1_555 1_555
H126 O29 1_555 1_555
O30 Cd8 1_555 1_555
H127 O30 1_555 1_555
H128 O30 1_555 1_555
O31 H129 1_555 1_555
H130 O31 1_555 1_555
O32 H131 1_555 1_555
H132 O32 1_555 1_555
O33 H133 1_555 1_555
H134 O33 1_555 1_555
Cd5A N16A 1_555 1_555
Cd6A N24 1_555 1_555
Cd7A O17A 1_555 1_555
Cd8A N23A 1_555 1_555
C16A H13A 1_555 1_555
C17A C16A 1_555 1_555
H14A C17A 1_555 1_555
C18A C17A 1_555 1_555
C19A C18A 1_555 1_555
H15A C19A 1_555 1_555
C20A C19A 1_555 1_555
H16A C20A 1_555 1_555
C21A C18A 1_555 1_555
C22A H17A 1_555 1_555
H18A C22A 1_555 1_555
C23A C24A 1_555 1_555
C24A C25A 1_555 1_555
C25A H19A 1_555 1_555
C26A C25A 1_555 1_555
H20A C26A 1_555 1_555
C27A H21A 1_555 1_555
C28A C24A 1_555 1_555
H22A C28A 1_555 1_555
C29A H23A 1_555 1_555
C30A C29A 1_555 1_555
H24A C30A 1_555 1_555
C31A C30A 1_555 1_555
C32A C31A 1_555 1_555
H25A C32A 1_555 1_555
C33A C32A 1_555 1_555
H26A C33A 1_555 1_555
C34A C31A 1_555 1_555
C35A H27A 1_555 1_555
H28A C35A 1_555 1_555
C36A C37A 1_555 1_555
C37A C38A 1_555 1_555
C38A H29A 1_555 1_555
C39A C38A 1_555 1_555
H30A C39A 1_555 1_555
C40A H31A 1_555 1_555
C41A C37A 1_555 1_555
H32A C41A 1_555 1_555
C72A C73A 1_555 1_555
C73A C74A 1_555 1_555
C74A C75A 1_555 1_555
C75A H75A 1_555 1_555
C76A C75A 1_555 1_555
H76A C76A 1_555 1_555
H77A C76A 1_555 1_555
C77A C73A 1_555 1_555
H78A C77A 1_555 1_555
H79A C77A 1_555 1_555
C78A C73A 1_555 1_555
H80A C78A 1_555 1_555
H81A C78A 1_555 1_555
H82A C78A 1_555 1_555
C79A C74A 1_555 1_555
H83A C79A 1_555 1_555
H84A C79A 1_555 1_555
H85A C79A 1_555 1_555
C80A C74A 1_555 1_555
H86A C80A 1_555 1_555
H87A C80A 1_555 1_555
H88A C80A 1_555 1_555
C81A C75A 1_555 1_555
C82A C83A 1_555 1_555
C83A H89A 1_555 1_555
C84A C83A 1_555 1_555
H90A C84A 1_555 1_555
H91A C84A 1_555 1_555
C85A C84A 1_555 1_555
H92A C85A 1_555 1_555
H93A C85A 1_555 1_555
C86A C85A 1_555 1_555
C87A C86A 1_555 1_555
H94A C87A 1_555 1_555
H95A C87A 1_555 1_555
H96A C87A 1_555 1_555
C88A C83A 1_555 1_555
C89A C88A 1_555 1_555
H97A C89A 1_555 1_555
H98A C89A 1_555 1_555
H99A C89A 1_555 1_555
C90A C88A 1_555 1_555
H100A C90A 1_555 1_555
H101A C90A 1_555 1_555
H102A C90A 1_555 1_555
C91A C86A 1_555 1_555
C92A C93A 1_555 1_555
C93A H103A 1_555 1_555
C94A C93A 1_555 1_555
H104A C94A 1_555 1_555
H105A C94A 1_555 1_555
C95A C94A 1_555 1_555
H106A C95A 1_555 1_555
H107A C95A 1_555 1_555
C96A C95A 1_555 1_555
C97A C96A 1_555 1_555
H108A C97A 1_555 1_555
H109A C97A 1_555 1_555
H110A C97A 1_555 1_555
C98A C93A 1_555 1_555
C99A C98A 1_555 1_555
H111A C99A 1_555 1_555
H112A C99A 1_555 1_555
H113A C99A 1_555 1_555
C100A C98A 1_555 1_555
H114A C100A 1_555 1_555
H115A C100A 1_555 1_555
H116A C100A 1_555 1_555
C101A C96A 1_555 1_555
N9A C16A 1_555 1_555
N10A C21A 1_555 1_555
N11A C21A 1_555 1_555
N12A C23A 1_555 1_555
N13A N14A 1_555 1_555
N14A C22A 1_555 1_555
C102A N14A 1_555 1_555
H117A C102A 1_555 1_555
N15A C102A 1_555 1_555
C103A N13A 1_555 1_555
H118A C103A 1_555 1_555
N16A C26A 1_555 1_555
N17A Cd5A 1_555 1_555
N18A C34A 1_555 1_555
N19A C34A 1_555 1_555
N20A C35A 1_555 1_555
N21A C35A 1_555 1_555
N22A N21A 1_555 1_555
C104A N22A 1_555 1_555
H119A C104A 1_555 1_555
N23A C104A 1_555 1_555
C105A N21A 1_555 1_555
H120A C105A 1_555 1_555
N24A Cd6 1_555 1_555
O13A Cd5A 1_555 1_555
O14A Cd6A 1_555 1_555
O15A C81A 1_555 1_555
O16A C81A 1_555 1_555
O17A C82A 1_555 1_555
O18A C82A 1_555 1_555
O19A C91A 1_555 1_555
O20A C91A 1_555 1_555
O21A Cd6A 1_555 1_555
O22A Cd6A 1_555 1_555
O23A C101A 1_555 1_555
O24A C101A 1_555 1_555
O25A Cd5A 1_555 1_555
O28A Cd7A 1_555 1_555
H123A O28A 1_555 1_555
H124A O28A 1_555 1_555
O29A Cd5A 1_555 1_555
H125A O29A 1_555 1_555
H126A O29A 1_555 1_555
O30A Cd8A 1_555 1_555
H127A O30A 1_555 1_555
H128A O30A 1_555 1_555
Cd1_2 N1_2 1_555 1_555
Cd2_2 O6 1_555 1_555
C1_2 H1_2 1_555 1_555
C2_2 C1_2 1_555 1_555
H2_2 C2_2 1_555 1_555
C3_2 C2_2 1_555 1_555
C4_2 C3_2 1_555 1_555
H3_2 C4_2 1_555 1_555
C5_2 C4_2 1_555 1_555
H4_2 C5_2 1_555 1_555
C6_2 C3_2 1_555 1_555
C7_2 H5_2 1_555 1_555
H6_2 C7_2 1_555 1_555
C8_2 H7_2 1_555 1_555
C9_2 H8_2 1_555 1_555
C10_2 C11_2 1_555 1_555
C11_2 C12_2 1_555 1_555
C12_2 H9_2 1_555 1_555
C13_2 C12_2 1_555 1_555
H10_2 C13_2 1_555 1_555
C14_2 H11_2 1_555 1_555
C15_2 C11_2 1_555 1_555
H12_2 C15_2 1_555 1_555
C42_2 C43_2 1_555 1_555
C43_2 C44_2 1_555 1_555
C44_2 H33_2 1_555 1_555
H34_2 C44_2 1_555 1_555
C45_2 C44_2 1_555 1_555
H35_2 C45_2 1_555 1_555
H36_2 C45_2 1_555 1_555
C46_2 C45_2 1_555 1_555
H37_2 C46_2 1_555 1_555
C47_2 C43_2 1_555 1_555
C48_2 C47_2 1_555 1_555
H38_2 C48_2 1_555 1_555
H39_2 C48_2 1_555 1_555
H40_2 C48_2 1_555 1_555
C49_2 C47_2 1_555 1_555
H41_2 C49_2 1_555 1_555
H42_2 C49_2 1_555 1_555
H43_2 C49_2 1_555 1_555
C50_2 C43_2 1_555 1_555
H44_2 C50_2 1_555 1_555
H45_2 C50_2 1_555 1_555
H46_2 C50_2 1_555 1_555
C51_2 C46_2 1_555 1_555
C52_2 C53_2 1_555 1_555
C53_2 H47_2 1_555 1_555
C54_2 C53_2 1_555 1_555
H48_2 C54_2 1_555 1_555
H49_2 C54_2 1_555 1_555
C55_2 C54_2 1_555 1_555
H50_2 C55_2 1_555 1_555
H51_2 C55_2 1_555 1_555
C56_2 C55_2 1_555 1_555
C57_2 C53_2 1_555 1_555
C58_2 C57_2 1_555 1_555
H52_2 C58_2 1_555 1_555
H53_2 C58_2 1_555 1_555
H54_2 C58_2 1_555 1_555
C59_2 C57_2 1_555 1_555
H55_2 C59_2 1_555 1_555
H56_2 C59_2 1_555 1_555
H57_2 C59_2 1_555 1_555
C60_2 C56_2 1_555 1_555
H58_2 C60_2 1_555 1_555
H59_2 C60_2 1_555 1_555
H60_2 C60_2 1_555 1_555
C61_2 C56_2 1_555 1_555
N1_2 C1_2 1_555 1_555
N2_2 C6_2 1_555 1_555
N3_2 C6_2 1_555 1_555
N4_2 C7_2 1_555 1_555
N5_2 C7_2 1_555 1_555
N6_2 C9_2 1_555 1_555
N7_2 C8_2 1_555 1_555
N8_2 C13_2 1_555 1_555
O1_2 Cd1_2 1_555 1_555
O2_2 Cd1_2 1_555 1_555
O3_2 Cd2_2 1_555 1_555
O4_2 Cd2_2 1_555 1_555
O5_2 Cd1_2 1_555 1_555
O6_2 Cd1_2 1_555 1_555
O7_2 C51_2 1_555 1_555
O8_2 C51_2 1_555 1_555
O26_2 Cd1 1_555 1_555
O27_2 Cd2_2 1_555 1_555
H121_2 O27_2 1_555 1_555
H122_2 O27_2 1_555 1_555
C62A C63A 1_555 1_555
C63A C64A 1_555 1_555
C64A H61A 1_555 1_555
H62A C64A 1_555 1_555
C65A C64A 1_555 1_555
H63A C65A 1_555 1_555
H64A C65A 1_555 1_555
C66A C65A 1_555 1_555
H65A C66A 1_555 1_555
C67A C63A 1_555 1_555
C68A C67A 1_555 1_555
H66A C68A 1_555 1_555
H67A C68A 1_555 1_555
H68A C68A 1_555 1_555
C69A C67A 1_555 1_555
H69A C69A 1_555 1_555
H70A C69A 1_555 1_555
H71A C69A 1_555 1_555
C70A C63A 1_555 1_555
H72A C70A 1_555 1_555
H73A C70A 1_555 1_555
H74A C70A 1_555 1_555
C71A C66A 1_555 1_555
O9A Cd3 1_555 1_555
O10A Cd4 1_555 1_555
O11A C71A 1_555 1_555
O12A C71A 1_555 1_555
Cd1_3 O26 1_555 1_555
Cd1B O23A 1_555 1_555
Cd1C O23 1_555 1_555
Cd2_3 O6_2 1_555 1_555
Cd2_4 N15A 1_555 1_555
Cd2A N15 1_555 1_555
Cd2B O24A 1_555 1_555
Cd2C O24 1_555 1_555
Cd3_2 O7_2 1_555 1_555
Cd3_3 O7 1_555 1_555
Cd4_2 O8_2 1_555 1_555
Cd4_3 O8 1_555 1_555
Cd4_4 N9A 1_555 1_555
Cd5_2 O11A 1_555 1_555
Cd5A_2 O11 1_555 1_555
Cd6B O15A 1_555 1_555
Cd6C O15 1_555 1_555
Cd7_2 N7_2 1_555 1_555
Cd7_3 N7 1_555 1_555
Cd7_4 O12A 1_555 1_555
Cd7A_2 O12 1_555 1_555
Cd7B O16A 1_555 1_555
Cd7C O16 1_555 1_555
Cd8_2 O19 1_555 1_555
Cd8A_2 O23 1_555 1_555
Cd8B O2_2 1_555 1_555
Cd8B_2 O2 1_555 1_555
Cd8B_3 O26 1_555 1_555
N7_3 Cd7 1_555 1_555
N7A Cd7A 1_555 1_555
N8A Cd3 1_555 1_555
N9A_2 Cd4 1_555 1_555
N15A_2 Cd2_2 1_555 1_555
N15A_3 Cd2 1_555 1_555
O2B Cd8 1_555 1_555
O2C Cd8A 1_555 1_555
O6_3 Cd2 1_555 1_555
O7_3 Cd3 1_555 1_555
O7A Cd3 1_555 1_555
O8_3 Cd4 1_555 1_555
O8A Cd4 1_555 1_555
O11_2 Cd5A 1_555 1_555
O11A_2 Cd5 1_555 1_555
O12_2 Cd7A 1_555 1_555
O12A_2 Cd7 1_555 1_555
O15B Cd6A 1_555 1_555
O15C Cd6 1_555 1_555
O16B Cd7A 1_555 1_555
O16C Cd7 1_555 1_555
O19_2 Cd8 1_555 1_555
O19A_2 Cd8A 1_555 1_555
O20_2 Cd8 1_555 1_555
O20A_2 Cd8A 1_555 1_555
O23_2 Cd8A 1_555 1_555
O23A_2 Cd8 1_555 1_555
O23C Cd1_2 1_555 1_555
O23C_2 Cd1 1_555 1_555
O24C Cd2_2 1_555 1_555
O24C_2 Cd2 1_555 1_555
O26_3 Cd1_2 1_555 1_555
O26B Cd8 1_555 1_555
O26C Cd8A 1_555 1_555
Cd6 O25 1_555 1_555
Cd7 O25 1_555 1_555
C5 N1 1_555 1_555
C8 N5 1_555 1_555
C9 N7 1_555 1_555
C10 N2 1_555 1_555
C10 N4 1_555 1_555
C14 C15 1_555 1_555
C14 N8 1_555 1_555
C20 N9 1_555 1_555
C22 N11 1_555 1_555
C23 N10 1_555 1_555
C27 C28 1_555 1_555
C27 N16 1_555 1_555
C29 N17 1_555 1_555
C33 N17 1_555 1_555
C36 N18 1_555 1_555
C36 N20 1_555 1_555
C40 C41 1_555 1_555
C40 N24 1_555 1_555
C42 O5 1_555 1_555
C42 O6 1_555 1_555
C46 C47 1_555 1_555
C52 O1 1_555 1_555
C52 O2 1_555 1_555
C56 C57 1_555 1_555
C61 O4 1_555 1_555
C62 O9 1_555 1_555
C62 O10 1_555 1_555
C66 C67 1_555 1_555
C72 O13 1_555 1_555
C76 C77 1_555 1_555
C86 C88 1_555 1_555
C92 O21 1_555 1_555
C92 O22 1_555 1_555
C96 C98 1_555 1_555
N3 N4 1_555 1_555
N5 N6 1_555 1_555
N11 N12 1_555 1_555
N15 C103 1_555 1_555
N19 N20 1_555 1_555
N23 C105 1_555 1_555
O20 Cd8_2 1_555 1_555
Cd6A O25A 1_555 1_555
Cd7A O25A 1_555 1_555
C20A N9A 1_555 1_555
C22A N11A 1_555 1_555
C23A N10A 1_555 1_555
C27A C28A 1_555 1_555
C27A N16A 1_555 1_555
C29A N17A 1_555 1_555
C33A N17A 1_555 1_555
C36A N18A 1_555 1_555
C36A N20A 1_555 1_555
C39A N24A 1_555 1_555
C40A C41A 1_555 1_555
C40A N24A 1_555 1_555
C72A O13A 1_555 1_555
C72A O14A 1_555 1_555
C76A C77A 1_555 1_555
C86A C88A 1_555 1_555
C92A O21A 1_555 1_555
C92A O22A 1_555 1_555
C96A C98A 1_555 1_555
N11A N12A 1_555 1_555
N15A C103A 1_555 1_555
N19A N20A 1_555 1_555
N23A C105A 1_555 1_555
O19A Cd8A_2 1_555 1_555
O20A Cd8A_2 1_555 1_555
O23A Cd8_2 1_555 1_555
Cd2_2 O26_2 1_555 1_555
C5_2 N1_2 1_555 1_555
C8_2 N5_2 1_555 1_555
C9_2 N7_2 1_555 1_555
C10_2 N2_2 1_555 1_555
C10_2 N4_2 1_555 1_555
C14_2 C15_2 1_555 1_555
C14_2 N8_2 1_555 1_555
C42_2 O5_2 1_555 1_555
C42_2 O6_2 1_555 1_555
C46_2 C47_2 1_555 1_555
C52_2 O1_2 1_555 1_555
C52_2 O2_2 1_555 1_555
C56_2 C57_2 1_555 1_555
C61_2 O3_2 1_555 1_555
C61_2 O4_2 1_555 1_555
N3_2 N4_2 1_555 1_555
N5_2 N6_2 1_555 1_555
N8_2 Cd3_3 1_555 1_555
O26_2 Cd8B_2 1_555 1_555
C62A O9A 1_555 1_555
C62A O10A 1_555 1_555
C66A C67A 1_555 1_555
Cd1_3 O6_3 1_555 1_555
Cd2_3 O26_3 1_555 1_555
Cd8B O23C 1_555 1_555
Cd8B O26_3 1_555 1_555
Cd8B_2 O23C_2 1_555 1_555

#END
