
#######################################################################
#
#                 Cambridge Crystallographic Data Centre
#                                CCDC 
#
#######################################################################
#
# If this CIF has been generated from an entry in the Cambridge 
# Structural Database, then it will include bibliographic, chemical, 
# crystal, experimental, refinement or atomic coordinate data resulting 
# from the CCDC's data processing and validation procedures.
#
#######################################################################

data_XUJPOI
_symmetry_cell_setting           orthorhombic
_symmetry_space_group_name_H-M   'P b c a'
_symmetry_Int_Tables_number      61
_space_group_name_Hall           '-P 2ac 2ab'
loop_
_symmetry_equiv_pos_site_id
_symmetry_equiv_pos_as_xyz
1 x,y,z
2 1/2-x,-y,1/2+z
3 -x,1/2+y,1/2-z
4 1/2+x,1/2-y,-z
5 -x,-y,-z
6 1/2+x,y,1/2-z
7 x,1/2-y,1/2+z
8 1/2-x,1/2+y,z
_cell_length_a                   14.0086(19)
_cell_length_b                   16.332(2)
_cell_length_c                   16.622(2)
_cell_angle_alpha                90
_cell_angle_beta                 90
_cell_angle_gamma                90
_cell_volume                     3802.92
loop_
_atom_site_label
_atom_site_type_symbol
_atom_site_fract_x
_atom_site_fract_y
_atom_site_fract_z
Ni1 Ni 0.973681(15) 0.175558(12) 0.610665(12)
Ni2 Ni 1.0000 0.0000 0.5000
C1 C 0.75260(12) -0.00321(10) 0.65727(10)
C2 C 0.71905(12) -0.07976(10) 0.63312(10)
H1 H 0.7455 -0.1058 0.5871
C3 C 0.64662(12) -0.11808(10) 0.67670(10)
C4 C 0.60947(12) -0.07972(10) 0.74457(10)
H2 H 0.5637 -0.1075 0.7767
C5 C 0.63842(12) -0.00159(10) 0.76579(10)
C6 C 0.71062(12) 0.03695(10) 0.72173(10)
H3 H 0.7309 0.0906 0.7359
C7 C 0.83818(11) 0.03560(10) 0.61566(10)
C8 C 0.60771(12) -0.20039(10) 0.65169(10)
C9 C 0.59061(11) 0.03946(9) 0.83615(9)
O1 O 0.87360(9) 0.09738(8) 0.65006(8)
O2 O 0.86694(8) 0.00046(7) 0.55263(7)
O3 O 0.63326(9) -0.23145(8) 0.58595(8)
O4 O 0.54746(9) -0.23516(7) 0.69616(7)
O5 O 0.56128(9) -0.00731(7) 0.88931(7)
O6 O 0.58225(9) 0.11670(7) 0.83378(8)
C10 C 0.91843(17) -0.19380(13) 0.60873(12)
H4 H 0.8487 -0.1980 0.6099
H5 H 0.9464 -0.2426 0.6336
H6 H 0.9385 -0.1450 0.6386
C11 C 0.95185(14) -0.18729(11) 0.52286(11)
O7 O 0.93247(10) -0.24182(8) 0.47240(8)
O8 O 1.00420(9) -0.12877(7) 0.50144(7)
Ni1D Ni 1.026319(15) -0.175558(12) 0.389335(12)
Ni1G Ni 0.526319(15) -0.324442(12) 0.610665(12)
Ni1E Ni 0.473681(15) 0.175558(12) 0.889335(12)
Ni1C Ni 1.473681(15) 0.324442(12) 0.389335(12)
Ni1A Ni 1.526319(15) -0.175558(12) 0.110665(12)
Ni2A Ni 0.5000 0.0000 1.0000
Ni2A_2 Ni 1.5000 0.0000 0.0000
C1D C 1.24740(12) 0.00321(10) 0.34273(10)
C2D C 1.28095(12) 0.07976(10) 0.36688(10)
H1D H 1.2545 0.1058 0.4129
C3D C 1.35338(12) 0.11808(10) 0.32330(10)
C4D C 1.39053(12) 0.07972(10) 0.25543(10)
H2D H 1.4363 0.1075 0.2233
C5D C 1.36158(12) 0.00159(10) 0.23421(10)
C6D C 1.28938(12) -0.03695(10) 0.27827(10)
H3D H 1.2691 -0.0906 0.2641
C7D C 1.16182(11) -0.03560(10) 0.38434(10)
C8D C 1.39229(12) 0.20039(10) 0.34831(10)
C9D C 1.40939(11) -0.03946(9) 0.16385(9)
O1D O 1.12640(9) -0.09738(8) 0.34994(8)
O2D O 1.13306(8) -0.00046(7) 0.44737(7)
O3D O 1.36674(9) 0.23145(8) 0.41405(8)
O3G O 0.86674(9) 0.26855(8) 0.58595(8)
O3C O 1.13326(9) -0.26855(8) 0.41405(8)
O4D O 1.45254(9) 0.23516(7) 0.30384(7)
O4G O 0.95254(9) 0.26484(7) 0.69616(7)
O4C O 1.04746(9) -0.26484(7) 0.30384(7)
O5D O 1.43872(9) 0.00731(7) 0.11069(7)
O5A O 0.93872(9) 0.00731(7) 0.38931(7)
O5E O 1.06128(9) -0.00731(7) 0.61069(7)
O6D O 1.41775(9) -0.11670(7) 0.16622(8)
O6E O 1.08225(9) 0.11670(7) 0.66622(8)
O6A O 0.91775(9) -0.11670(7) 0.33378(8)
C10D C 1.08157(17) 0.19380(13) 0.39127(12)
H4D H 1.1513 0.1980 0.3901
H5D H 1.0536 0.2426 0.3664
H6D H 1.0615 0.1450 0.3614
C11D C 1.04815(14) 0.18729(11) 0.47714(11)
O7D O 1.06753(10) 0.24182(8) 0.52760(8)
O8D O 0.99580(9) 0.12877(7) 0.49856(7)
N1 N 0.7380(2) -0.2149(2) 0.87543(19)
N2 N 0.7998(2) -0.09296(19) 0.89038(18)
C12 C 0.7380(3) -0.1463(2) 0.9162(2)
H7 H 0.6967 -0.1363 0.9604
C13 C 0.8120(3) -0.2095(3) 0.8174(3)
H8 H 0.8316 -0.2502 0.7801
C14 C 0.8483(3) -0.1337(3) 0.8271(3)
H9 H 0.8988 -0.1109 0.7961
C15 C 0.6804(4) -0.2933(3) 0.8842(3)
H10 H 0.6330 -0.2865 0.9270
H11 H 0.7233 -0.3386 0.8978
H12 H 0.6478 -0.3053 0.8334
C16 C 0.8162(3) -0.0122(3) 0.9170(3)
H13 H 0.7603 0.0090 0.9469
H14 H 0.8292 0.0246 0.8709
C17 C 0.9101(6) -0.0189(5) 0.9760(5)
H15 H 0.8965 -0.0416 1.0301
H16 H 0.9660 -0.0459 0.9511
C18 C 0.9121(16) 0.0693(16) 0.9727(14)
H17 H 0.9255 0.0945 1.0257
H18 H 0.8531 0.0927 0.9495
C19 C 1.0112(7) 0.0754(7) 0.9057(8)
H19 H 1.0272 0.1330 0.8961
H20 H 0.9946 0.0492 0.8545
H21 H 1.0662 0.0474 0.9295
loop_
_geom_bond_atom_site_label_1
_geom_bond_atom_site_label_2
_geom_bond_site_symmetry_1
_geom_bond_site_symmetry_2
Ni1 O1 1_555 1_555
Ni2 O2 1_555 1_555
C1 C2 1_555 1_555
C2 H1 1_555 1_555
C3 C2 1_555 1_555
C4 C3 1_555 1_555
H2 C4 1_555 1_555
C5 C4 1_555 1_555
C6 C1 1_555 1_555
H3 C6 1_555 1_555
C7 C1 1_555 1_555
C8 C3 1_555 1_555
C9 C5 1_555 1_555
O1 C7 1_555 1_555
O2 C7 1_555 1_555
O3 C8 1_555 1_555
O4 C8 1_555 1_555
O5 C9 1_555 1_555
O6 C9 1_555 1_555
C10 H4 1_555 1_555
H5 C10 1_555 1_555
H6 C10 1_555 1_555
C11 C10 1_555 1_555
O7 C11 1_555 1_555
O8 Ni2 1_555 1_555
N1 C12 1_555 1_555
N2 C12 1_555 1_555
C12 H7 1_555 1_555
C13 N1 1_555 1_555
H8 C13 1_555 1_555
C14 N2 1_555 1_555
H9 C14 1_555 1_555
C15 N1 1_555 1_555
H10 C15 1_555 1_555
H11 C15 1_555 1_555
H12 C15 1_555 1_555
C16 N2 1_555 1_555
H13 C16 1_555 1_555
H14 C16 1_555 1_555
C17 C16 1_555 1_555
H15 C17 1_555 1_555
H16 C17 1_555 1_555
C18 C17 1_555 1_555
H17 C18 1_555 1_555
H18 C18 1_555 1_555
C19 C18 1_555 1_555
H19 C19 1_555 1_555
H20 C19 1_555 1_555
H21 C19 1_555 1_555
Ni1D O7 1_555 1_555
Ni1G O3 1_555 1_555
Ni1E O6 1_555 1_555
Ni1C O3D 1_555 1_555
Ni1A O6D 1_555 1_555
Ni2A O5 1_555 1_555
Ni2A_2 O5D 1_555 1_555
C1D C2D 1_555 1_555
C2D H1D 1_555 1_555
C3D C2D 1_555 1_555
C4D C3D 1_555 1_555
H2D C4D 1_555 1_555
C5D C4D 1_555 1_555
C6D C1D 1_555 1_555
H3D C6D 1_555 1_555
C7D C1D 1_555 1_555
C8D C3D 1_555 1_555
C9D C5D 1_555 1_555
O1D Ni1D 1_555 1_555
O2D Ni2 1_555 1_555
O3D C8D 1_555 1_555
O3G Ni1 1_555 1_555
O3C Ni1D 1_555 1_555
O4D Ni1C 1_555 1_555
O4G Ni1 1_555 1_555
O4C Ni1D 1_555 1_555
O5D C9D 1_555 1_555
O5A Ni2 1_555 1_555
O5E Ni2 1_555 1_555
O6D C9D 1_555 1_555
O6E Ni1 1_555 1_555
O6A Ni1D 1_555 1_555
C10D H4D 1_555 1_555
H5D C10D 1_555 1_555
H6D C10D 1_555 1_555
C11D C10D 1_555 1_555
O7D Ni1 1_555 1_555
O8D Ni1 1_555 1_555
Ni2 O8D 1_555 1_555
C5 C6 1_555 1_555
O4 Ni1G 1_555 1_555
C11 O8 1_555 1_555
O8 Ni1D 1_555 1_555
C13 C14 1_555 1_555
C5D C6D 1_555 1_555
C7D O1D 1_555 1_555
C7D O2D 1_555 1_555
C8D O4D 1_555 1_555
C11D O7D 1_555 1_555
C11D O8D 1_555 1_555

#END
