
#######################################################################
#
#                 Cambridge Crystallographic Data Centre
#                                CCDC 
#
#######################################################################
#
# If this CIF has been generated from an entry in the Cambridge 
# Structural Database, then it will include bibliographic, chemical, 
# crystal, experimental, refinement or atomic coordinate data resulting 
# from the CCDC's data processing and validation procedures.
#
#######################################################################

data_XUYDIF
_symmetry_cell_setting           triclinic
_symmetry_space_group_name_H-M   'P -1'
_symmetry_Int_Tables_number      2
_space_group_name_Hall           '-P 1'
loop_
_symmetry_equiv_pos_site_id
_symmetry_equiv_pos_as_xyz
1 x,y,z
2 -x,-y,-z
_cell_length_a                   9.599(3)
_cell_length_b                   11.025(3)
_cell_length_c                   12.571(4)
_cell_angle_alpha                86.328(5)
_cell_angle_beta                 81.705(5)
_cell_angle_gamma                79.834(4)
_cell_volume                     1294.77
loop_
_atom_site_label
_atom_site_type_symbol
_atom_site_fract_x
_atom_site_fract_y
_atom_site_fract_z
Cd1 Cd 0.17429(7) 0.51286(6) 0.02395(5)
Cd2 Cd 0.32456(7) 0.35049(5) 0.28521(5)
N1 N 0.1524(9) 0.7324(7) -0.0184(6)
N2 N 0.2642(8) 0.6126(6) 0.1501(6)
N3 N 0.3220(8) 0.5715(6) 0.2428(6)
N4 N 0.3280(8) 0.7679(6) 0.2158(6)
N5 N 0.5638(8) 0.6585(6) 0.5590(6)
N6 N 0.3475(8) 1.1288(6) 0.2880(6)
N7 N -0.0592(9) 0.5604(8) 0.0997(7)
N8 N -0.1022(10) 0.6420(9) 0.1544(7)
N9 N -0.1428(16) 0.7266(12) 0.2086(10)
N10 N 0.2412(10) 0.3369(7) 0.1188(6)
N11 N 0.3079(12) 0.2552(8) 0.0643(7)
N12 N 0.3718(18) 0.1778(11) 0.0143(9)
N13 N 0.1118(11) 0.3801(13) 0.3865(9)
N14 N 0.0051(13) 0.3885(11) 0.3601(9)
N15 N -0.1075(18) 0.392(3) 0.3361(16)
N16 N 0.4497(10) 0.6671(8) -0.1900(7)
N17 N 0.4125(9) 0.5820(8) -0.1439(7)
N18 N 0.3760(11) 0.4936(9) -0.0990(9)
C1 C 0.1053(12) 0.7853(10) -0.1073(9)
H1 H 0.0618 0.7400 -0.1488
C2 C 0.1184(13) 0.9058(11) -0.1407(9)
H2 H 0.0859 0.9397 -0.2041
C3 C 0.1784(12) 0.9723(10) -0.0808(9)
H3 H 0.1843 1.0542 -0.1004
C4 C 0.2313(11) 0.9189(8) 0.0100(8)
H4 H 0.2766 0.9633 0.0509
C5 C 0.2168(10) 0.8007(8) 0.0396(7)
C6 C 0.2657(10) 0.7287(8) 0.1358(7)
C7 C 0.3595(10) 0.6659(8) 0.2801(7)
C8 C 0.4311(10) 0.6652(7) 0.3774(7)
C9 C 0.5709(12) 0.6150(12) 0.3759(8)
H5 H 0.6235 0.5809 0.3136
C10 C 0.6344(12) 0.6150(12) 0.4678(9)
H6 H 0.7311 0.5829 0.4651
C11 C 0.4269(13) 0.7039(12) 0.5609(9)
H7 H 0.3748 0.7317 0.6256
C12 C 0.3570(13) 0.7121(12) 0.4710(9)
H8 H 0.2616 0.7488 0.4744
C13 C 0.3377(10) 0.8920(7) 0.2409(7)
C14 C 0.2174(11) 0.9642(8) 0.2883(9)
H9 H 0.1314 0.9348 0.3034
C15 C 0.2276(12) 1.0833(8) 0.3134(9)
H10 H 0.1479 1.1324 0.3490
C16 C 0.4605(11) 1.0582(9) 0.2426(9)
H11 H 0.5444 1.0908 0.2267
C17 C 0.4643(11) 0.9366(9) 0.2161(9)
H12 H 0.5471 0.8886 0.1836
Cd1A Cd -0.17429(7) 0.48714(6) -0.02395(5)
Cd2A Cd 0.67544(7) 0.64951(5) 0.71479(5)
Cd2_2 Cd 0.32456(7) 1.35049(5) 0.28521(5)
Cd2A_2 Cd 0.67544(7) 0.64951(5) -0.28521(5)
N5A N 0.4362(8) 0.3415(6) 0.4410(6)
N6_2 N 0.3475(8) 0.1288(6) 0.2880(6)
N7A N 0.0592(9) 0.4396(8) -0.0997(7)
N16A N 0.5503(10) 0.3329(8) 0.1900(7)
O1 O 0.9924(19) 0.7574(18) 0.4033(15)
O2 O 0.110(4) -0.033(4) 0.572(3)
loop_
_geom_bond_atom_site_label_1
_geom_bond_atom_site_label_2
_geom_bond_site_symmetry_1
_geom_bond_site_symmetry_2
Cd1 N1 1_555 1_555
Cd2 N3 1_555 1_555
N1 C1 1_555 1_555
N2 Cd1 1_555 1_555
N3 N2 1_555 1_555
N4 C6 1_555 1_555
N5 C10 1_555 1_555
N6 C15 1_555 1_555
N7 Cd1 1_555 1_555
N8 N7 1_555 1_555
N9 N8 1_555 1_555
N10 Cd1 1_555 1_555
N11 N10 1_555 1_555
N12 N11 1_555 1_555
N13 Cd2 1_555 1_555
N14 N13 1_555 1_555
N15 N14 1_555 1_555
N16 N17 1_555 1_555
N17 N18 1_555 1_555
N18 Cd1 1_555 1_555
C1 H1 1_555 1_555
C2 C1 1_555 1_555
H2 C2 1_555 1_555
C3 C2 1_555 1_555
H3 C3 1_555 1_555
C4 C3 1_555 1_555
H4 C4 1_555 1_555
C5 N1 1_555 1_555
C6 N2 1_555 1_555
C7 N3 1_555 1_555
C8 C7 1_555 1_555
C9 C8 1_555 1_555
H5 C9 1_555 1_555
C10 C9 1_555 1_555
H6 C10 1_555 1_555
C11 N5 1_555 1_555
H7 C11 1_555 1_555
C12 C8 1_555 1_555
H8 C12 1_555 1_555
C13 N4 1_555 1_555
C14 C13 1_555 1_555
H9 C14 1_555 1_555
C15 C14 1_555 1_555
H10 C15 1_555 1_555
C16 N6 1_555 1_555
H11 C16 1_555 1_555
C17 C13 1_555 1_555
H12 C17 1_555 1_555
Cd1A N7 1_555 1_555
Cd2A N5 1_555 1_555
Cd2_2 N6 1_555 1_555
Cd2A_2 N16 1_555 1_555
N5A Cd2 1_555 1_555
N6_2 Cd2 1_555 1_555
N7A Cd1 1_555 1_555
N16A Cd2 1_555 1_555
Cd2 N10 1_555 1_555
N4 C7 1_555 1_555
C4 C5 1_555 1_555
C5 C6 1_555 1_555
C11 C12 1_555 1_555
C16 C17 1_555 1_555
Cd1A N7A 1_555 1_555

#END
