
#######################################################################
#
#                 Cambridge Crystallographic Data Centre
#                                CCDC 
#
#######################################################################
#
# If this CIF has been generated from an entry in the Cambridge 
# Structural Database, then it will include bibliographic, chemical, 
# crystal, experimental, refinement or atomic coordinate data resulting 
# from the CCDC's data processing and validation procedures.
#
#######################################################################

data_XUYXAR
_symmetry_cell_setting           monoclinic
_symmetry_space_group_name_H-M   'P 21/n'
_symmetry_Int_Tables_number      14
_space_group_name_Hall           '-P 2yn'
loop_
_symmetry_equiv_pos_site_id
_symmetry_equiv_pos_as_xyz
1 x,y,z
2 1/2-x,1/2+y,1/2-z
3 -x,-y,-z
4 1/2+x,1/2-y,1/2+z
_cell_length_a                   8.2087(7)
_cell_length_b                   14.9912(13)
_cell_length_c                   21.9789(19)
_cell_angle_alpha                90
_cell_angle_beta                 94.702(1)
_cell_angle_gamma                90
_cell_volume                     2695.58
loop_
_atom_site_label
_atom_site_type_symbol
_atom_site_fract_x
_atom_site_fract_y
_atom_site_fract_z
Zn1 Zn 0.67436(5) -0.08091(2) -0.135064(17)
Zn2 Zn 0.46638(5) -0.23276(3) -0.242830(18)
C1 C 0.5030(4) -0.0342(2) -0.25715(15)
C2 C 0.4740(4) 0.0461(2) -0.29765(15)
C3 C 0.5687(4) 0.1218(2) -0.28738(15)
H1 H 0.6457 0.1234 -0.2539
C4 C 0.5522(4) 0.1956(2) -0.32558(15)
C5 C 0.4306(4) 0.1953(2) -0.37443(15)
C6 C 0.3346(4) 0.1193(2) -0.38328(16)
H2 H 0.2520 0.1187 -0.4149
C7 C 0.3579(4) 0.0449(2) -0.34668(16)
H3 H 0.2953 -0.0060 -0.3551
C8 C 0.6715(4) 0.2712(2) -0.31457(16)
C9 C 0.3970(4) 0.2691(2) -0.41945(15)
C10 C 0.2543(4) 0.3198(2) -0.42058(14)
C11 C 0.1357(5) 0.3116(2) -0.37252(15)
C12 C 0.2194(4) 0.3821(2) -0.46689(15)
H4 H 0.1244 0.4160 -0.4672
C13 C 0.3240(4) 0.3943(2) -0.51240(15)
C14 C 0.4648(5) 0.3431(3) -0.51168(17)
H5 H 0.5356 0.3503 -0.5423
C15 C 0.5005(5) 0.2816(2) -0.46595(17)
H6 H 0.5954 0.2477 -0.4661
C16 C 0.2841(5) 0.4604(2) -0.56292(17)
C17 C 0.5484(6) -0.4163(3) -0.1815(3)
H7 H 0.5950 -0.3828 -0.1490
C18 C 0.5608(7) -0.5085(4) -0.1793(3)
H8 H 0.6127 -0.5367 -0.1454
C19 C 0.4950(10) -0.5577(4) -0.2282(4)
H9 H 0.5037 -0.6196 -0.2279
C20 C 0.4174(8) -0.5154(3) -0.2768(3)
H10 H 0.3731 -0.5479 -0.3102
C21 C 0.4046(6) -0.4225(3) -0.2762(2)
C22 C 0.3176(6) -0.3713(3) -0.3254(2)
C23 C 0.2244(7) -0.4098(4) -0.3740(3)
H11 H 0.2152 -0.4716 -0.3766
C24 C 0.1475(7) -0.3584(5) -0.4174(3)
H12 H 0.0862 -0.3842 -0.4503
C25 C 0.1601(7) -0.2690(4) -0.4127(2)
H13 H 0.1064 -0.2325 -0.4421
C26 C 0.2531(6) -0.2322(3) -0.3641(2)
H14 H 0.2609 -0.1704 -0.3613
N1 N 0.4718(4) -0.3745(2) -0.22897(17)
N2 N 0.3321(4) -0.2820(2) -0.32104(15)
O1 O 0.4626(3) -0.10807(16) -0.27925(11)
O2 O 0.5659(4) -0.01846(17) -0.20407(11)
O3 O 0.6499(3) 0.33914(15) -0.34715(12)
O4 O 0.7853(3) 0.26122(17) -0.27325(12)
O5 O 0.1919(3) 0.29217(17) -0.31916(11)
O6 O -0.0136(3) 0.32429(17) -0.38796(12)
O7 O 0.1682(3) 0.51478(17) -0.55737(12)
O8 O 0.3603(4) 0.4596(2) -0.60909(13)
Zn1A Zn 0.82564(5) -0.58091(2) -0.364936(17)
Zn1A_2 Zn 0.82564(5) 0.41909(2) -0.364936(17)
Zn1A_3 Zn -0.17436(5) 0.41909(2) -0.364936(17)
Zn1C Zn 0.17436(5) 0.58091(2) -0.635064(17)
Zn1_2 Zn 1.67436(5) -0.08091(2) -0.135064(17)
Zn1B Zn 1.32564(5) 0.08091(2) 0.135064(17)
Zn2A Zn 1.03362(5) -0.73276(3) -0.257170(18)
Zn2A_2 Zn 1.03362(5) 0.26724(3) -0.257170(18)
Zn2A_3 Zn 0.03362(5) 0.26724(3) -0.257170(18)
Zn2_2 Zn 1.46638(5) -0.23276(3) -0.242830(18)
C1A C 0.9970(4) -0.5342(2) -0.24285(15)
C2A C 1.0260(4) -0.4539(2) -0.20235(15)
C3A C 0.9313(4) -0.3782(2) -0.21262(15)
H1A H 0.8543 -0.3766 -0.2461
C4A C 0.9478(4) -0.3044(2) -0.17442(15)
C5A C 1.0694(4) -0.3047(2) -0.12557(15)
C6A C 1.1654(4) -0.3807(2) -0.11672(16)
H2A H 1.2480 -0.3813 -0.0851
C7A C 1.1421(4) -0.4551(2) -0.15332(16)
H3A H 1.2047 -0.5060 -0.1449
C8A C 0.8285(4) -0.2288(2) -0.18543(16)
C9A C 1.1030(4) -0.2309(2) -0.08055(15)
C10A C 1.2457(4) -0.1802(2) -0.07942(14)
C11A C 1.3643(5) -0.1884(2) -0.12748(15)
C12A C 1.2806(4) -0.1179(2) -0.03311(15)
H4A H 1.3756 -0.0840 -0.0328
C13A C 1.1760(4) -0.1057(2) 0.01240(15)
C14A C 1.0352(5) -0.1569(3) 0.01168(17)
H5A H 0.9644 -0.1497 0.0423
C15A C 0.9995(5) -0.2184(2) -0.03405(17)
H6A H 0.9046 -0.2523 -0.0339
C16A C 1.2159(5) -0.0396(2) 0.06292(17)
C17A C 0.9516(6) -0.9163(3) -0.3185(3)
H7A H 0.9050 -0.8828 -0.3510
C18A C 0.9392(7) -1.0085(4) -0.3207(3)
H8A H 0.8873 -1.0367 -0.3546
C19A C 1.0050(10) -1.0577(4) -0.2718(4)
H9A H 0.9963 -1.1196 -0.2721
C20A C 1.0826(8) -1.0154(3) -0.2232(3)
H10A H 1.1269 -1.0479 -0.1898
C21A C 1.0954(6) -0.9225(3) -0.2238(2)
C22A C 1.1824(6) -0.8713(3) -0.1746(2)
C23A C 1.2756(7) -0.9098(4) -0.1260(3)
H11A H 1.2848 -0.9716 -0.1234
C24A C 1.3525(7) -0.8584(5) -0.0826(3)
H12A H 1.4138 -0.8842 -0.0497
C25A C 1.3399(7) -0.7690(4) -0.0873(2)
H13A H 1.3936 -0.7325 -0.0579
C26A C 1.2469(6) -0.7322(3) -0.1359(2)
H14A H 1.2391 -0.6704 -0.1387
N1A N 1.0282(4) -0.8745(2) -0.27103(17)
N2A N 1.1679(4) -0.7820(2) -0.17896(15)
O1A O 1.0374(3) -0.60807(16) -0.22075(11)
O2A O 0.9341(4) -0.51846(17) -0.29593(11)
O3A O 0.8501(3) -0.16086(15) -0.15285(12)
O3_2 O 0.6499(3) -0.66086(15) -0.34715(12)
O4A O 0.7147(3) -0.23878(17) -0.22675(12)
O4_2 O 0.7853(3) -0.73878(17) -0.27325(12)
O5A O 1.3081(3) -0.20783(17) -0.18084(11)
O5A_2 O 0.3081(3) -0.20783(17) -0.18084(11)
O5_2 O 1.1919(3) -0.70783(17) -0.31916(11)
O6A O 1.5136(3) -0.17571(17) -0.11204(12)
O6A_2 O 0.5136(3) -0.17571(17) -0.11204(12)
O6_2 O 0.9864(3) -0.67571(17) -0.38796(12)
O7A O 1.3318(3) 0.01478(17) 0.05737(12)
O7C O 0.6682(3) -0.01478(17) -0.05737(12)
O7B O 0.8318(3) -0.51478(17) -0.44263(12)
O8A O 1.1397(4) -0.0404(2) 0.10909(13)
C27 C 0.2183(10) 0.1404(6) 0.4509(3)
H15 H 0.2181 0.2015 0.4437
C28 C 0.3591(15) 0.0927(7) 0.4367(5)
H16 H 0.4492 0.1177 0.4201
C29 C 0.3427(12) 0.0023(7) 0.4513(5)
H17 H 0.4288 -0.0345 0.4424
C30 C 0.2115(12) -0.0404(6) 0.4781(4)
H18 H 0.2142 -0.1004 0.4889
C31 C 0.0728(9) 0.0169(5) 0.4874(3)
N3 N 0.0780(8) 0.1043(4) 0.4749(3)
C27B C -0.2183(10) -0.1404(6) 0.5491(3)
H15B H -0.2181 -0.2015 0.5563
C28B C -0.3591(15) -0.0927(7) 0.5633(5)
H16B H -0.4492 -0.1177 0.5799
C29B C -0.3427(12) -0.0023(7) 0.5487(5)
H17B H -0.4288 0.0345 0.5576
C30B C -0.2115(12) 0.0404(6) 0.5219(4)
H18B H -0.2142 0.1004 0.5111
C31B C -0.0728(9) -0.0169(5) 0.5126(3)
N3B N -0.0780(8) -0.1043(4) 0.5251(3)
O9 O 0.2815(17) 0.2691(7) 0.3545(4)
loop_
_geom_bond_atom_site_label_1
_geom_bond_atom_site_label_2
_geom_bond_site_symmetry_1
_geom_bond_site_symmetry_2
Zn1 O2 1_555 1_555
Zn2 N1 1_555 1_555
C1 C2 1_555 1_555
C2 C3 1_555 1_555
C3 H1 1_555 1_555
C4 C3 1_555 1_555
C5 C4 1_555 1_555
C6 C5 1_555 1_555
H2 C6 1_555 1_555
C7 C2 1_555 1_555
H3 C7 1_555 1_555
C8 C4 1_555 1_555
C9 C5 1_555 1_555
C10 C9 1_555 1_555
C11 C10 1_555 1_555
C12 C10 1_555 1_555
H4 C12 1_555 1_555
C13 C12 1_555 1_555
C14 C13 1_555 1_555
H5 C14 1_555 1_555
C15 C9 1_555 1_555
H6 C15 1_555 1_555
C16 C13 1_555 1_555
C17 H7 1_555 1_555
C18 C17 1_555 1_555
H8 C18 1_555 1_555
C19 C18 1_555 1_555
H9 C19 1_555 1_555
C20 C19 1_555 1_555
H10 C20 1_555 1_555
C21 C20 1_555 1_555
C22 C21 1_555 1_555
C23 C22 1_555 1_555
H11 C23 1_555 1_555
C24 C23 1_555 1_555
H12 C24 1_555 1_555
C25 C24 1_555 1_555
H13 C25 1_555 1_555
C26 C25 1_555 1_555
H14 C26 1_555 1_555
C27 H15 1_555 1_555
C28 C27 1_555 1_555
H16 C28 1_555 1_555
C29 C28 1_555 1_555
H17 C29 1_555 1_555
C30 C29 1_555 1_555
H18 C30 1_555 1_555
C31 C30 1_555 1_555
N1 C17 1_555 1_555
N2 Zn2 1_555 1_555
N3 C27 1_555 1_555
O1 Zn2 1_555 1_555
O2 C1 1_555 1_555
O3 C8 1_555 1_555
O4 C8 1_555 1_555
O5 C11 1_555 1_555
O6 C11 1_555 1_555
O7 C16 1_555 1_555
O8 C16 1_555 1_555
Zn1A O2A 1_555 1_555
Zn1A_2 O3 1_555 1_555
Zn1A_3 O6 1_555 1_555
Zn1C O7 1_555 1_555
Zn1_2 O6A 1_555 1_555
Zn1B O7A 1_555 1_555
Zn2A N1A 1_555 1_555
Zn2A_2 O4 1_555 1_555
Zn2A_3 O5 1_555 1_555
Zn2_2 O5A 1_555 1_555
C1A C2A 1_555 1_555
C2A C3A 1_555 1_555
C3A H1A 1_555 1_555
C4A C3A 1_555 1_555
C5A C4A 1_555 1_555
C6A C5A 1_555 1_555
H2A C6A 1_555 1_555
C7A C2A 1_555 1_555
H3A C7A 1_555 1_555
C8A C4A 1_555 1_555
C9A C5A 1_555 1_555
C10A C9A 1_555 1_555
C11A C10A 1_555 1_555
C12A C10A 1_555 1_555
H4A C12A 1_555 1_555
C13A C12A 1_555 1_555
C14A C13A 1_555 1_555
H5A C14A 1_555 1_555
C15A C9A 1_555 1_555
H6A C15A 1_555 1_555
C16A C13A 1_555 1_555
C17A H7A 1_555 1_555
C18A C17A 1_555 1_555
H8A C18A 1_555 1_555
C19A C18A 1_555 1_555
H9A C19A 1_555 1_555
C20A C19A 1_555 1_555
H10A C20A 1_555 1_555
C21A C20A 1_555 1_555
C22A C21A 1_555 1_555
C23A C22A 1_555 1_555
H11A C23A 1_555 1_555
C24A C23A 1_555 1_555
H12A C24A 1_555 1_555
C25A C24A 1_555 1_555
H13A C25A 1_555 1_555
C26A C25A 1_555 1_555
H14A C26A 1_555 1_555
C27B H15B 1_555 1_555
C28B C27B 1_555 1_555
H16B C28B 1_555 1_555
C29B C28B 1_555 1_555
H17B C29B 1_555 1_555
C30B C29B 1_555 1_555
H18B C30B 1_555 1_555
C31B C31 1_555 1_555
N1A C17A 1_555 1_555
N2A Zn2A 1_555 1_555
N3B C27B 1_555 1_555
O1A Zn2A 1_555 1_555
O2A C1A 1_555 1_555
O3A Zn1 1_555 1_555
O3_2 Zn1A 1_555 1_555
O4A Zn2 1_555 1_555
O4_2 Zn2A 1_555 1_555
O5A C11A 1_555 1_555
O5A_2 Zn2 1_555 1_555
O5_2 Zn2A 1_555 1_555
O6A C11A 1_555 1_555
O6A_2 Zn1 1_555 1_555
O6_2 Zn1A 1_555 1_555
O7A C16A 1_555 1_555
O7C Zn1 1_555 1_555
O7B Zn1A 1_555 1_555
O8A C16A 1_555 1_555
C1 O1 1_555 1_555
C6 C7 1_555 1_555
C14 C15 1_555 1_555
C21 N1 1_555 1_555
C22 N2 1_555 1_555
C26 N2 1_555 1_555
C31 N3 1_555 1_555
C1A O1A 1_555 1_555
C6A C7A 1_555 1_555
C8A O3A 1_555 1_555
C8A O4A 1_555 1_555
C14A C15A 1_555 1_555
C21A N1A 1_555 1_555
C22A N2A 1_555 1_555
C26A N2A 1_555 1_555
C30B C31B 1_555 1_555
C31B N3B 1_555 1_555

#END
