
#######################################################################
#
#                 Cambridge Crystallographic Data Centre
#                                CCDC 
#
#######################################################################
#
# If this CIF has been generated from an entry in the Cambridge 
# Structural Database, then it will include bibliographic, chemical, 
# crystal, experimental, refinement or atomic coordinate data resulting 
# from the CCDC's data processing and validation procedures.
#
#######################################################################

data_YARSAN
_symmetry_cell_setting           orthorhombic
_symmetry_space_group_name_H-M   'P 21 21 21'
_symmetry_Int_Tables_number      19
_space_group_name_Hall           'P 2ac 2ab'
loop_
_symmetry_equiv_pos_site_id
_symmetry_equiv_pos_as_xyz
1 x,y,z
2 1/2-x,-y,1/2+z
3 -x,1/2+y,1/2-z
4 1/2+x,1/2-y,-z
_cell_length_a                   10.302(2)
_cell_length_b                   11.876(2)
_cell_length_c                   32.266(7)
_cell_angle_alpha                90
_cell_angle_beta                 90
_cell_angle_gamma                90
_cell_volume                     3947.63
loop_
_atom_site_label
_atom_site_type_symbol
_atom_site_fract_x
_atom_site_fract_y
_atom_site_fract_z
C1 C 0.7485(3) 1.1317(2) 0.89813(8)
C2 C 0.8126(3) 1.1017(2) 0.93385(8)
H1 H 0.7643 1.0814 0.9570
C3 C 0.9475(3) 1.1008(2) 0.93637(8)
H2 H 0.9872 1.0808 0.9612
C4 C 1.0235(3) 1.1291(2) 0.90274(8)
C5 C 0.9621(3) 1.1643(2) 0.86458(8)
C6 C 1.0316(3) 1.1985(2) 0.82881(9)
H3 H 1.1218 1.1953 0.8291
C7 C 0.9704(3) 1.2361(3) 0.79388(9)
H4 H 1.0189 1.2556 0.7706
C8 C 0.8357(3) 1.2453(3) 0.79296(9)
H5 H 0.7945 1.2735 0.7695
C9 C 0.7645(3) 1.2128(2) 0.82640(9)
H6 H 0.6747 1.2195 0.8253
C10 C 0.8228(3) 1.1690(2) 0.86291(8)
C11 C 0.6026(3) 1.1188(2) 0.89741(8)
C12 C 1.1672(3) 1.1243(2) 0.90924(8)
C13 C 0.4030(3) 1.7160(2) 0.88267(8)
C14 C 0.4529(3) 1.7029(2) 0.92171(9)
H7 H 0.4792 1.7660 0.9365
C15 C 0.4651(3) 1.5961(2) 0.93968(9)
H8 H 0.5018 1.5891 0.9659
C16 C 0.4234(3) 1.5012(2) 0.91903(8)
C17 C 0.3689(3) 1.5117(2) 0.87835(8)
C18 C 0.3296(3) 1.4169(2) 0.85421(8)
H9 H 0.3364 1.3448 0.8652
C19 C 0.2822(3) 1.4313(2) 0.81508(9)
H10 H 0.2577 1.3685 0.7997
C20 C 0.2697(3) 1.5386(3) 0.79755(9)
H11 H 0.2367 1.5468 0.7709
C21 C 0.3061(3) 1.6308(2) 0.81976(9)
H12 H 0.2952 1.7020 0.8083
C22 C 0.3598(3) 1.6207(2) 0.85976(8)
C23 C 0.4034(3) 1.8316(2) 0.86354(9)
C24 C 0.4439(3) 1.3897(2) 0.94023(8)
C25 C 0.2682(3) 0.9504(2) 1.19011(8)
C26 C 0.4011(3) 0.9571(3) 1.18567(8)
H13 H 0.4558 0.9355 1.2072
C27 C 0.4520(3) 0.9966(3) 1.14865(9)
H14 H 0.5415 1.0012 1.1453
C28 C 0.3717(3) 1.0289(2) 1.11679(7)
C29 C 0.2384(3) 1.0216(3) 1.12157(9)
H15 H 0.1838 1.0431 1.1000
C30 C 0.1868(3) 0.9826(3) 1.15818(9)
H16 H 0.0973 0.9780 1.1614
C31 C 0.2296(3) 0.9587(2) 1.26608(8)
H17 H 0.2898 1.0148 1.2720
C32 C 0.0781(3) 0.8345(2) 1.27205(8)
H18 H 0.0141 0.7891 1.2837
C33 C 0.1131(3) 0.8333(2) 1.23184(8)
H19 H 0.0790 0.7885 1.2109
C34 C 0.3540(3) 1.0939(2) 1.04393(8)
H20 H 0.2648 1.0838 1.0413
C35 C 0.5543(3) 1.1348(2) 1.03073(8)
H21 H 0.6282 1.1588 1.0168
C36 C 0.5507(3) 1.0975(2) 1.07008(8)
H22 H 0.6209 1.0905 1.0880
N1 N 0.2105(2) 0.91289(19) 1.22835(6)
N2 N 0.1503(2) 0.91247(19) 1.29347(6)
N3 N 0.4230(2) 1.07170(18) 1.07872(6)
N4 N 0.4301(2) 1.13160(17) 1.01438(6)
O1 O 0.54600(19) 1.11319(18) 0.86307(6)
O2 O 0.54702(18) 1.10703(16) 0.93188(6)
O3 O 1.24331(18) 1.14216(15) 0.87895(6)
O4 O 1.20947(18) 1.10500(15) 0.94536(6)
O5 O 0.3417(2) 1.90764(16) 0.88306(7)
O6 O 0.4657(3) 1.85006(17) 0.83179(7)
O7 O 0.5473(2) 1.37035(17) 0.95782(6)
O8 O 0.34854(17) 1.32034(15) 0.93826(6)
Zn1 Zn 0.38525(3) 1.16757(2) 0.956294(8)
Zn2 Zn 0.12364(3) 0.95507(2) 1.352520(8)
O1A O -0.04600(19) 0.88681(18) 1.36307(6)
O3A O 0.25669(18) 0.85784(15) 1.37895(6)
O4_2 O 0.20947(18) 1.10500(15) 0.94536(6)
O5A O 0.1583(2) 1.09236(16) 1.38306(7)
Zn1_2 Zn 1.38525(3) 1.16757(2) 0.956294(8)
Zn2A Zn 0.37636(3) 1.04493(2) 0.852520(8)
Zn2A_2 Zn 1.37636(3) 1.04493(2) 0.852520(8)
Zn2A_3 Zn 0.37636(3) 2.04493(2) 0.852520(8)
C37 C 0.1827(4) 0.3153(3) 0.62773(11)
H23 H 0.1255 0.2758 0.6093
H24 H 0.2524 0.2665 0.6359
H25 H 0.2175 0.3802 0.6139
C38 C 0.1780(5) 0.4131(3) 0.69551(12)
H26 H 0.1187 0.4311 0.7175
H27 H 0.2119 0.4814 0.6838
H28 H 0.2481 0.3687 0.7063
C39 C -0.0153(4) 0.3301(3) 0.66793(12)
H29 H -0.0580 0.2933 0.6464
N5 N 0.1114(3) 0.3508(2) 0.66409(8)
O9 O -0.0786(3) 0.3579(2) 0.69911(9)
C40 C 0.6160(4) 0.7373(4) 0.05412(11)
H30 H 0.6247 0.6615 0.0641
H31 H 0.5257 0.7546 0.0504
H32 H 0.6532 0.7885 0.0738
C41 C 0.6804(4) 0.8566(3) -0.00505(12)
H33 H 0.7265 0.8526 -0.0309
H34 H 0.7211 0.9112 0.0126
H35 H 0.5921 0.8783 -0.0102
C42 C 0.7522(4) 0.6638(3) -0.00067(12)
H36 H 0.7517 0.5965 0.0140
N6 N 0.6829(3) 0.7480(2) 0.01480(8)
O10 O 0.8166(3) 0.6665(2) -0.03250(8)
loop_
_geom_bond_atom_site_label_1
_geom_bond_atom_site_label_2
_geom_bond_site_symmetry_1
_geom_bond_site_symmetry_2
C1 C2 1_555 1_555
C2 H1 1_555 1_555
C3 C2 1_555 1_555
H2 C3 1_555 1_555
C4 C3 1_555 1_555
C5 C4 1_555 1_555
C6 C5 1_555 1_555
H3 C6 1_555 1_555
C7 C6 1_555 1_555
H4 C7 1_555 1_555
C8 C7 1_555 1_555
H5 C8 1_555 1_555
C9 C8 1_555 1_555
H6 C9 1_555 1_555
C10 C1 1_555 1_555
C11 C1 1_555 1_555
C12 C4 1_555 1_555
C13 C14 1_555 1_555
C14 H7 1_555 1_555
C15 C14 1_555 1_555
H8 C15 1_555 1_555
C16 C15 1_555 1_555
C17 C16 1_555 1_555
C18 C17 1_555 1_555
H9 C18 1_555 1_555
C19 C18 1_555 1_555
H10 C19 1_555 1_555
C20 C19 1_555 1_555
H11 C20 1_555 1_555
C21 C20 1_555 1_555
H12 C21 1_555 1_555
C22 C13 1_555 1_555
C23 C13 1_555 1_555
C24 C16 1_555 1_555
C25 C26 1_555 1_555
C26 H13 1_555 1_555
C27 C26 1_555 1_555
H14 C27 1_555 1_555
C28 C27 1_555 1_555
C29 C28 1_555 1_555
H15 C29 1_555 1_555
C30 C25 1_555 1_555
H16 C30 1_555 1_555
C31 H17 1_555 1_555
C32 H18 1_555 1_555
C33 C32 1_555 1_555
H19 C33 1_555 1_555
C34 H20 1_555 1_555
C35 H21 1_555 1_555
C36 C35 1_555 1_555
H22 C36 1_555 1_555
N1 C25 1_555 1_555
N2 C31 1_555 1_555
N3 C28 1_555 1_555
N4 C34 1_555 1_555
O1 C11 1_555 1_555
O2 C11 1_555 1_555
O3 C12 1_555 1_555
O4 C12 1_555 1_555
O5 C23 1_555 1_555
O6 C23 1_555 1_555
O7 C24 1_555 1_555
O8 C24 1_555 1_555
Zn1 N4 1_555 1_555
Zn2 N2 1_555 1_555
C37 H23 1_555 1_555
H24 C37 1_555 1_555
H25 C37 1_555 1_555
C38 H26 1_555 1_555
H27 C38 1_555 1_555
H28 C38 1_555 1_555
C39 H29 1_555 1_555
N5 C37 1_555 1_555
O9 C39 1_555 1_555
C40 H30 1_555 1_555
H31 C40 1_555 1_555
H32 C40 1_555 1_555
C41 H33 1_555 1_555
H34 C41 1_555 1_555
H35 C41 1_555 1_555
C42 H36 1_555 1_555
N6 C40 1_555 1_555
O10 C42 1_555 1_555
O1A Zn2 1_555 1_555
O3A Zn2 1_555 1_555
O4_2 Zn1 1_555 1_555
O5A Zn2 1_555 1_555
Zn1_2 O4 1_555 1_555
Zn2A O1 1_555 1_555
Zn2A_2 O3 1_555 1_555
Zn2A_3 O5 1_555 1_555
C5 C10 1_555 1_555
C9 C10 1_555 1_555
C17 C22 1_555 1_555
C21 C22 1_555 1_555
C29 C30 1_555 1_555
C31 N1 1_555 1_555
C32 N2 1_555 1_555
C33 N1 1_555 1_555
C34 N3 1_555 1_555
C35 N4 1_555 1_555
C36 N3 1_555 1_555
O2 Zn1 1_555 1_555
O8 Zn1 1_555 1_555
C38 N5 1_555 1_555
C39 N5 1_555 1_555
C41 N6 1_555 1_555
C42 N6 1_555 1_555

#END
