
#######################################################################
#
#                 Cambridge Crystallographic Data Centre
#                                CCDC 
#
#######################################################################
#
# If this CIF has been generated from an entry in the Cambridge 
# Structural Database, then it will include bibliographic, chemical, 
# crystal, experimental, refinement or atomic coordinate data resulting 
# from the CCDC's data processing and validation procedures.
#
#######################################################################

data_YARWET
_symmetry_cell_setting           monoclinic
_symmetry_space_group_name_H-M   'P 21/c'
_symmetry_Int_Tables_number      14
_space_group_name_Hall           '-P 2ybc'
loop_
_symmetry_equiv_pos_site_id
_symmetry_equiv_pos_as_xyz
1 x,y,z
2 -x,1/2+y,1/2-z
3 -x,-y,-z
4 x,1/2-y,1/2+z
_cell_length_a                   10.821(2)
_cell_length_b                   21.367(2)
_cell_length_c                   15.400(3)
_cell_angle_alpha                90
_cell_angle_beta                 93.673(9)
_cell_angle_gamma                90
_cell_volume                     3553.36
loop_
_atom_site_label
_atom_site_type_symbol
_atom_site_fract_x
_atom_site_fract_y
_atom_site_fract_z
Sn1 Sn 0.38592(3) 0.31160(2) -0.17540(2)
S1 S 0.4394(1) 0.12952(5) 0.10978(7)
O1 O 0.3144(3) 0.2654(1) -0.0668(2)
O2 O 0.4040(3) 0.1741(1) -0.0935(2)
O3 O 0.4371(3) 0.1200(2) 0.2044(2)
O4 O 0.5053(3) 0.1850(2) 0.0884(2)
O5 O 0.4789(3) 0.0731(1) 0.0669(2)
C1 C 0.3051(5) 0.3948(2) -0.1282(3)
C2 C 0.1832(6) 0.4015(3) -0.1150(4)
C3 C 0.1366(7) 0.4545(4) -0.0797(4)
C4 C 0.2112(7) 0.5026(3) -0.0557(4)
C5 C 0.3308(8) 0.4968(3) -0.0664(5)
C6 C 0.3782(6) 0.4439(3) -0.1027(4)
C7 C 0.5795(5) 0.3057(2) -0.1396(3)
C8 C 0.6708(5) 0.3148(3) -0.1963(4)
C9 C 0.7937(5) 0.3132(3) -0.1662(5)
C10 C 0.8247(6) 0.3030(3) -0.0804(5)
C11 C 0.7357(6) 0.2934(4) -0.0251(5)
C12 C 0.6142(5) 0.2941(3) -0.0541(4)
C13 C 0.2864(5) 0.2523(2) -0.2646(3)
C14 C 0.1606(6) 0.2481(3) -0.2624(4)
C15 C 0.0909(7) 0.2082(3) -0.3182(4)
C16 C 0.1491(7) 0.1723(3) -0.3745(4)
C17 C 0.2729(7) 0.1745(3) -0.3784(4)
C18 C 0.3417(6) 0.2146(2) -0.3235(3)
C19 C 0.2436(4) 0.1765(2) 0.0039(3)
C20 C 0.1182(5) 0.1844(3) -0.0152(3)
C21 C 0.0324(5) 0.1551(3) 0.0323(4)
C22 C 0.0704(5) 0.1178(3) 0.1004(4)
C23 C 0.1928(5) 0.1105(2) 0.1230(3)
C24 C 0.2809(4) 0.1397(2) 0.0746(3)
C25 C 0.3299(4) 0.2062(2) -0.0558(3)
Sn1C Sn 0.38592(3) 0.18840(2) 0.32460(2)
O3C O 0.4371(3) 0.3800(2) -0.2956(2)
N1 N 0.4809(3) 0.4487(2) 0.3663(2)
C26 C 0.3629(4) 0.4521(2) 0.3111(3)
C27 C 0.2631(4) 0.4698(3) 0.3706(3)
C28 C 0.1406(6) 0.4756(3) 0.3216(4)
C29 C 0.1437(5) 0.5212(3) 0.2489(4)
C30 C 0.2421(5) 0.5044(3) 0.1889(4)
C31 C 0.3676(5) 0.4969(3) 0.2364(3)
C32 C 0.6010(4) 0.4386(2) 0.3260(3)
C33 C 0.6023(5) 0.3781(3) 0.2748(3)
C34 C 0.7313(5) 0.3667(3) 0.2420(4)
C35 C 0.8315(6) 0.3697(3) 0.3143(5)
C36 C 0.8266(5) 0.4297(3) 0.3625(5)
C37 C 0.7018(5) 0.4397(3) 0.3981(4)
loop_
_geom_bond_atom_site_label_1
_geom_bond_atom_site_label_2
_geom_bond_site_symmetry_1
_geom_bond_site_symmetry_2
Sn1 O1 1_555 1_555
S1 O3 1_555 1_555
O1 C25 1_555 1_555
O2 C25 1_555 1_555
O3 Sn1C 1_555 1_555
O4 S1 1_555 1_555
O5 S1 1_555 1_555
C1 Sn1 1_555 1_555
C2 C1 1_555 1_555
C3 C2 1_555 1_555
C4 C3 1_555 1_555
C5 C4 1_555 1_555
C6 C1 1_555 1_555
C7 Sn1 1_555 1_555
C8 C7 1_555 1_555
C9 C8 1_555 1_555
C10 C9 1_555 1_555
C11 C10 1_555 1_555
C12 C7 1_555 1_555
C13 Sn1 1_555 1_555
C14 C13 1_555 1_555
C15 C14 1_555 1_555
C16 C15 1_555 1_555
C17 C16 1_555 1_555
C18 C13 1_555 1_555
C19 C20 1_555 1_555
C20 C21 1_555 1_555
C21 C22 1_555 1_555
C22 C23 1_555 1_555
C23 C24 1_555 1_555
C24 S1 1_555 1_555
C25 C19 1_555 1_555
N1 C26 1_555 1_555
C26 C27 1_555 1_555
C27 C28 1_555 1_555
C28 C29 1_555 1_555
C29 C30 1_555 1_555
C30 C31 1_555 1_555
C31 C26 1_555 1_555
C32 N1 1_555 1_555
C33 C32 1_555 1_555
C34 C33 1_555 1_555
C35 C34 1_555 1_555
C36 C35 1_555 1_555
C37 C32 1_555 1_555
O3C Sn1 1_555 1_555
C5 C6 1_555 1_555
C11 C12 1_555 1_555
C17 C18 1_555 1_555
C19 C24 1_555 1_555
C36 C37 1_555 1_555

#END
