
#######################################################################
#
#                 Cambridge Crystallographic Data Centre
#                                CCDC 
#
#######################################################################
#
# If this CIF has been generated from an entry in the Cambridge 
# Structural Database, then it will include bibliographic, chemical, 
# crystal, experimental, refinement or atomic coordinate data resulting 
# from the CCDC's data processing and validation procedures.
#
#######################################################################

data_YAZFOW
_symmetry_cell_setting           tetragonal
_symmetry_space_group_name_H-M   'I 41 2 2'
_symmetry_Int_Tables_number      98
_space_group_name_Hall           'I 4bw 2bw'
loop_
_symmetry_equiv_pos_site_id
_symmetry_equiv_pos_as_xyz
1 x,y,z
2 -y,1/2+x,1/4+z
3 -x,-y,z
4 y,1/2-x,1/4+z
5 x,1/2-y,1/4-z
6 -x,1/2+y,1/4-z
7 y,x,-z
8 -y,-x,-z
9 1/2+x,1/2+y,1/2+z
10 1/2-y,x,3/4+z
11 1/2-x,1/2-y,1/2+z
12 1/2+y,-x,3/4+z
13 1/2+x,-y,3/4-z
14 1/2-x,y,3/4-z
15 1/2+y,1/2+x,1/2-z
16 1/2-y,1/2-x,1/2-z
_cell_length_a                   15.5665(6)
_cell_length_b                   15.5665(6)
_cell_length_c                   12.3201(14)
_cell_angle_alpha                90
_cell_angle_beta                 90
_cell_angle_gamma                90
_cell_volume                     2985.36
loop_
_atom_site_label
_atom_site_type_symbol
_atom_site_fract_x
_atom_site_fract_y
_atom_site_fract_z
In1 In 0.312034(9) 0.312034(9) 0.0000
O1 O 0.20853(10) 0.40768(11) 0.00497(17)
O2 O 0.11708(13) 0.38895(14) -0.13584(13)
O3 O 0.2490(2) 0.2500 0.1250
H1 H 0.1926 0.2500 0.1250
C1 C 0.0000 0.5000 0.1887(3)
C2 C 0.06782(17) 0.46332(16) 0.1311(2)
H2 H 0.1140 0.4398 0.1687
C3 C 0.06750(16) 0.46143(15) 0.0185(2)
C4 C 0.0000 0.5000 -0.0386(2)
H3 H 0.0000 0.5000 -0.1141
C5 C 0.13719(16) 0.41598(15) -0.04126(19)
In1J In 0.187966(9) 0.187966(9) 0.5000
In1I In 0.187966(9) 0.312034(9) -0.2500
In1C In 0.312034(9) 0.187966(9) 0.2500
In1I_2 In 0.187966(9) 0.312034(9) 0.7500
In1H In -0.187966(9) 0.812034(9) 0.5000
In1K In -0.187966(9) 0.687966(9) 0.7500
In1B In -0.312034(9) 0.687966(9) 0.0000
In1K_2 In -0.187966(9) 0.687966(9) -0.2500
O1O O 0.09232(11) 0.29147(10) 0.49503(17)
O1N O -0.09232(11) 0.70853(10) 0.49503(17)
O1B O -0.20853(10) 0.59232(11) 0.00497(17)
O1F O 0.40768(11) 0.20853(10) -0.00497(17)
O1J O 0.29147(10) 0.09232(11) 0.50497(17)
O2O O 0.11105(14) 0.38292(13) 0.63584(13)
O2N O -0.11105(14) 0.61708(13) 0.63584(13)
O2B O -0.11708(13) 0.61105(14) -0.13584(13)
O2C O 0.38895(14) 0.38292(13) 0.11416(13)
O2M O 0.38292(13) 0.38895(14) -0.11416(13)
O2D O 0.11708(13) 0.11105(14) 0.38584(13)
O2I O 0.11105(14) 0.11708(13) 0.61416(13)
O3F O 0.2500 0.2490(2) -0.1250
O3C O 0.2500 0.2510(2) 0.3750
O3J O 0.2510(2) 0.2500 0.6250
H1F H 0.2500 0.1926 -0.1250
H1C H 0.2500 0.3074 0.3750
H1J H 0.3074 0.2500 0.6250
C1N C 0.0000 0.5000 0.3113(3)
C2N C -0.03668(16) 0.56782(17) 0.3689(2)
C2O C 0.03668(16) 0.43218(17) 0.3689(2)
C2B C -0.06782(17) 0.53668(16) 0.1311(2)
H2N H -0.0602 0.6140 0.3313
H2O H 0.0602 0.3860 0.3313
H2B H -0.1140 0.5602 0.1687
C3N C -0.03857(15) 0.56750(16) 0.4815(2)
C3O C 0.03857(15) 0.43250(16) 0.4815(2)
C3B C -0.06750(16) 0.53857(15) 0.0185(2)
C4N C 0.0000 0.5000 0.5386(2)
H3N H 0.0000 0.5000 0.6141
C5O C 0.08402(15) 0.36281(16) 0.54126(19)
C5N C -0.08402(15) 0.63719(16) 0.54126(19)
C5B C -0.13719(16) 0.58402(15) -0.04126(19)
loop_
_geom_bond_atom_site_label_1
_geom_bond_atom_site_label_2
_geom_bond_site_symmetry_1
_geom_bond_site_symmetry_2
In1 O1 1_555 1_555
O1 C5 1_555 1_555
O2 C5 1_555 1_555
O3 In1 1_555 1_555
H1 O3 1_555 1_555
C1 C2 1_555 1_555
C2 H2 1_555 1_555
C3 C2 1_555 1_555
C4 C3 1_555 1_555
H3 C4 1_555 1_555
C5 C3 1_555 1_555
In1J O1O 1_555 1_555
In1I O2 1_555 1_555
In1C O3 1_555 1_555
In1I_2 O2O 1_555 1_555
In1H O1N 1_555 1_555
In1K O2N 1_555 1_555
In1B O1B 1_555 1_555
In1K_2 O2B 1_555 1_555
O1O C5O 1_555 1_555
O1N C5N 1_555 1_555
O1B C5B 1_555 1_555
O1F In1 1_555 1_555
O1J In1J 1_555 1_555
O2O C5O 1_555 1_555
O2N C5N 1_555 1_555
O2B C5B 1_555 1_555
O2C In1 1_555 1_555
O2M In1 1_555 1_555
O2D In1J 1_555 1_555
O2I In1J 1_555 1_555
O3F In1 1_555 1_555
O3C In1J 1_555 1_555
O3J In1J 1_555 1_555
H1F O3F 1_555 1_555
H1C O3C 1_555 1_555
H1J O3J 1_555 1_555
C1N C1 1_555 1_555
C2N C1N 1_555 1_555
C2O C1N 1_555 1_555
C2B C1 1_555 1_555
H2N C2N 1_555 1_555
H2O C2O 1_555 1_555
H2B C2B 1_555 1_555
C3N C2N 1_555 1_555
C3O C2O 1_555 1_555
C3B C4 1_555 1_555
C4N C3N 1_555 1_555
H3N C4N 1_555 1_555
C5O C3O 1_555 1_555
C5N C3N 1_555 1_555
C5B C3B 1_555 1_555
In1I O3F 1_555 1_555
In1C O3C 1_555 1_555
In1I_2 O3J 1_555 1_555
C2B C3B 1_555 1_555
C3O C4N 1_555 1_555

#END
