
#######################################################################
#
#                 Cambridge Crystallographic Data Centre
#                                CCDC 
#
#######################################################################
#
# If this CIF has been generated from an entry in the Cambridge 
# Structural Database, then it will include bibliographic, chemical, 
# crystal, experimental, refinement or atomic coordinate data resulting 
# from the CCDC's data processing and validation procedures.
#
#######################################################################

data_YAZWOM
_symmetry_cell_setting           hexagonal
_symmetry_space_group_name_H-M   'P 62'
_symmetry_Int_Tables_number      171
_space_group_name_Hall           'P 62'
loop_
_symmetry_equiv_pos_site_id
_symmetry_equiv_pos_as_xyz
1 x,y,z
2 -y,x-y,2/3+z
3 -x+y,-x,1/3+z
4 -x,-y,z
5 y,-x+y,2/3+z
6 x-y,x,1/3+z
_cell_length_a                   15.915(1)
_cell_length_b                   15.915(1)
_cell_length_c                   8.6777(8)
_cell_angle_alpha                90
_cell_angle_beta                 90
_cell_angle_gamma                120
_cell_volume                     1903.48
loop_
_atom_site_label
_atom_site_type_symbol
_atom_site_fract_x
_atom_site_fract_y
_atom_site_fract_z
Cu1 Cu 0.61859(5) 0.20954(5) 0.11000(7)
Cl1 Cl 0.58493(10) 0.33156(9) 0.15540(15)
O1 O 0.6411(3) 0.5133(3) 0.3710(4)
O2 O 0.5464(3) 0.6463(3) 0.4334(5)
N1 N 0.5237(3) 0.2506(3) 0.5379(6)
C1 C 0.6687(4) 0.5753(4) 0.4823(6)
O3 O 0.6541(3) 0.5545(3) 0.6202(5)
C2 C 0.7283(4) 0.6802(4) 0.4310(8)
N2 N 0.6974(3) 0.7406(3) 0.5157(5)
C3 C 0.1642(5) 0.2831(5) 0.4608(10)
H1 H 0.1258 0.2213 0.4116
H2 H 0.1472 0.3287 0.4197
H3 H 0.1520 0.2763 0.5697
C4 C 0.6055(4) 0.7169(4) 0.5114(6)
C5 C 0.4296(4) 0.2292(4) 0.6114(6)
C6 C 0.4533(7) 0.2788(5) 0.7701(8)
H4 H 0.4814 0.2504 0.8347
H5 H 0.3948 0.2702 0.8167
H6 H 0.4984 0.3468 0.7579
C7 C 0.3589(5) 0.1195(5) 0.6191(10)
H7 H 0.3850 0.0898 0.6852
H8 H 0.3496 0.0923 0.5176
H9 H 0.2978 0.1078 0.6594
H10 H 0.267(6) 0.198(5) 0.582(9)
H11 H 0.281(4) 0.321(4) 0.330(8)
H12 H 0.5567 0.2348 0.5986
H13 H 0.4931 0.2237 0.4410
Cu1B Cu 0.59095(7) 0.38141(5) 0.44333(7)
Cu1A Cu 0.79046(5) 0.40905(7) 0.77667(7)
Cu1E Cu 0.40905(7) 0.61859(5) 0.44333(7)
Cl1B Cl 0.74663(13) 0.41507(10) 0.48873(15)
Cl1A Cl 0.66844(9) 0.25337(13) -0.17793(15)
O1C O 0.3589(3) 0.4867(3) 0.3710(4)
O1A O 0.4867(3) 0.1278(4) 0.0377(4)
O2D O 0.6463(3) 0.0999(4) 0.1001(5)
O2C O 0.4536(3) 0.3537(3) 0.4334(5)
N1C N 0.4763(3) 0.7494(3) 0.5379(6)
N1A N 0.7494(3) 0.2731(4) 0.2046(6)
C1C C 0.3313(4) 0.4247(4) 0.4823(6)
O3C O 0.3459(3) 0.4455(3) 0.6202(5)
C2C C 0.2717(4) 0.3198(4) 0.4310(8)
N2C N 0.3026(3) 0.2594(3) 0.5157(5)
C3C C 0.8358(5) 0.7169(5) 0.4608(10)
H1C H 0.8742 0.7787 0.4116
H2C H 0.8528 0.6713 0.4197
H3C H 0.8480 0.7237 0.5697
C4C C 0.3945(4) 0.2831(4) 0.5114(6)
C5C C 0.5704(4) 0.7708(4) 0.6114(6)
C6C C 0.5467(7) 0.7212(5) 0.7701(8)
H4C H 0.5186 0.7496 0.8347
H5C H 0.6052 0.7298 0.8167
H6C H 0.5016 0.6532 0.7579
C7C C 0.6411(5) 0.8805(5) 0.6191(10)
H7C H 0.6150 0.9102 0.6852
H8C H 0.6504 0.9077 0.5176
H9C H 0.7022 0.8922 0.6594
H10C H 0.733(6) 0.802(5) 0.582(9)
H11C H 0.719(4) 0.679(4) 0.330(8)
H12C H 0.4433 0.7652 0.5986
H12A H 0.7652 0.3219 0.2653
H13C H 0.5069 0.7763 0.4410
H13A H 0.7763 0.2694 0.1077
O4 O 0.0000 -1.0000 -0.7558(5)
O5 O 0.0242(3) -0.8800(2) -0.9242(4)
O6 O 0.0000 -0.5000 -0.8326(12)
O7 O 0.5000 0.0000 -1.1890(17)
loop_
_geom_bond_atom_site_label_1
_geom_bond_atom_site_label_2
_geom_bond_site_symmetry_1
_geom_bond_site_symmetry_2
Cu1 Cl1 1_555 1_555
Cl1 Cu1B 1_555 1_555
O1 C1 1_555 1_555
O2 C4 1_555 1_555
N1 C5 1_555 1_555
C1 O3 1_555 1_555
C2 C1 1_555 1_555
N2 C2 1_555 1_555
C3 H1 1_555 1_555
H2 C3 1_555 1_555
H3 C3 1_555 1_555
C4 N2 1_555 1_555
C5 C6 1_555 1_555
C6 H4 1_555 1_555
H5 C6 1_555 1_555
H6 C6 1_555 1_555
C7 C5 1_555 1_555
H7 C7 1_555 1_555
H8 C7 1_555 1_555
H9 C7 1_555 1_555
H10 N2C 1_555 1_555
H11 C2C 1_555 1_555
H12 N1 1_555 1_555
H13 N1 1_555 1_555
Cu1B O1 1_555 1_555
Cu1A Cl1B 1_555 1_555
Cu1E O2 1_555 1_555
Cl1B Cu1B 1_555 1_555
Cl1A Cu1 1_555 1_555
O1C Cu1E 1_555 1_555
O1A Cu1 1_555 1_555
O2D Cu1 1_555 1_555
O2C Cu1B 1_555 1_555
N1C Cu1E 1_555 1_555
N1A Cu1 1_555 1_555
C1C O1C 1_555 1_555
O3C C1C 1_555 1_555
C2C C3 1_555 1_555
N2C C2C 1_555 1_555
C3C C2 1_555 1_555
H1C C3C 1_555 1_555
H2C C3C 1_555 1_555
H3C C3C 1_555 1_555
C4C C5 1_555 1_555
C5C C4 1_555 1_555
C6C C5C 1_555 1_555
H4C C6C 1_555 1_555
H5C C6C 1_555 1_555
H6C C6C 1_555 1_555
C7C C5C 1_555 1_555
H7C C7C 1_555 1_555
H8C C7C 1_555 1_555
H9C C7C 1_555 1_555
H10C N2 1_555 1_555
H11C C2 1_555 1_555
H12C N1C 1_555 1_555
H12A N1A 1_555 1_555
H13C N1C 1_555 1_555
H13A N1A 1_555 1_555
N1 Cu1B 1_555 1_555
O2C C4C 1_555 1_555
N1C C5C 1_555 1_555
C1C C2C 1_555 1_555
N2C C4C 1_555 1_555

#END
