
#######################################################################
#
#                 Cambridge Crystallographic Data Centre
#                                CCDC 
#
#######################################################################
#
# If this CIF has been generated from an entry in the Cambridge 
# Structural Database, then it will include bibliographic, chemical, 
# crystal, experimental, refinement or atomic coordinate data resulting 
# from the CCDC's data processing and validation procedures.
#
#######################################################################

data_YEGYIU
_symmetry_cell_setting           triclinic
_symmetry_space_group_name_H-M   'P -1'
_symmetry_Int_Tables_number      2
_space_group_name_Hall           '-P 1'
loop_
_symmetry_equiv_pos_site_id
_symmetry_equiv_pos_as_xyz
1 x,y,z
2 -x,-y,-z
_cell_length_a                   7.0100(14)
_cell_length_b                   9.1462(18)
_cell_length_c                   15.496(3)
_cell_angle_alpha                97.96(3)
_cell_angle_beta                 98.39(3)
_cell_angle_gamma                92.01(3)
_cell_volume                     971.87
loop_
_atom_site_label
_atom_site_type_symbol
_atom_site_fract_x
_atom_site_fract_y
_atom_site_fract_z
Ag1 Ag 0.54800(4) 0.33931(3) 0.395704(16)
Ag2 Ag 0.83104(4) 0.55249(3) 0.708862(16)
O1 O 0.7585(4) 0.2877(3) 0.66065(15)
O2 O 0.5988(4) 0.3956(3) 0.55311(16)
O3 O 0.3785(4) 0.0557(3) 0.27228(17)
O4 O 0.5807(4) -0.1296(3) 0.28188(16)
N1 N 0.5387(4) 0.1157(3) 0.45557(18)
N2 N 0.7957(4) 0.5193(3) 0.84492(18)
N3 N 0.6369(4) 0.3985(3) 1.27376(18)
N4 N 0.9135(4) 0.7122(3) 0.6251(2)
C1 C 0.6468(5) 0.2849(4) 0.5906(2)
C2 C 0.5631(5) 0.1346(4) 0.5444(2)
C3 C 0.4781(5) -0.0170(4) 0.4113(2)
C4 C 0.4745(5) -0.0335(4) 0.3120(2)
C5 C 0.7693(6) 0.3836(5) 0.8652(3)
H1 H 0.7669 0.3015 0.8202
C6 C 0.7454(7) 0.3568(4) 0.9490(2)
H2 H 0.7285 0.2581 0.9603
C7 C 0.7460(5) 0.4741(4) 1.0166(2)
C8 C 0.7724(6) 0.6142(4) 0.9946(2)
H3 H 0.7741 0.6984 1.0382
C9 C 0.7959(6) 0.6326(4) 0.9106(2)
H4 H 0.8134 0.7305 0.8979
C10 C 0.7179(5) 0.4489(4) 1.1068(2)
C11 C 0.6908(6) 0.3084(4) 1.1268(2)
H5 H 0.7002 0.2255 1.0836
C12 C 0.6496(6) 0.2859(4) 1.2095(2)
H6 H 0.6299 0.1875 1.2208
C13 C 0.6702(6) 0.5340(4) 1.2550(2)
H7 H 0.6672 0.6152 1.3001
C14 C 0.7086(6) 0.5637(4) 1.1747(2)
H8 H 0.7290 0.6632 1.1654
C15 C 0.9750(5) 0.8494(4) 0.6634(2)
H9 H 0.9951 0.8693 0.7259
C16 C 1.0105(5) 0.9623(4) 0.6180(2)
H10 H 1.0550 1.0570 0.6493
C17 C 0.9822(5) 0.9399(4) 0.5260(2)
C18 C 0.9187(5) 0.7962(4) 0.4852(2)
H11 H 0.8985 0.7737 0.4227
C19 C 0.8854(5) 0.6872(4) 0.5357(2)
H12 H 0.8412 0.5911 0.5066
Ag1A Ag 0.45200(4) -0.33931(3) 0.604296(16)
Ag1_2 Ag 0.54800(4) -0.66069(3) 0.395704(16)
Ag1_3 Ag 0.54800(4) 0.33931(3) 1.395704(16)
Ag1A_2 Ag 0.45200(4) -0.33931(3) -0.395704(16)
Ag1A_3 Ag 0.45200(4) 0.66069(3) 0.604296(16)
Ag2A Ag 0.16896(4) -0.55249(3) 0.291138(16)
Ag2_2 Ag 0.83104(4) -0.44751(3) 0.708862(16)
Ag2A_2 Ag 0.16896(4) 0.44751(3) 0.291138(16)
Ag2A_3 Ag 1.16896(4) 1.44751(3) 0.291138(16)
O1A O 0.2415(4) -0.2877(3) 0.33935(15)
O2A O 0.4012(4) -0.3956(3) 0.44689(16)
O3A O 0.6215(4) -0.0557(3) 0.72772(17)
O4A O 0.4193(4) 0.1296(3) 0.71812(16)
N1A N 0.4613(4) -0.1157(3) 0.54443(18)
N2A N 0.2043(4) -0.5193(3) 0.15508(18)
N3A N 0.3631(4) -0.3985(3) -0.27376(18)
N3_2 N 0.6369(4) 0.3985(3) 0.27376(18)
N3A_2 N 0.3631(4) -0.3985(3) 0.72624(18)
N4A N 1.0865(4) 1.2878(3) 0.3749(2)
N4A_2 N 0.0865(4) -0.7122(3) 0.3749(2)
C1A C 0.3532(5) -0.2849(4) 0.4094(2)
C2A C 0.4369(5) -0.1346(4) 0.4556(2)
C3A C 0.5219(5) 0.0170(4) 0.5887(2)
C4A C 0.5255(5) 0.0335(4) 0.6880(2)
C5A C 0.2307(6) -0.3836(5) 0.1348(3)
H1A H 0.2331 -0.3015 0.1798
C6A C 0.2546(7) -0.3568(4) 0.0510(2)
H2A H 0.2715 -0.2581 0.0397
C7A C 0.2540(5) -0.4741(4) -0.0166(2)
C8A C 0.2276(6) -0.6142(4) 0.0054(2)
H3A H 0.2259 -0.6984 -0.0382
C9A C 0.2041(6) -0.6326(4) 0.0894(2)
H4A H 0.1866 -0.7305 0.1021
C10A C 0.2821(5) -0.4489(4) -0.1068(2)
C11A C 0.3092(6) -0.3084(4) -0.1268(2)
H5A H 0.2998 -0.2255 -0.0836
C12A C 0.3504(6) -0.2859(4) -0.2095(2)
H6A H 0.3701 -0.1875 -0.2208
C13A C 0.3298(6) -0.5340(4) -0.2550(2)
H7A H 0.3328 -0.6152 -0.3001
C14A C 0.2914(6) -0.5637(4) -0.1747(2)
H8A H 0.2710 -0.6632 -0.1654
C15A C 1.0250(5) 1.1506(4) 0.3366(2)
H9A H 1.0049 1.1307 0.2741
C16A C 0.9895(5) 1.0377(4) 0.3820(2)
H10A H 0.9450 0.9430 0.3507
C17A C 1.0178(5) 1.0601(4) 0.4740(2)
C18A C 1.0813(5) 1.2038(4) 0.5148(2)
H11A H 1.1015 1.2263 0.5773
C19A C 1.1146(5) 1.3128(4) 0.4643(2)
H12A H 1.1588 1.4089 0.4934
loop_
_geom_bond_atom_site_label_1
_geom_bond_atom_site_label_2
_geom_bond_site_symmetry_1
_geom_bond_site_symmetry_2
Ag1 O2 1_555 1_555
Ag2 O1 1_555 1_555
O1 C1 1_555 1_555
O2 C1 1_555 1_555
O3 C4 1_555 1_555
O4 C4 1_555 1_555
N1 Ag1 1_555 1_555
N2 Ag2 1_555 1_555
N3 C12 1_555 1_555
N4 Ag2 1_555 1_555
C1 C2 1_555 1_555
C2 N1 1_555 1_555
C3 N1 1_555 1_555
C4 C3 1_555 1_555
C5 N2 1_555 1_555
H1 C5 1_555 1_555
C6 C5 1_555 1_555
H2 C6 1_555 1_555
C7 C6 1_555 1_555
C8 C7 1_555 1_555
H3 C8 1_555 1_555
C9 N2 1_555 1_555
H4 C9 1_555 1_555
C10 C7 1_555 1_555
C11 C10 1_555 1_555
H5 C11 1_555 1_555
C12 C11 1_555 1_555
H6 C12 1_555 1_555
C13 N3 1_555 1_555
H7 C13 1_555 1_555
C14 C10 1_555 1_555
H8 C14 1_555 1_555
C15 N4 1_555 1_555
H9 C15 1_555 1_555
C16 C15 1_555 1_555
H10 C16 1_555 1_555
C17 C16 1_555 1_555
C18 C17 1_555 1_555
H11 C18 1_555 1_555
C19 N4 1_555 1_555
H12 C19 1_555 1_555
Ag1A Ag2_2 1_555 1_555
Ag1_2 Ag2A 1_555 1_555
Ag1_3 N3 1_555 1_555
Ag1A_2 N3A 1_555 1_555
Ag1A_3 Ag2 1_555 1_555
Ag2A O1A 1_555 1_555
Ag2A_2 Ag1 1_555 1_555
Ag2A_3 N4A 1_555 1_555
O1A C1A 1_555 1_555
O2A Ag1A 1_555 1_555
O3A C4A 1_555 1_555
O4A C4A 1_555 1_555
N1A Ag1A 1_555 1_555
N2A Ag2A 1_555 1_555
N3A C12A 1_555 1_555
N3_2 Ag1 1_555 1_555
N3A_2 Ag1A 1_555 1_555
N4A C15A 1_555 1_555
N4A_2 Ag2A 1_555 1_555
C1A O2A 1_555 1_555
C2A C3 1_555 1_555
C3A C2 1_555 1_555
C4A C3A 1_555 1_555
C5A N2A 1_555 1_555
H1A C5A 1_555 1_555
C6A C5A 1_555 1_555
H2A C6A 1_555 1_555
C7A C6A 1_555 1_555
C8A C7A 1_555 1_555
H3A C8A 1_555 1_555
C9A N2A 1_555 1_555
H4A C9A 1_555 1_555
C10A C7A 1_555 1_555
C11A C10A 1_555 1_555
H5A C11A 1_555 1_555
C12A C11A 1_555 1_555
H6A C12A 1_555 1_555
C13A N3A 1_555 1_555
H7A C13A 1_555 1_555
C14A C10A 1_555 1_555
H8A C14A 1_555 1_555
C15A H9A 1_555 1_555
C16A C15A 1_555 1_555
H10A C16A 1_555 1_555
C17A C17 1_555 1_555
C18A C17A 1_555 1_555
H11A C18A 1_555 1_555
C19A N4A 1_555 1_555
H12A C19A 1_555 1_555
C8 C9 1_555 1_555
C13 C14 1_555 1_555
C18 C19 1_555 1_555
N1A C2A 1_555 1_555
N1A C3A 1_555 1_555
C1A C2A 1_555 1_555
C8A C9A 1_555 1_555
C13A C14A 1_555 1_555
C16A C17A 1_555 1_555
C18A C19A 1_555 1_555

#END
