
#######################################################################
#
#                 Cambridge Crystallographic Data Centre
#                                CCDC 
#
#######################################################################
#
# If this CIF has been generated from an entry in the Cambridge 
# Structural Database, then it will include bibliographic, chemical, 
# crystal, experimental, refinement or atomic coordinate data resulting 
# from the CCDC's data processing and validation procedures.
#
#######################################################################

data_YEKXIX
_symmetry_cell_setting           monoclinic
_symmetry_space_group_name_H-M   'P 21/n'
_symmetry_Int_Tables_number      14
_space_group_name_Hall           '-P 2yn'
loop_
_symmetry_equiv_pos_site_id
_symmetry_equiv_pos_as_xyz
1 x,y,z
2 1/2-x,1/2+y,1/2-z
3 -x,-y,-z
4 1/2+x,1/2-y,1/2+z
_cell_length_a                   10.2830(11)
_cell_length_b                   27.339(3)
_cell_length_c                   27.2460(16)
_cell_angle_alpha                90
_cell_angle_beta                 92.806(2)
_cell_angle_gamma                90
_cell_volume                     7650.4
loop_
_atom_site_label
_atom_site_type_symbol
_atom_site_fract_x
_atom_site_fract_y
_atom_site_fract_z
Zn1 Zn -0.18179(4) 0.301946(14) 0.197137(13)
Zn2 Zn -0.04741(4) 0.321771(15) 0.099070(14)
Zn3 Zn -0.89072(4) 0.308340(14) 0.203770(13)
Zn4 Zn -0.04005(4) 0.406296(14) 0.181665(14)
C1 C -0.3109(3) 0.28261(13) 0.10011(13)
C2 C -0.7939(3) 0.28806(13) 0.09723(14)
O1 O -0.7646(2) 0.35939(8) 0.22494(8)
C3 C -0.7740(3) 0.40497(13) 0.22244(12)
C4 C -0.5804(4) 0.20355(15) -0.20924(14)
O2 O -0.3125(2) 0.28140(9) 0.14640(8)
O3 O -0.1886(2) 0.43338(8) 0.21292(9)
O4 O -0.0345(3) 0.44238(10) 0.11918(10)
O5 O -0.6200(3) 0.73978(9) 0.27773(11)
O6 O -0.04118(19) 0.33756(7) 0.16762(7)
O7 O -0.6775(3) 0.21914(11) -0.23491(9)
O8 O -0.8992(2) 0.28889(9) 0.07214(8)
O9 O -0.2115(2) 0.29117(9) 0.07619(8)
O10 O -0.8769(2) 0.42914(8) 0.21444(9)
C5 C -0.5321(3) 0.40941(12) 0.22364(12)
H1 H -0.5324 0.3762 0.2163
C6 C -0.6495(3) 0.43296(12) 0.22998(13)
O11 O -0.4900(3) 0.17980(11) -0.22508(8)
O12 O -0.2993(2) 0.36291(9) 0.21121(10)
C7 C -0.4362(3) 0.27432(13) 0.07290(11)
C8 C -0.5523(3) 0.28130(13) 0.09591(12)
H2 H -0.5495 0.2891 0.1292
O13 O -0.7798(2) 0.29736(11) 0.14171(9)
O14 O -0.4281(3) 0.73152(9) 0.31833(11)
C9 C -0.5307(3) 0.50814(12) 0.24682(14)
C10 C -0.5629(3) 0.25537(14) -0.00258(12)
C11 C -0.4422(3) 0.26155(13) 0.02346(12)
H3 H -0.3654 0.2570 0.0073
C12 C -0.4153(3) 0.43382(12) 0.22792(12)
C13 C -0.4765(4) 0.20079(18) -0.12454(14)
H4 H -0.4109 0.1814 -0.1366
C14 C -0.6768(3) 0.26447(14) 0.02192(12)
H5 H -0.7571 0.2620 0.0049
C15 C -0.4160(3) 0.48369(12) 0.23930(13)
H6 H -0.3377 0.5007 0.2419
C16 C -0.6715(3) 0.27708(13) 0.07103(12)
C17 C -0.5225(5) 0.71473(14) 0.29484(16)
C18 C -0.2909(3) 0.40782(14) 0.21639(12)
O15 O -0.0478(3) 0.38373(10) 0.06162(9)
C19 C -0.5303(4) 0.56105(13) 0.25840(16)
C20 C -0.4736(4) 0.21361(18) -0.07475(14)
H7 H -0.4050 0.2028 -0.0541
C21 C -0.5689(4) 0.24160(16) -0.05582(13)
C22 C -0.6469(3) 0.48262(13) 0.24130(13)
H8 H -0.7249 0.4990 0.2452
C23 C -0.5268(4) 0.66106(13) 0.28216(16)
C24 C -0.6653(4) 0.25792(18) -0.08768(14)
H9 H -0.7302 0.2778 -0.0759
C25 C -0.6292(4) 0.59166(14) 0.24303(18)
H10 H -0.7004 0.5789 0.2250
C26 C -0.5761(4) 0.21685(16) -0.15517(13)
C27 C -0.6260(4) 0.64097(14) 0.25368(18)
H11 H -0.6929 0.6610 0.2412
C28 C -0.0172(4) 0.46487(16) 0.03584(16)
C29 C -0.0166(5) 0.45195(17) -0.01231(16)
H12 H -0.0276 0.4193 -0.0211
C30 C -0.4293(4) 0.63118(15) 0.29844(18)
H13 H -0.3606 0.6439 0.3179
C31 C -0.4303(4) 0.58171(14) 0.28646(18)
H14 H -0.3613 0.5621 0.2978
C32 C -0.6701(4) 0.24607(18) -0.13664(14)
H15 H -0.7375 0.2579 -0.1573
C33 C 0.0001(5) 0.51361(17) 0.04823(16)
H16 H 0.0004 0.5231 0.0810
C34 C -0.0340(4) 0.42745(17) 0.07529(17)
Zn1C Zn 0.31821(4) 0.198054(14) 0.697137(13)
Zn1C_2 Zn -0.68179(4) 0.198054(14) -0.302863(13)
Zn1A Zn -0.31821(4) 0.801946(14) 0.302863(13)
Zn1A_2 Zn -0.31821(4) -0.198054(14) 0.302863(13)
Zn1_2 Zn -1.18179(4) 0.301946(14) 0.197137(13)
Zn2_2 Zn -1.04741(4) 0.321771(15) 0.099070(14)
Zn2B Zn 0.04741(4) 0.678229(15) -0.099070(14)
Zn2C Zn -0.54741(4) 0.178229(15) 0.599070(14)
Zn2C_2 Zn 0.45259(4) 0.178229(15) 0.599070(14)
Zn3A Zn 0.39072(4) -0.191660(14) 0.296230(13)
Zn3A_2 Zn -0.60928(4) 0.808340(14) 0.296230(13)
Zn3_2 Zn 0.10928(4) 0.308340(14) 0.203770(13)
Zn3C Zn -0.39072(4) 0.191660(14) -0.296230(13)
Zn3C_2 Zn -0.39072(4) 0.191660(14) 0.703770(13)
Zn4A Zn -0.45995(4) -0.093704(14) 0.318335(14)
Zn4_2 Zn -1.04005(4) 0.406296(14) 0.181665(14)
Zn4B Zn 0.04005(4) 0.593704(14) -0.181665(14)
Zn4A_2 Zn 0.54005(4) -0.093704(14) 0.318335(14)
C1C C 0.1891(3) 0.21739(13) 0.60011(13)
C2C C -0.2939(3) 0.21194(13) 0.59723(14)
O1A O 0.2646(2) -0.14061(8) 0.27506(8)
C3A C 0.2740(3) -0.09503(13) 0.27756(12)
C4C C -0.0804(4) 0.29645(15) 0.29076(14)
O2C O 0.1875(2) 0.21860(9) 0.64640(8)
O3A O -0.3114(2) -0.06662(8) 0.28708(9)
O4B O 0.0345(3) 0.55762(10) -0.11918(10)
O4A O -0.4655(3) -0.05762(10) 0.38082(10)
O5A O 0.1200(3) 0.23978(9) 0.22227(11)
O5A_2 O -0.8800(3) 0.23978(9) 0.22227(11)
O5_2 O 0.3800(3) -0.26022(9) 0.27773(11)
O6_2 O -1.04118(19) 0.33756(7) 0.16762(7)
O6C O 0.45882(19) 0.16244(7) 0.66762(7)
O6A O 0.54118(19) -0.16244(7) 0.33238(7)
O6A_2 O -0.45882(19) -0.16244(7) 0.33238(7)
O7C O -0.1775(3) 0.28086(11) 0.26509(9)
O7_2 O 0.3225(3) 0.21914(11) 0.76509(9)
O8C O -0.3992(2) 0.21111(9) 0.57214(8)
O8_2 O 0.1008(2) 0.28889(9) 0.07214(8)
O9C O 0.2885(2) 0.20883(9) 0.57619(8)
O9_2 O -1.2115(2) 0.29117(9) 0.07619(8)
O10A O 0.3769(2) -0.07086(8) 0.28556(9)
O10_2 O 0.1231(2) 0.42914(8) 0.21444(9)
O10A_2 O -0.6231(2) -0.07086(8) 0.28556(9)
C5A C 0.0321(3) -0.09059(12) 0.27636(12)
H1A H 0.0324 -0.1238 0.2837
C6A C 0.1495(3) -0.06704(12) 0.27002(13)
O11C O 0.0100(3) 0.32020(11) 0.27492(8)
O11C_2 O -0.9900(3) 0.32020(11) 0.27492(8)
O11B O 0.4900(3) -0.17980(11) 0.22508(8)
O12A O -0.2007(2) -0.13709(9) 0.28879(10)
O12C O 0.2007(2) 0.13709(9) 0.71121(10)
C7C C 0.0638(3) 0.22568(13) 0.57290(11)
C8C C -0.0523(3) 0.21870(13) 0.59591(12)
H2C H -0.0495 0.2109 0.6292
O13C O -0.2798(2) 0.20264(11) 0.64171(9)
O13A O 0.2798(2) -0.20264(11) 0.35829(9)
O14A O -0.0719(3) 0.23152(9) 0.18167(11)
O14B O 0.4281(3) 0.26848(9) 0.68167(11)
C9A C 0.0307(3) 0.00814(12) 0.25318(14)
C10C C -0.0629(3) 0.24463(14) 0.49742(12)
C11C C 0.0578(3) 0.23845(13) 0.52346(12)
H3C H 0.1346 0.2430 0.5073
C12A C -0.0847(3) -0.06618(12) 0.27208(12)
C13C C 0.0235(4) 0.29921(18) 0.37546(14)
H4C H 0.0891 0.3186 0.3634
C14C C -0.1768(3) 0.23553(14) 0.52192(12)
H5C H -0.2571 0.2380 0.5049
C15A C -0.0840(3) -0.01631(12) 0.26070(13)
H6A H -0.1623 0.0007 0.2581
C16C C -0.1715(3) 0.22292(13) 0.57103(12)
C17A C 0.0225(5) 0.21473(14) 0.20516(16)
C18A C -0.2091(3) -0.09218(14) 0.28361(12)
O15B O 0.0478(3) 0.61627(10) -0.06162(9)
O15_2 O -1.0478(3) 0.38373(10) 0.06162(9)
C19A C 0.0303(4) 0.06105(13) 0.24160(16)
C20C C 0.0264(4) 0.28639(18) 0.42525(14)
H7C H 0.0950 0.2972 0.4459
C21C C -0.0689(4) 0.25840(16) 0.44418(13)
C22A C 0.1469(3) -0.01738(13) 0.25870(13)
H8A H 0.2249 -0.0010 0.2548
C23A C 0.0268(4) 0.16106(13) 0.21784(16)
C24C C -0.1653(4) 0.24208(18) 0.41232(14)
H9C H -0.2302 0.2222 0.4241
C25A C 0.1292(4) 0.09166(14) 0.25697(18)
H10A H 0.2004 0.0789 0.2750
C26C C -0.0761(4) 0.28315(16) 0.34483(13)
C27A C 0.1260(4) 0.14097(14) 0.24632(18)
H11A H 0.1929 0.1610 0.2588
C28B C 0.0172(4) 0.53513(16) -0.03584(16)
C29B C 0.0166(5) 0.54805(17) 0.01231(16)
H12B H 0.0276 0.5807 0.0211
C30A C -0.0707(4) 0.13118(15) 0.20156(18)
H13A H -0.1394 0.1439 0.1821
C31A C -0.0697(4) 0.08171(14) 0.21354(18)
H14A H -0.1387 0.0621 0.2022
C32C C -0.1701(4) 0.25393(18) 0.36336(14)
H15C H -0.2375 0.2421 0.3427
C33B C -0.0001(5) 0.48639(17) -0.04823(16)
H16B H -0.0004 0.4769 -0.0810
C34B C 0.0340(4) 0.57255(17) -0.07529(17)
loop_
_geom_bond_atom_site_label_1
_geom_bond_atom_site_label_2
_geom_bond_site_symmetry_1
_geom_bond_site_symmetry_2
Zn1 O2 1_555 1_555
Zn2 O6 1_555 1_555
Zn3 O1 1_555 1_555
Zn4 O3 1_555 1_555
C1 O2 1_555 1_555
C2 O8 1_555 1_555
O1 C3 1_555 1_555
C3 O10 1_555 1_555
C4 O7 1_555 1_555
O3 C18 1_555 1_555
O4 Zn4 1_555 1_555
O5 C17 1_555 1_555
O6 Zn1 1_555 1_555
O7 Zn1C_2 1_555 1_555
O8 Zn2_2 1_555 1_555
O9 Zn2 1_555 1_555
O10 Zn4_2 1_555 1_555
C5 H1 1_555 1_555
C6 C3 1_555 1_555
O11 C4 1_555 1_555
O12 Zn1 1_555 1_555
C7 C1 1_555 1_555
C8 C7 1_555 1_555
H2 C8 1_555 1_555
O13 Zn3 1_555 1_555
O14 C17 1_555 1_555
C9 C15 1_555 1_555
C10 C11 1_555 1_555
C11 C7 1_555 1_555
H3 C11 1_555 1_555
C12 C5 1_555 1_555
C13 H4 1_555 1_555
C14 C10 1_555 1_555
H5 C14 1_555 1_555
C15 C12 1_555 1_555
H6 C15 1_555 1_555
C16 C2 1_555 1_555
C17 C23 1_555 1_555
C18 O12 1_555 1_555
O15 Zn2 1_555 1_555
C19 C9 1_555 1_555
C20 C13 1_555 1_555
H7 C20 1_555 1_555
C21 C10 1_555 1_555
C22 C6 1_555 1_555
H8 C22 1_555 1_555
C23 C27 1_555 1_555
C24 C21 1_555 1_555
H9 C24 1_555 1_555
C25 C19 1_555 1_555
H10 C25 1_555 1_555
C26 C4 1_555 1_555
C27 C25 1_555 1_555
H11 C27 1_555 1_555
C28 C29 1_555 1_555
C29 H12 1_555 1_555
C30 C23 1_555 1_555
H13 C30 1_555 1_555
C31 C19 1_555 1_555
H14 C31 1_555 1_555
C32 C24 1_555 1_555
H15 C32 1_555 1_555
C33 C28 1_555 1_555
H16 C33 1_555 1_555
C34 O4 1_555 1_555
Zn1C O2C 1_555 1_555
Zn1A O14 1_555 1_555
Zn1A_2 O6A_2 1_555 1_555
Zn1_2 O6_2 1_555 1_555
Zn2_2 O6_2 1_555 1_555
Zn2B O15B 1_555 1_555
Zn2C O8C 1_555 1_555
Zn2C_2 O6C 1_555 1_555
Zn3A O1A 1_555 1_555
Zn3A_2 O5 1_555 1_555
Zn3_2 O6 1_555 1_555
Zn3C O11 1_555 1_555
Zn3C_2 O13C 1_555 1_555
Zn4A O3A 1_555 1_555
Zn4_2 O6_2 1_555 1_555
Zn4B O4B 1_555 1_555
Zn4A_2 O6A 1_555 1_555
C1C O2C 1_555 1_555
C2C O8C 1_555 1_555
O1A C3A 1_555 1_555
C3A O10A 1_555 1_555
C4C O7C 1_555 1_555
O3A C18A 1_555 1_555
O4B C34B 1_555 1_555
O4A Zn4A 1_555 1_555
O5A Zn3_2 1_555 1_555
O5A_2 Zn3 1_555 1_555
O5_2 Zn3A 1_555 1_555
O6_2 Zn3 1_555 1_555
O6C Zn1C 1_555 1_555
O6A Zn3A 1_555 1_555
O6A_2 Zn4A 1_555 1_555
O7C Zn1 1_555 1_555
O7_2 Zn1C 1_555 1_555
O8_2 Zn2 1_555 1_555
O9C Zn2C_2 1_555 1_555
O9_2 Zn2_2 1_555 1_555
O10A Zn4A_2 1_555 1_555
O10_2 Zn4 1_555 1_555
O10A_2 Zn4A 1_555 1_555
C5A H1A 1_555 1_555
C6A C3A 1_555 1_555
O11C Zn3_2 1_555 1_555
O11C_2 Zn3 1_555 1_555
O11B Zn3A 1_555 1_555
O12A Zn1A_2 1_555 1_555
O12C Zn1C 1_555 1_555
C7C C1C 1_555 1_555
C8C C7C 1_555 1_555
H2C C8C 1_555 1_555
O13C C2C 1_555 1_555
O13A Zn3A 1_555 1_555
O14A Zn1 1_555 1_555
O14B Zn1C 1_555 1_555
C9A C15A 1_555 1_555
C10C C11C 1_555 1_555
C11C C7C 1_555 1_555
H3C C11C 1_555 1_555
C12A C5A 1_555 1_555
C13C H4C 1_555 1_555
C14C C10C 1_555 1_555
H5C C14C 1_555 1_555
C15A C12A 1_555 1_555
H6A C15A 1_555 1_555
C16C C2C 1_555 1_555
C17A O5A 1_555 1_555
C18A O12A 1_555 1_555
O15B C34B 1_555 1_555
O15_2 Zn2_2 1_555 1_555
C19A C9A 1_555 1_555
C20C C13C 1_555 1_555
H7C C20C 1_555 1_555
C21C C10C 1_555 1_555
C22A C6A 1_555 1_555
H8A C22A 1_555 1_555
C23A C17A 1_555 1_555
C24C C21C 1_555 1_555
H9C C24C 1_555 1_555
C25A C19A 1_555 1_555
H10A C25A 1_555 1_555
C26C C4C 1_555 1_555
C27A C23A 1_555 1_555
H11A C27A 1_555 1_555
C28B C29B 1_555 1_555
C29B C33 1_555 1_555
H12B C29B 1_555 1_555
C30A C23A 1_555 1_555
H13A C30A 1_555 1_555
C31A C19A 1_555 1_555
H14A C31A 1_555 1_555
C32C C24C 1_555 1_555
H15C C32C 1_555 1_555
C33B C29 1_555 1_555
H16B C33B 1_555 1_555
C34B C28B 1_555 1_555
Zn4 O6 1_555 1_555
C1 O9 1_555 1_555
C2 O13 1_555 1_555
C5 C6 1_555 1_555
C8 C16 1_555 1_555
C9 C22 1_555 1_555
C12 C18 1_555 1_555
C13 C26 1_555 1_555
C14 C16 1_555 1_555
O15 C34 1_555 1_555
C20 C21 1_555 1_555
C26 C32 1_555 1_555
C28 C34 1_555 1_555
C30 C31 1_555 1_555
C1C O9C 1_555 1_555
C4C O11C 1_555 1_555
C5A C6A 1_555 1_555
C8C C16C 1_555 1_555
O14A C17A 1_555 1_555
C9A C22A 1_555 1_555
C12A C18A 1_555 1_555
C13C C26C 1_555 1_555
C14C C16C 1_555 1_555
C20C C21C 1_555 1_555
C25A C27A 1_555 1_555
C26C C32C 1_555 1_555
C28B C33B 1_555 1_555
C30A C31A 1_555 1_555

#END
