
#######################################################################
#
#                 Cambridge Crystallographic Data Centre
#                                CCDC 
#
#######################################################################
#
# If this CIF has been generated from an entry in the Cambridge 
# Structural Database, then it will include bibliographic, chemical, 
# crystal, experimental, refinement or atomic coordinate data resulting 
# from the CCDC's data processing and validation procedures.
#
#######################################################################

data_YEMGED
_symmetry_cell_setting           cubic
_symmetry_space_group_name_H-M   'F d -3 c'
_symmetry_Int_Tables_number      228
_space_group_name_Hall           '-F 4ud 2vw 3'
loop_
_symmetry_equiv_pos_site_id
_symmetry_equiv_pos_as_xyz
1 x,y,z
2 z,x,y
3 y,z,x
4 3/4+y,1/4+x,-z
5 1/4+y,-x,3/4+z
6 -y,3/4+x,1/4+z
7 3/4+x,1/4+z,-y
8 -x,3/4+z,1/4+y
9 1/4+x,-z,3/4+y
10 3/4+z,1/4+y,-x
11 1/4+z,-y,3/4+x
12 -z,3/4+y,1/4+x
13 x,1/2+y,1/2+z
14 1/4-x,1/4-y,z
15 z,1/2+x,1/2+y
16 1/4-z,1/4-x,y
17 y,1/2+z,1/2+x
18 1/4-y,1/4-z,x
19 1/4+y,1/2-x,1/4+z
20 -y,1/4+x,3/4+z
21 -x,1/4+z,3/4+y
22 1/4+x,1/2-z,1/4+y
23 1/4+z,1/2-y,1/4+x
24 -z,1/4+y,3/4+x
25 1/2+x,y,1/2+z
26 x,1/4-y,1/4-z
27 1/2+z,x,1/2+y
28 z,1/4-x,1/4-y
29 1/2+y,z,1/2+x
30 y,1/4-z,1/4-x
31 1/4+y,1/4+x,1/2-z
32 3/4+y,-x,1/4+z
33 1/4+x,1/4+z,1/2-y
34 3/4+x,-z,1/4+y
35 1/4+z,1/4+y,1/2-x
36 3/4+z,-y,1/4+x
37 1/2+x,1/2+y,z
38 1/4-x,y,1/4-z
39 1/2+z,1/2+x,y
40 1/4-z,x,1/4-y
41 1/2+y,1/2+z,x
42 1/4-y,z,1/4-x
43 1/4+y,3/4+x,-z
44 1/2-y,1/4+x,1/4+z
45 1/4+x,3/4+z,-y
46 1/2-x,1/4+z,1/4+y
47 1/4+z,3/4+y,-x
48 1/2-z,1/4+y,1/4+x
49 1/4-x,3/4-y,1/2+z
50 3/4-x,1/2+y,1/4-z
51 1/2+x,1/4-y,3/4-z
52 1/2+z,1/4-x,3/4-y
53 1/4-z,3/4-x,1/2+y
54 3/4-z,1/2+x,1/4-y
55 3/4-y,1/2+z,1/4-x
56 1/2+y,1/4-z,3/4-x
57 1/4-y,3/4-z,1/2+x
58 1/2-y,1/2-x,1/2-z
59 1/2-x,1/2-z,1/2-y
60 1/2-z,1/2-y,1/2-x
61 3/4-x,y,3/4-z
62 1/2+x,3/4-y,1/4-z
63 1/2+z,3/4-x,1/4-y
64 3/4-z,x,3/4-y
65 3/4-y,z,3/4-x
66 1/2+y,3/4-z,1/4-x
67 3/4+y,3/4+x,1/2-z
68 1/2-y,-x,-z
69 3/4+x,3/4+z,1/2-y
70 1/2-x,-z,-y
71 3/4+z,3/4+y,1/2-x
72 1/2-z,-y,-x
73 3/4-x,3/4-y,z
74 1/4-x,1/2+y,3/4-z
75 3/4-z,3/4-x,y
76 1/4-z,1/2+x,3/4-y
77 1/4-y,1/2+z,3/4-x
78 3/4-y,3/4-z,x
79 -y,1/2-x,-z
80 1/2-y,3/4+x,3/4+z
81 1/2-x,3/4+z,3/4+y
82 -x,1/2-z,-y
83 1/2-z,3/4+y,3/4+x
84 -z,1/2-y,-x
85 3/4-x,1/4-y,1/2+z
86 x,3/4-y,3/4-z
87 z,3/4-x,3/4-y
88 3/4-z,1/4-x,1/2+y
89 y,3/4-z,3/4-x
90 3/4-y,1/4-z,1/2+x
91 -y,-x,1/2-z
92 3/4+y,1/2-x,3/4+z
93 -x,-z,1/2-y
94 3/4+x,1/2-z,3/4+y
95 3/4+z,1/2-y,3/4+x
96 -z,-y,1/2-x
97 -x,-y,-z
98 -z,-x,-y
99 -y,-z,-x
100 1/4-y,3/4-x,z
101 3/4-y,x,1/4-z
102 y,1/4-x,3/4-z
103 1/4-x,3/4-z,y
104 x,1/4-z,3/4-y
105 3/4-x,z,1/4-y
106 1/4-z,3/4-y,x
107 3/4-z,y,1/4-x
108 z,1/4-y,3/4-x
109 -x,1/2-y,1/2-z
110 3/4+x,3/4+y,-z
111 -z,1/2-x,1/2-y
112 3/4+z,3/4+x,-y
113 -y,1/2-z,1/2-x
114 3/4+y,3/4+z,-x
115 3/4-y,1/2+x,3/4-z
116 y,3/4-x,1/4-z
117 x,3/4-z,1/4-y
118 3/4-x,1/2+z,3/4-y
119 3/4-z,1/2+y,3/4-x
120 z,3/4-y,1/4-x
121 1/2-x,-y,1/2-z
122 -x,3/4+y,3/4+z
123 1/2-z,-x,1/2-y
124 -z,3/4+x,3/4+y
125 1/2-y,-z,1/2-x
126 -y,3/4+z,3/4+x
127 3/4-y,3/4-x,1/2+z
128 1/4-y,x,3/4-z
129 3/4-x,3/4-z,1/2+y
130 1/4-x,z,3/4-y
131 3/4-z,3/4-y,1/2+x
132 1/4-z,y,3/4-x
133 1/2-x,1/2-y,-z
134 3/4+x,-y,3/4+z
135 1/2-z,1/2-x,-y
136 3/4+z,-x,3/4+y
137 1/2-y,1/2-z,-x
138 3/4+y,-z,3/4+x
139 3/4-y,1/4-x,z
140 1/2+y,3/4-x,3/4-z
141 3/4-x,1/4-z,y
142 1/2+x,3/4-z,3/4-y
143 3/4-z,1/4-y,x
144 1/2+z,3/4-y,3/4-x
145 3/4+x,1/4+y,1/2-z
146 1/4+x,1/2-y,3/4+z
147 1/2-x,3/4+y,1/4+z
148 1/2-z,3/4+x,1/4+y
149 3/4+z,1/4+x,1/2-y
150 1/4+z,1/2-x,3/4+y
151 1/4+y,1/2-z,3/4+x
152 1/2-y,3/4+z,1/4+x
153 3/4+y,1/4+z,1/2-x
154 1/2+y,1/2+x,1/2+z
155 1/2+x,1/2+z,1/2+y
156 1/2+z,1/2+y,1/2+x
157 1/4+x,-y,1/4+z
158 1/2-x,1/4+y,3/4+z
159 1/2-z,1/4+x,3/4+y
160 1/4+z,-x,1/4+y
161 1/4+y,-z,1/4+x
162 1/2-y,1/4+z,3/4+x
163 1/4-y,1/4-x,1/2+z
164 1/2+y,x,z
165 1/4-x,1/4-z,1/2+y
166 1/2+x,z,y
167 1/4-z,1/4-y,1/2+x
168 1/2+z,y,x
169 1/4+x,1/4+y,-z
170 3/4+x,1/2-y,1/4+z
171 1/4+z,1/4+x,-y
172 3/4+z,1/2-x,1/4+y
173 3/4+y,1/2-z,1/4+x
174 1/4+y,1/4+z,-x
175 y,1/2+x,z
176 1/2+y,1/4-x,1/4-z
177 1/2+x,1/4-z,1/4-y
178 x,1/2+z,y
179 1/2+z,1/4-y,1/4-x
180 z,1/2+y,x
181 1/4+x,3/4+y,1/2-z
182 -x,1/4+y,1/4+z
183 -z,1/4+x,1/4+y
184 1/4+z,3/4+x,1/2-y
185 -y,1/4+z,1/4+x
186 1/4+y,3/4+z,1/2-x
187 y,x,1/2+z
188 1/4-y,1/2+x,1/4-z
189 x,z,1/2+y
190 1/4-x,1/2+z,1/4-y
191 1/4-z,1/2+y,1/4-x
192 z,y,1/2+x
_cell_length_a                   24.644(3)
_cell_length_b                   24.644(3)
_cell_length_c                   24.644(3)
_cell_angle_alpha                90
_cell_angle_beta                 90
_cell_angle_gamma                90
_cell_volume                     14967
loop_
_atom_site_label
_atom_site_type_symbol
_atom_site_fract_x
_atom_site_fract_y
_atom_site_fract_z
Cu1 Cu 0.806127(14) 0.5000 0.056127(14)
O1 O 0.7500 0.5000 0.0000
N1 N 0.77069(11) 0.43647(11) 0.08950(11)
N2 N 0.7500 0.36344(9) 0.13656(9)
C1 C 0.78168(13) 0.40778(13) 0.13304(13)
H1 H 0.8081 0.4170 0.1583
Cu1PA Cu 0.7500 0.556127(14) -0.056127(14)
Cu1FB Cu 0.693873(14) 0.443873(14) 0.0000
Cu1QF Cu 0.7500 0.306127(14) 0.193873(14)
Cu1FD Cu 0.943873(14) 0.693873(14) 0.0000
Cu1SF Cu 1.0000 0.443873(14) 0.193873(14)
Cu1MD Cu 0.943873(14) 0.556127(14) 0.2500
N1FB N 0.72931(11) 0.41050(11) 0.06353(11)
N1IA N 0.83950(11) 0.56353(11) 0.02069(11)
N1XB N 0.81353(11) 0.58950(11) -0.02069(11)
N1SF N 0.93647(11) 0.47931(11) 0.16050(11)
N1SD N 0.91050(11) 0.52069(11) 0.18647(11)
N1PA N 0.68647(11) 0.52069(11) -0.08950(11)
N1IC N 0.66050(11) 0.47931(11) -0.06353(11)
N2IA N 0.88656(9) 0.63656(9) 0.0000
N2SF N 0.86344(9) 0.5000 0.11344(9)
N2AF N 0.7500 0.61344(9) -0.11344(9)
N2BG N 0.63656(9) 0.38656(9) 0.0000
C1FB C 0.71832(13) 0.36696(13) 0.09222(13)
C1IA C 0.88304(13) 0.59222(13) 0.03168(13)
C1XB C 0.84222(13) 0.63304(13) -0.03168(13)
C1SF C 0.90778(13) 0.46832(13) 0.11696(13)
C1SD C 0.86696(13) 0.53168(13) 0.15778(13)
H1FB H 0.6919 0.3417 0.0830
H1IA H 0.9083 0.5830 0.0581
H1XB H 0.8330 0.6583 -0.0581
H1SF H 0.9170 0.4419 0.0917
H1SD H 0.8417 0.5581 0.1670
O2 O 0.7747(5) 0.4753(5) 0.2747(5)
O4 O 0.8612(6) 0.4317(10) 0.9999(9)
O3? O 0.8680(11) 0.4354(10) 0.9896(9)
loop_
_geom_bond_atom_site_label_1
_geom_bond_atom_site_label_2
_geom_bond_site_symmetry_1
_geom_bond_site_symmetry_2
Cu1 O1 1_555 1_555
O1 Cu1PA 1_555 1_555
N1 Cu1 1_555 1_555
N2 C1 1_555 1_555
C1 N1 1_555 1_555
H1 C1 1_555 1_555
Cu1PA N1XB 1_555 1_555
Cu1FB O1 1_555 1_555
Cu1QF N2 1_555 1_555
Cu1FD N2IA 1_555 1_555
Cu1SF N1SF 1_555 1_555
Cu1MD N1SD 1_555 1_555
N1FB N1 1_555 1_555
N1IA Cu1 1_555 1_555
N1XB N1IA 1_555 1_555
N1SF N1SD 1_555 1_555
N1SD C1SD 1_555 1_555
N1PA Cu1PA 1_555 1_555
N1IC Cu1FB 1_555 1_555
N2IA C1IA 1_555 1_555
N2SF Cu1 1_555 1_555
N2AF Cu1PA 1_555 1_555
N2BG Cu1FB 1_555 1_555
C1FB N2 1_555 1_555
C1IA N1IA 1_555 1_555
C1XB N1XB 1_555 1_555
C1SF N1SF 1_555 1_555
C1SD N2SF 1_555 1_555
H1FB C1FB 1_555 1_555
H1IA C1IA 1_555 1_555
H1XB C1XB 1_555 1_555
H1SF C1SF 1_555 1_555
H1SD C1SD 1_555 1_555
Cu1FB N1FB 1_555 1_555
N1FB C1FB 1_555 1_555
N1PA N1IC 1_555 1_555
N2IA C1XB 1_555 1_555
N2SF C1SF 1_555 1_555

#END
