
#######################################################################
#
#                 Cambridge Crystallographic Data Centre
#                                CCDC 
#
#######################################################################
#
# If this CIF has been generated from an entry in the Cambridge 
# Structural Database, then it will include bibliographic, chemical, 
# crystal, experimental, refinement or atomic coordinate data resulting 
# from the CCDC's data processing and validation procedures.
#
#######################################################################

data_YEVQUM
_symmetry_cell_setting           tetragonal
_symmetry_space_group_name_H-M   'I 41/a'
_symmetry_Int_Tables_number      88
_space_group_name_Hall           '-I 4ad'
loop_
_symmetry_equiv_pos_site_id
_symmetry_equiv_pos_as_xyz
1 x,y,z
2 3/4-y,1/4+x,1/4+z
3 1/2+x,1/2+y,1/2+z
4 1/4-y,3/4+x,3/4+z
5 1/4+y,1/4-x,1/4+z
6 1/2-x,-y,1/2+z
7 3/4+y,3/4-x,3/4+z
8 -x,1/2-y,z
9 -x,-y,-z
10 1/4+y,3/4-x,3/4-z
11 1/2-x,1/2-y,1/2-z
12 3/4+y,1/4-x,1/4-z
13 3/4-y,3/4+x,3/4-z
14 1/2+x,y,1/2-z
15 1/4-y,1/4+x,1/4-z
16 x,1/2+y,-z
_cell_length_a                   61.600(2)
_cell_length_b                   61.600(2)
_cell_length_c                   26.7475(13)
_cell_angle_alpha                90
_cell_angle_beta                 90
_cell_angle_gamma                90
_cell_volume                     101495
loop_
_atom_site_label
_atom_site_type_symbol
_atom_site_fract_x
_atom_site_fract_y
_atom_site_fract_z
Ag1 Ag 0.29150(2) -0.225362(17) 0.23293(4)
Ag2 Ag 0.23694(2) -0.215230(17) 0.24364(4)
Ag3 Ag 0.502110(19) -0.513840(18) 0.07902(4)
Ag4 Ag 0.734880(15) -0.400850(15) -0.50159(4)
Ag5 Ag 0.682340(15) -0.386360(15) -0.49430(4)
Ag6 Ag 0.698080(14) -0.419600(16) 0.41035(4)
Ag7 Ag 0.327830(17) -0.410900(17) -0.31315(4)
Ag8 Ag 0.315180(16) -0.464850(16) -0.31096(4)
Ag9 Ag 0.348420(16) -0.444950(17) -0.40085(4)
Ag10 Ag 0.775520(14) -0.112630(15) -0.41925(4)
Ag11 Ag 0.761230(15) -0.071880(15) -0.48984(4)
Ag12 Ag 0.737130(15) -0.122230(16) -0.51162(4)
Ag13 Ag 0.290780(14) -0.095130(16) 0.06128(4)
Ag14 Ag 0.309800(15) -0.131240(15) -0.01666(4)
Ag15 Ag 0.334910(14) -0.082390(15) -0.01653(4)
Ag16 Ag 0.556540(16) -0.403260(15) 0.28119(4)
Ag17 Ag 0.575110(17) -0.352350(16) 0.27823(4)
Ag18 Ag 0.539390(17) -0.366910(16) 0.18961(4)
Ag19 Ag 0.605720(15) -0.222480(15) -0.07006(4)
Ag20 Ag 0.574510(16) -0.238140(16) 0.02497(4)
Ag21 Ag 0.624650(16) -0.259390(16) 0.02027(4)
Ag22 Ag 0.418850(17) -0.187440(18) -0.21019(4)
Ag23 Ag 0.470260(17) -0.202950(18) -0.21634(4)
Ag24 Ag 0.454590(17) -0.171810(18) -0.11489(5)
Ag25 Ag 0.384870(17) -0.30896(2) -0.54987(5)
Ag26 Ag 0.414080(17) -0.301800(19) -0.44712(5)
Ag27 Ag 0.402720(17) -0.257250(18) -0.52413(4)
Ag28 Ag 0.727260(14) -0.232440(15) -0.25238(4)
Ag29 Ag 0.721980(14) -0.286860(15) -0.24496(3)
Ag30 Ag 0.743370(14) -0.263480(16) -0.35064(4)
N1 N 0.2759(2) -0.20562(19) 0.1811(4)
N2 N 0.2545(2) -0.2002(2) 0.1880(4)
N3 N 0.5225(2) -0.47090(17) 0.0552(4)
N4 N 0.51018(18) -0.48183(16) 0.0902(4)
N5 N 0.2967(2) -0.25264(18) -0.6766(5)
N6 N 0.3085(2) -0.24098(19) -0.7113(4)
N7 N 0.72588(15) -0.37750(16) -0.4505(4)
N8 N 0.70435(14) -0.37294(14) -0.4453(4)
N9 N 0.66076(16) -0.39609(16) 0.4508(4)
N10 N 0.66604(15) -0.41032(16) 0.4142(4)
N11 N 0.32609(15) 0.01892(16) 0.1504(4)
N12 N 0.33015(17) 0.00519(17) 0.1901(4)
N13 N 0.30625(19) -0.42241(18) -0.2603(4)
N14 N 0.30177(18) -0.44417(17) -0.2598(4)
N15 N 0.23545(18) -0.42371(17) -0.1167(4)
N16 N 0.22663(18) -0.41140(18) -0.1541(4)
N17 N 0.35587(17) -0.41270(18) -0.4037(4)
N18 N 0.34830(19) -0.3993(2) -0.3671(5)
N19 N 0.79208(15) -0.08415(15) -0.4094(4)
N20 N 0.78515(15) -0.06662(15) -0.4374(4)
N21 N 0.82587(15) -0.01284(16) -0.2917(4)
N22 N 0.84556(16) -0.02187(17) -0.3038(4)
N23 N 0.74455(17) -0.14643(17) -0.4601(4)
N24 N 0.75880(15) -0.14115(17) -0.4243(4)
N25 N 0.27916(16) -0.12632(17) 0.0676(4)
N26 N 0.28591(16) -0.14090(18) 0.0327(4)
N27 N 0.33766(16) -0.12682(16) -0.0569(4)
N28 N 0.34929(17) -0.10754(16) -0.0557(4)
N29 N 0.32197(14) -0.05933(16) 0.0311(4)
N30 N 0.30441(15) -0.06501(16) 0.0611(4)
N31 N 0.58066(16) -0.39448(16) 0.3317(4)
N32 N 0.58699(17) -0.37329(18) 0.3319(4)
N33 N 0.57038(17) -0.33188(17) 0.2174(4)
N34 N 0.55510(18) -0.3375(2) 0.1829(4)
N35 N 0.52825(17) -0.39876(17) 0.1887(4)
N36 N 0.53708(17) -0.41360(16) 0.2224(4)
N37 N 0.57424(17) -0.21096(17) -0.0683(4)
N38 N 0.56142(17) -0.21940(19) -0.0304(5)
N39 N 0.58325(17) -0.26119(16) 0.0773(4)
N40 N 0.60349(17) -0.27092(18) 0.0749(5)
N41 N 0.64344(16) -0.25114(17) -0.0407(4)
N42 N 0.63577(15) -0.23629(16) -0.0752(4)
N43 N 0.42820(19) -0.2074(2) -0.2686(5)
N44 N 0.44907(17) -0.21390(18) -0.2691(4)
N45 N 0.49203(16) -0.19473(18) -0.1618(4)
N46 N 0.48638(18) -0.1822(2) -0.1214(5)
N47 N 0.42230(15) -0.16319(17) -0.1112(4)
N48 N 0.40953(19) -0.16803(18) -0.1510(5)
N49 N 0.38567(18) -0.33324(19) -0.4973(5)
N50 N 0.39910(18) -0.3316(2) -0.4572(5)
N51 N 0.42383(17) -0.27125(18) -0.4287(4)
N52 N 0.41908(18) -0.25308(18) -0.4559(5)
N53 N 0.38125(17) -0.26192(19) -0.5830(4)
N54 N 0.37650(17) -0.2830(2) -0.5948(5)
N55 N 0.71397(15) -0.24541(15) -0.1889(4)
N56 N 0.70986(15) -0.26756(16) -0.1872(4)
N57 N 0.72952(15) -0.30571(16) -0.3070(4)
N58 N 0.73957(17) -0.29700(17) -0.3473(4)
N59 N 0.74172(15) -0.23005(16) -0.3589(4)
N60 N 0.73527(16) -0.21794(16) -0.3195(4)
C1 C 0.3080(2) -0.1946(3) 0.1344(6)
C2 C 0.2842(2) -0.1925(2) 0.1473(5)
C3 C 0.2694(2) -0.1775(2) 0.1320(5)
C4 C 0.2498(2) -0.1830(2) 0.1567(5)
C5 C 0.2286(2) -0.1733(2) 0.1551(6)
C6 C 0.5403(2) -0.4363(3) 0.0447(6)
C7 C 0.5273(2) -0.4514(2) 0.0744(5)
C8 C 0.5187(2) -0.4494(2) 0.1224(5)
C9 C 0.5083(2) -0.4691(2) 0.1304(5)
C10 C 0.4950(2) -0.4767(3) 0.1750(5)
C11 C 0.3027(3) -0.2743(3) -0.6012(6)
C12 C 0.3112(3) -0.2617(3) -0.6437(5)
C13 C 0.3318(2) -0.2560(2) -0.6567(5)
C14 C 0.3293(2) -0.2427(2) -0.6989(5)
C15 C 0.3465(3) -0.2314(2) -0.7305(6)
C16 C 0.76078(18) -0.3658(2) -0.4188(6)
C17 C 0.73737(18) -0.36343(19) -0.4220(4)
C18 C 0.72309(18) -0.34900(18) -0.3985(4)
C19 C 0.7027(2) -0.35562(19) -0.4152(5)
C20 C 0.6805(2) -0.3459(2) -0.4039(5)
C21 C 0.6305(2) -0.3719(3) 0.4758(6)
C22 C 0.64048(19) -0.3881(2) 0.4418(5)
C23 C 0.63260(18) -0.39719(17) 0.3980(5)
C24 C 0.6492(2) -0.4114(2) 0.3819(5)
C25 C 0.6508(2) -0.4258(2) 0.3373(5)
C26 C 0.3156(2) 0.0177(3) 0.0613(5)
C27 C 0.32060(18) 0.0074(2) 0.1098(5)
C28 C 0.32171(19) -0.01470(18) 0.1227(5)
C29 C 0.32770(19) -0.01552(18) 0.1717(5)
C30 C 0.3320(2) -0.0344(3) 0.2046(5)
C31 C 0.2938(2) -0.3886(2) -0.2245(6)
C32 C 0.2924(2) -0.4124(2) -0.2310(5)
C33 C 0.2787(2) -0.4270(2) -0.2087(5)
C34 C 0.2848(2) -0.44690(18) -0.2280(5)
C35 C 0.2759(2) -0.4692(2) -0.2191(5)
C36 C 0.2683(2) -0.4445(2) -0.0967(6)
C37 C 0.25499(18) -0.4304(2) -0.1298(5)
C38 C 0.25944(17) -0.4226(2) -0.1775(5)
C39 C 0.2411(2) -0.4105(2) -0.1906(4)
C40 C 0.2366(3) -0.3994(3) -0.2388(5)
C41 C 0.3765(2) -0.4100(2) -0.4818(5)
C42 C 0.36690(19) -0.4008(2) -0.4361(4)
C43 C 0.3669(2) -0.3785(2) -0.4211(5)
C44 C 0.3549(2) -0.3790(3) -0.3764(5)
C45 C 0.3489(3) -0.3601(3) -0.3445(7)
C46 C 0.8159(2) -0.0921(2) -0.3375(5)
C47 C 0.80576(18) -0.07676(18) -0.3750(5)
C48 C 0.8081(2) -0.0545(2) -0.3799(4)
C49 C 0.7948(2) -0.04870(19) -0.4206(4)
C50 C 0.79040(19) -0.0275(2) -0.4437(5)
C51 C 0.7870(2) -0.0179(3) -0.3109(6)
C52 C 0.81020(18) -0.0232(2) -0.3181(5)
C53 C 0.8198(2) -0.0395(2) -0.3472(5)
C54 C 0.8422(2) -0.03805(17) -0.3376(5)
C55 C 0.8601(2) -0.0508(2) -0.3580(6)
C56 C 0.7224(3) -0.1773(3) -0.4895(7)
C57 C 0.7371(2) -0.1670(2) -0.4523(5)
C58 C 0.7467(2) -0.1746(2) -0.4079(5)
C59 C 0.7606(2) -0.1580(2) -0.3931(5)
C60 C 0.7755(2) -0.1579(2) -0.3481(5)
C61 C 0.2627(2) -0.1252(3) 0.1529(5)
C62 C 0.27090(19) -0.1370(2) 0.1077(5)
C63 C 0.2724(2) -0.15930(19) 0.0968(5)
C64 C 0.2819(2) -0.1610(2) 0.0494(4)
C65 C 0.28790(19) -0.1802(2) 0.0185(5)
C66 C 0.3433(2) -0.1656(3) -0.0762(7)
C67 C 0.3511(2) -0.1421(2) -0.0716(5)
C68 C 0.3717(2) -0.13440(18) -0.0809(5)
C69 C 0.37012(18) -0.11209(17) -0.0693(5)
C70 C 0.3871(2) -0.0950(2) -0.0706(6)
C71 C 0.3488(2) -0.0303(2) 0.0211(6)
C72 C 0.33020(18) -0.0405(2) 0.0475(5)
C73 C 0.31776(19) -0.03362(19) 0.0897(5)
C74 C 0.3024(2) -0.0493(2) 0.0954(5)
C75 C 0.2850(2) -0.0512(2) 0.1346(6)
C76 C 0.59370(19) -0.4302(2) 0.3637(5)
C77 C 0.5961(2) -0.40640(17) 0.3568(4)
C78 C 0.6128(2) -0.39240(19) 0.3716(5)
C79 C 0.6061(2) -0.3719(2) 0.3560(5)
C80 C 0.6177(2) -0.3505(2) 0.3594(6)
C81 C 0.5998(2) -0.3062(2) 0.2318(6)
C82 C 0.58151(19) -0.31565(19) 0.1996(6)
C83 C 0.5742(2) -0.3096(2) 0.1532(5)
C84 C 0.5573(2) -0.3243(2) 0.1432(5)
C85 C 0.5434(3) -0.3259(3) 0.0981(5)
C86 C 0.5096(2) -0.3979(2) 0.1070(5)
C87 C 0.5201(2) -0.40970(19) 0.1497(4)
C88 C 0.5232(2) -0.4315(2) 0.1583(5)
C89 C 0.5337(2) -0.4328(2) 0.2038(5)
C90 C 0.5412(2) -0.4522(2) 0.2331(5)
C91 C 0.5705(2) -0.1897(2) -0.1457(5)
C92 C 0.5612(2) -0.1996(2) -0.1009(5)
C93 C 0.53980(18) -0.2015(2) -0.0849(5)
C94 C 0.54130(18) -0.2137(2) -0.0407(5)
C95 C 0.5231(3) -0.2217(3) -0.0079(6)
C96 C 0.5481(2) -0.2672(3) 0.1150(7)
C97 C 0.5711(2) -0.2739(2) 0.1055(5)
C98 C 0.5820(2) -0.29144(19) 0.1224(5)
C99 C 0.6030(2) -0.2890(2) 0.1015(5)
C100 C 0.6220(2) -0.3037(3) 0.1048(6)
C101 C 0.6763(2) -0.2724(2) -0.0235(5)
C102 C 0.66323(19) -0.2574(2) -0.0559(4)
C103 C 0.66854(18) -0.24823(18) -0.1010(4)
C104 C 0.6507(2) -0.23481(18) -0.1122(4)
C105 C 0.6455(2) -0.2207(2) -0.1570(5)
C106 C 0.3941(2) -0.2119(3) -0.3182(6)
C107 C 0.41800(19) -0.2158(2) -0.3082(5)
C108 C 0.4327(2) -0.2285(2) -0.3367(5)
C109 C 0.4523(2) -0.2264(2) -0.3096(5)
C110 C 0.4739(2) -0.2361(2) -0.3199(5)
C111 C 0.5225(2) -0.2173(3) -0.1922(6)
C112 C 0.5121(2) -0.2021(2) -0.1547(5)
C113 C 0.5200(2) -0.1946(2) -0.1094(5)
C114 C 0.5032(2) -0.1822(2) -0.0901(5)
C115 C 0.5016(2) -0.1691(3) -0.0435(7)
C116 C 0.4199(2) -0.1437(3) -0.0313(6)
C117 C 0.4109(2) -0.1501(2) -0.0801(6)
C118 C 0.3905(2) -0.1465(2) -0.0999(5)
C119 C 0.39026(19) -0.1583(2) -0.1448(5)
C120 C 0.3727(2) -0.1612(3) -0.1843(6)
C121 C 0.3563(3) -0.3574(3) -0.5293(6)
C122 C 0.3731(2) -0.3507(3) -0.4907(5)
C123 C 0.37770(19) -0.3600(2) -0.4460(5)
C124 C 0.3939(2) -0.3476(3) -0.4247(6)
C125 C 0.4053(3) -0.3497(3) -0.3757(7)
C126 C 0.4360(2) -0.2794(3) -0.3435(7)
C127 C 0.4301(2) -0.2641(2) -0.3823(6)
C128 C 0.4287(2) -0.2416(2) -0.3812(5)
C129 C 0.4218(2) -0.2354(2) -0.4288(6)
C130 C 0.4173(2) -0.2133(3) -0.4489(6)
C131 C 0.3681(2) -0.2253(3) -0.5988(7)
C132 C 0.3671(2) -0.2494(2) -0.6053(5)
C133 C 0.3518(2) -0.2619(2) -0.6306(5)
C134 C 0.3587(2) -0.2831(3) -0.6235(6)
C135 C 0.3491(2) -0.3036(3) -0.6431(6)
C136 C 0.70050(18) -0.2117(2) -0.1498(5)
C137 C 0.7001(2) -0.23570(19) -0.1569(5)
C138 C 0.68731(18) -0.25152(19) -0.1334(4)
C139 C 0.69416(17) -0.27080(19) -0.1537(4)
C140 C 0.68650(18) -0.2936(2) -0.1443(4)
C141 C 0.7103(2) -0.3398(2) -0.2837(5)
C142 C 0.72240(19) -0.3255(2) -0.3193(4)
C143 C 0.72866(16) -0.32974(17) -0.3695(5)
C144 C 0.7393(2) -0.3111(2) -0.3843(5)
C145 C 0.7490(2) -0.3058(3) -0.4346(6)
C146 C 0.7551(2) -0.2249(2) -0.4448(5)
C147 C 0.74630(19) -0.2164(2) -0.3970(5)
C148 C 0.7429(2) -0.1950(2) -0.3810(5)
C149 C 0.73625(18) -0.19700(19) -0.3326(5)
C150 C 0.7289(2) -0.1799(3) -0.2955(6)
H1 H 0.3142 -0.2071 0.1522
H2 H 0.3157 -0.1814 0.1444
H3 H 0.3096 -0.1967 0.0983
H4 H 0.2189 -0.1811 0.1779
H5 H 0.2228 -0.1742 0.1210
H6 H 0.2296 -0.1581 0.1654
H7 H 0.5435 -0.4428 0.0121
H8 H 0.5540 -0.4332 0.0623
H9 H 0.5323 -0.4227 0.0398
H10 H 0.4897 -0.4915 0.1687
H11 H 0.4826 -0.4670 0.1798
H12 H 0.5040 -0.4767 0.2050
H13 H 0.2868 -0.2750 -0.6034
H14 H 0.3068 -0.2672 -0.5699
H15 H 0.3087 -0.2890 -0.6021
H16 H 0.3394 -0.2234 -0.7577
H17 H 0.3564 -0.2422 -0.7445
H18 H 0.3547 -0.2212 -0.7095
H19 H 0.7655 -0.3779 -0.4401
H20 H 0.7649 -0.3687 -0.3841
H21 H 0.7678 -0.3524 -0.4300
H22 H 0.6693 -0.3544 -0.4207
H23 H 0.6801 -0.3309 -0.4161
H24 H 0.6780 -0.3461 -0.3678
H25 H 0.6405 -0.3688 0.5035
H26 H 0.6169 -0.3777 0.4892
H27 H 0.6276 -0.3585 0.4574
H28 H 0.6647 -0.4336 0.3378
H29 H 0.6498 -0.4171 0.3068
H30 H 0.6388 -0.4364 0.3378
H31 H 0.3160 0.0335 0.0649
H32 H 0.3012 0.0132 0.0502
H33 H 0.3265 0.0132 0.0365
H34 H 0.3360 -0.0293 0.2380
H35 H 0.3440 -0.0430 0.1907
H36 H 0.3189 -0.0434 0.2067
H37 H 0.3054 -0.3828 -0.2457
H38 H 0.2799 -0.3820 -0.2340
H39 H 0.2969 -0.3853 -0.1894
H40 H 0.2842 -0.4798 -0.2385
H41 H 0.2769 -0.4727 -0.1834
H42 H 0.2606 -0.4697 -0.2294
H43 H 0.2605 -0.4472 -0.0655
H44 H 0.2712 -0.4583 -0.1136
H45 H 0.2821 -0.4372 -0.0893
H46 H 0.2225 -0.3921 -0.2370
H47 H 0.2480 -0.3887 -0.2454
H48 H 0.2363 -0.4102 -0.2659
H49 H 0.3739 -0.4256 -0.4826
H50 H 0.3697 -0.4032 -0.5112
H51 H 0.3921 -0.4072 -0.4822
H52 H 0.3403 -0.3651 -0.3160
H53 H 0.3621 -0.3530 -0.3323
H54 H 0.3404 -0.3497 -0.3643
H55 H 0.8111 -0.1069 -0.3444
H56 H 0.8317 -0.0913 -0.3402
H57 H 0.8115 -0.0879 -0.3037
H58 H 0.7803 -0.0293 -0.4717
H59 H 0.7839 -0.0177 -0.4188
H60 H 0.8040 -0.0212 -0.4558
H61 H 0.7856 -0.0056 -0.2878
H62 H 0.7805 -0.0140 -0.3431
H63 H 0.7794 -0.0305 -0.2969
H64 H 0.8738 -0.0458 -0.3433
H65 H 0.8579 -0.0661 -0.3501
H66 H 0.8606 -0.0489 -0.3944
H67 H 0.7191 -0.1669 -0.5161
H68 H 0.7295 -0.1901 -0.5039
H69 H 0.7089 -0.1818 -0.4729
H70 H 0.7834 -0.1441 -0.3469
H71 H 0.7669 -0.1596 -0.3176
H72 H 0.7859 -0.1699 -0.3508
H73 H 0.2637 -0.1095 0.1473
H74 H 0.2715 -0.1291 0.1820
H75 H 0.2475 -0.1292 0.1591
H76 H 0.2944 -0.1753 -0.0130
H77 H 0.2749 -0.1888 0.0114
H78 H 0.2984 -0.1892 0.0368
H79 H 0.3277 -0.1663 -0.0683
H80 H 0.3514 -0.1748 -0.0529
H81 H 0.3456 -0.1707 -0.1105
H82 H 0.3807 -0.0811 -0.0607
H83 H 0.3929 -0.0939 -0.1046
H84 H 0.3988 -0.0988 -0.0475
H85 H 0.3534 -0.0397 -0.0066
H86 H 0.3609 -0.0283 0.0444
H87 H 0.3444 -0.0162 0.0078
H88 H 0.2765 -0.0644 0.1286
H89 H 0.2755 -0.0385 0.1330
H90 H 0.2917 -0.0520 0.1677
H91 H 0.5800 -0.4350 0.3487
H92 H 0.5936 -0.4336 0.3995
H93 H 0.6058 -0.4377 0.3475
H94 H 0.6086 -0.3391 0.3445
H95 H 0.6315 -0.3513 0.3414
H96 H 0.6204 -0.3470 0.3946
H97 H 0.6007 -0.3143 0.2632
H98 H 0.5967 -0.2909 0.2390
H99 H 0.6136 -0.3073 0.2138
H100 H 0.5329 -0.3377 0.1025
H101 H 0.5525 -0.3289 0.0688
H102 H 0.5356 -0.3121 0.0931
H103 H 0.5101 -0.3823 0.1131
H104 H 0.4944 -0.4026 0.1039
H105 H 0.5173 -0.4013 0.0759
H106 H 0.5479 -0.4474 0.2644
H107 H 0.5519 -0.4604 0.2134
H108 H 0.5287 -0.4615 0.2405
H109 H 0.5863 -0.1916 -0.1455
H110 H 0.5644 -0.1966 -0.1755
H111 H 0.5670 -0.1741 -0.1460
H112 H 0.5292 -0.2296 0.0207
H113 H 0.5147 -0.2093 0.0042
H114 H 0.5137 -0.2314 -0.0271
H115 H 0.5452 -0.2534 0.0979
H116 H 0.5383 -0.2784 0.1021
H117 H 0.5458 -0.2655 0.1510
H118 H 0.6342 -0.2974 0.0864
H119 H 0.6260 -0.3056 0.1400
H120 H 0.6182 -0.3178 0.0903
H121 H 0.6679 -0.2763 0.0063
H122 H 0.6798 -0.2856 -0.0423
H123 H 0.6898 -0.2652 -0.0133
H124 H 0.6313 -0.2138 -0.1521
H125 H 0.6567 -0.2096 -0.1608
H126 H 0.6450 -0.2298 -0.1872
H127 H 0.3881 -0.2025 -0.2920
H128 H 0.3924 -0.2048 -0.3508
H129 H 0.3864 -0.2258 -0.3184
H130 H 0.4841 -0.2319 -0.2934
H131 H 0.4727 -0.2520 -0.3208
H132 H 0.4793 -0.2309 -0.3522
H133 H 0.5128 -0.2193 -0.2208
H134 H 0.5363 -0.2111 -0.2036
H135 H 0.5252 -0.2314 -0.1763
H136 H 0.4873 -0.1623 -0.0415
H137 H 0.5037 -0.1786 -0.0144
H138 H 0.5128 -0.1578 -0.0437
H139 H 0.4349 -0.1488 -0.0286
H140 H 0.4195 -0.1279 -0.0282
H141 H 0.4111 -0.1502 -0.0045
H142 H 0.3783 -0.1703 -0.2114
H143 H 0.3600 -0.1681 -0.1693
H144 H 0.3687 -0.1470 -0.1978
H145 H 0.3568 -0.3474 -0.5577
H146 H 0.3418 -0.3571 -0.5141
H147 H 0.3595 -0.3722 -0.5409
H148 H 0.4163 -0.3383 -0.3727
H149 H 0.4123 -0.3640 -0.3737
H150 H 0.3948 -0.3482 -0.3485
H151 H 0.4350 -0.2942 -0.3566
H152 H 0.4261 -0.2778 -0.3151
H153 H 0.4509 -0.2765 -0.3325
H154 H 0.4126 -0.2145 -0.4839
H155 H 0.4305 -0.2045 -0.4471
H156 H 0.4057 -0.2065 -0.4291
H157 H 0.3807 -0.2215 -0.5785
H158 H 0.3548 -0.2203 -0.5819
H159 H 0.3692 -0.2184 -0.6316
H160 H 0.3577 -0.3160 -0.6312
H161 H 0.3493 -0.3033 -0.6797
H162 H 0.3341 -0.3050 -0.6312
H163 H 0.7116 -0.2053 -0.1717
H164 H 0.7040 -0.2083 -0.1149
H165 H 0.6862 -0.2056 -0.1582
H166 H 0.6949 -0.3037 -0.1651
H167 H 0.6711 -0.2948 -0.1529
H168 H 0.6885 -0.2973 -0.1090
H169 H 0.7087 -0.3324 -0.2516
H170 H 0.7184 -0.3533 -0.2789
H171 H 0.6960 -0.3431 -0.2975
H172 H 0.7555 -0.2913 -0.4334
H173 H 0.7376 -0.3062 -0.4601
H174 H 0.7602 -0.3165 -0.4428
H175 H 0.7552 -0.2408 -0.4439
H176 H 0.7700 -0.2195 -0.4495
H177 H 0.7460 -0.2199 -0.4725
H178 H 0.7251 -0.1868 -0.2638
H179 H 0.7163 -0.1722 -0.3089
H180 H 0.7408 -0.1695 -0.2898
Ag1_2 Ag 0.29150(2) -0.225362(17) -0.76707(4)
Ag2F Ag 0.534770(17) -0.48694(2) -0.00636(4)
Ag3A Ag 0.263840(18) -0.247890(19) -0.67098(4)
Ag4F Ag 0.349150(15) 0.015120(15) 0.24841(4)
Ag5_2 Ag 0.682340(15) -0.386360(15) 0.50570(4)
Ag6F Ag 0.330400(16) 0.051920(14) 0.16035(4)
Ag8A Ag 0.214850(16) -0.434820(16) -0.06096(4)
Ag9A Ag 0.194950(17) -0.401580(16) -0.15085(4)
Ag11A Ag 0.821880(15) 0.011230(15) -0.23984(4)
Ag12A Ag 0.872230(16) -0.012870(15) -0.26162(4)
N3A N 0.22090(17) -0.2275(2) 0.3052(4)
N5F N 0.49736(18) -0.5467(2) 0.0734(5)
N6_2 N 0.3085(2) -0.24098(19) 0.2887(4)
N9_2 N 0.66076(16) -0.39609(16) -0.5492(4)
N11A N 0.73108(16) -0.42391(15) 0.4004(4)
N12A N 0.74481(17) -0.41985(17) -0.5599(4)
N15F N 0.32629(17) -0.48545(18) -0.3667(4)
N16F N 0.33860(18) -0.47663(18) -0.4041(4)
N21F N 0.73716(16) -0.07587(15) -0.5417(4)
N22F N 0.72813(17) -0.09556(16) -0.5538(4)
C151 C 0.2207(5) -0.1451(5) 0.3812(11)
C152 C 0.2223(4) -0.1679(4) 0.3642(10)
C153 C 0.2377(4) -0.1805(4) 0.3780(9)
C154 C 0.2533(4) -0.1746(4) 0.4134(9)
C155 C 0.2524(4) -0.1535(4) 0.4336(10)
C156 C 0.2368(4) -0.1399(4) 0.4142(10)
H181 H 0.2098 -0.1353 0.3704
H182 H 0.2115 -0.1734 0.3423
H183 H 0.2387 -0.1945 0.3634
H184 H 0.2641 -0.1846 0.4237
H185 H 0.2620 -0.1489 0.4592
H186 H 0.2372 -0.1252 0.4251
C157 C 0.3096(5) -0.1276(5) 0.3107(10)
C158 C 0.3241(5) -0.1393(5) 0.2798(11)
C159 C 0.3084(5) -0.1548(5) 0.2516(11)
C160 C 0.2873(5) -0.1572(5) 0.2676(10)
C161 C 0.2750(4) -0.1446(4) 0.3000(10)
C162 C 0.2884(5) -0.1292(4) 0.3241(10)
H187 H 0.3165 -0.1155 0.3260
H188 H 0.3395 -0.1381 0.2770
H189 H 0.3134 -0.1625 0.2231
H190 H 0.2801 -0.1696 0.2543
H191 H 0.2598 -0.1462 0.3052
H192 H 0.2827 -0.1201 0.3494
C163 C 0.3012(5) -0.2117(5) 0.4359(12)
C164 C 0.3042(5) -0.1959(5) 0.4790(13)
C165 C 0.3089(5) -0.1757(5) 0.4669(12)
C166 C 0.3159(4) -0.1676(5) 0.4219(11)
C167 C 0.3122(4) -0.1835(4) 0.3841(11)
C168 C 0.3072(4) -0.2035(5) 0.3939(11)
H193 H 0.2955 -0.2259 0.4395
H194 H 0.3028 -0.2003 0.5129
H195 H 0.3072 -0.1654 0.4929
H196 H 0.3222 -0.1537 0.4168
H197 H 0.3134 -0.1793 0.3501
H198 H 0.3081 -0.2133 0.3667
C169 C 0.3369(5) -0.0397(5) 0.6666(11)
C170 C 0.3160(5) -0.0449(4) 0.6850(10)
C171 C 0.2969(4) -0.0357(4) 0.6707(9)
C172 C 0.2954(5) -0.0194(5) 0.6337(11)
C173 C 0.3160(4) -0.0144(4) 0.6152(10)
C174 C 0.3345(4) -0.0234(4) 0.6290(10)
H199 H 0.3502 -0.0459 0.6774
H200 H 0.3153 -0.0559 0.7098
H201 H 0.2840 -0.0405 0.6864
H202 H 0.2822 -0.0128 0.6229
H203 H 0.3168 -0.0034 0.5903
H204 H 0.3473 -0.0186 0.6125
C175 C 0.3529(4) 0.1109(4) 0.8335(10)
C176 C 0.3465(4) 0.0977(4) 0.8685(9)
C177 C 0.3580(4) 0.0814(4) 0.8943(10)
C178 C 0.3794(4) 0.0812(4) 0.8719(10)
C179 C 0.3884(4) 0.0926(4) 0.8371(10)
C180 C 0.3745(4) 0.1074(4) 0.8161(10)
H205 H 0.3439 0.1220 0.8205
H206 H 0.3318 0.0993 0.8782
H207 H 0.3528 0.0725 0.9207
H208 H 0.3888 0.0705 0.8857
H209 H 0.4031 0.0909 0.8270
H210 H 0.3795 0.1157 0.7885
C181 C 0.3419(5) 0.1645(5) 0.9098(11)
C182 C 0.3374(5) 0.1507(5) 0.9506(12)
C183 C 0.3549(5) 0.1386(5) 0.9669(11)
C184 C 0.3741(4) 0.1403(4) 0.9432(10)
C185 C 0.3780(4) 0.1525(4) 0.9018(10)
C186 C 0.3593(5) 0.1660(5) 0.8896(11)
H211 H 0.3304 0.1732 0.8973
H212 H 0.3234 0.1498 0.9657
H213 H 0.3534 0.1291 0.9946
H214 H 0.3859 0.1324 0.9567
H215 H 0.3912 0.1522 0.8833
H216 H 0.3610 0.1766 0.8642
C187 C 0.4125(4) 0.2833(4) 1.0634(10)
C188 C 0.4156(5) 0.2739(4) 1.1063(11)
C189 C 0.4356(4) 0.2689(4) 1.1150(10)
C190 C 0.4565(5) 0.2721(4) 1.0838(10)
C191 C 0.4520(5) 0.2834(4) 1.0353(11)
C192 C 0.4289(5) 0.2904(5) 1.0251(11)
H217 H 0.3978 0.2861 1.0551
H218 H 0.4042 0.2709 1.1291
H219 H 0.4380 0.2621 1.1464
H220 H 0.4705 0.2674 1.0940
H221 H 0.4632 0.2860 1.0118
H222 H 0.4250 0.2987 0.9965
C193 C 0.4312(4) 0.3781(4) 1.5132(10)
C194 C 0.4270(4) 0.3990(4) 1.5121(10)
C195 C 0.4404(4) 0.4107(5) 1.4689(10)
C196 C 0.4526(4) 0.3961(5) 1.4417(11)
C197 C 0.4529(5) 0.3755(5) 1.4512(12)
C198 C 0.4423(4) 0.3636(5) 1.4896(10)
H223 H 0.4236 0.3715 1.5401
H224 H 0.4172 0.4062 1.5341
H225 H 0.4401 0.4259 1.4627
H226 H 0.4611 0.4015 1.4147
H227 H 0.4615 0.3670 1.4291
H228 H 0.4432 0.3485 1.4964
C199 C 0.5455(4) 0.4195(4) 1.4395(10)
C200 C 0.5315(4) 0.4310(4) 1.4114(10)
C201 C 0.5092(4) 0.4325(4) 1.4282(10)
C202 C 0.5051(4) 0.4222(4) 1.4710(9)
C203 C 0.5200(4) 0.4115(4) 1.4957(10)
C204 C 0.5416(4) 0.4094(4) 1.4827(10)
H229 H 0.5599 0.4185 1.4271
H230 H 0.5361 0.4379 1.3815
H231 H 0.4984 0.4403 1.4102
H232 H 0.4907 0.4226 1.4841
H233 H 0.5155 0.4045 1.5256
H234 H 0.5522 0.4018 1.5018
C205 C 0.4512(3) 0.4254(4) 1.3283(8)
C206 C 0.4536(4) 0.4072(4) 1.2980(9)
C207 C 0.4727(5) 0.4042(3) 1.2711(8)
C208 C 0.4893(3) 0.4194(4) 1.2745(9)
C209 C 0.4869(3) 0.4376(4) 1.3048(9)
C210 C 0.4678(4) 0.4406(3) 1.3317(8)
H235 H 0.4381 0.4275 1.3467
H236 H 0.4423 0.3969 1.2957
H237 H 0.4744 0.3918 1.2505
H238 H 0.5024 0.4174 1.2561
H239 H 0.4982 0.4480 1.3070
H240 H 0.4661 0.4530 1.3523
C211? C 0.5069(9) 0.3838(10) 1.339(2)
C212? C 0.4848(9) 0.3797(8) 1.3425(18)
C213? C 0.4706(7) 0.3899(9) 1.310(2)
C214? C 0.4785(11) 0.4041(9) 1.274(2)
C215? C 0.5007(12) 0.4081(9) 1.271(2)
C216? C 0.5149(8) 0.3980(11) 1.303(3)
H241? H 0.5166 0.3768 1.3619
H242? H 0.4793 0.3700 1.3671
H243? H 0.4554 0.3871 1.3117
H244? H 0.4688 0.4110 1.2511
H245? H 0.5061 0.4179 1.2460
H246? H 0.5300 0.4007 1.3014
loop_
_geom_bond_atom_site_label_1
_geom_bond_atom_site_label_2
_geom_bond_site_symmetry_1
_geom_bond_site_symmetry_2
Ag1 N1 1_555 1_555
Ag2 N2 1_555 1_555
Ag3 N4 1_555 1_555
Ag4 N7 1_555 1_555
Ag5 N8 1_555 1_555
Ag6 N10 1_555 1_555
Ag7 N13 1_555 1_555
Ag8 N14 1_555 1_555
Ag9 N17 1_555 1_555
Ag10 N19 1_555 1_555
Ag11 N20 1_555 1_555
Ag12 N23 1_555 1_555
Ag13 N25 1_555 1_555
Ag14 N26 1_555 1_555
Ag15 N28 1_555 1_555
Ag16 N31 1_555 1_555
Ag17 N32 1_555 1_555
Ag18 N34 1_555 1_555
Ag19 N37 1_555 1_555
Ag20 N38 1_555 1_555
Ag21 N40 1_555 1_555
Ag22 N43 1_555 1_555
Ag23 N44 1_555 1_555
Ag24 N46 1_555 1_555
Ag25 N49 1_555 1_555
Ag26 N50 1_555 1_555
Ag27 N52 1_555 1_555
Ag28 N55 1_555 1_555
Ag29 N56 1_555 1_555
Ag30 N58 1_555 1_555
N1 N2 1_555 1_555
N2 C4 1_555 1_555
N3 N4 1_555 1_555
N4 C9 1_555 1_555
N5 N6 1_555 1_555
N6 C14 1_555 1_555
N7 N8 1_555 1_555
N8 C19 1_555 1_555
N9 N10 1_555 1_555
N10 C24 1_555 1_555
N11 N12 1_555 1_555
N12 C29 1_555 1_555
N13 N14 1_555 1_555
N14 C34 1_555 1_555
N15 N16 1_555 1_555
N16 C39 1_555 1_555
N17 N18 1_555 1_555
N18 Ag7 1_555 1_555
N19 N20 1_555 1_555
N20 C49 1_555 1_555
N21 N22 1_555 1_555
N22 C54 1_555 1_555
N23 N24 1_555 1_555
N24 Ag10 1_555 1_555
N25 N26 1_555 1_555
N26 C64 1_555 1_555
N27 Ag14 1_555 1_555
N28 N27 1_555 1_555
N29 Ag15 1_555 1_555
N30 Ag13 1_555 1_555
N31 N32 1_555 1_555
N32 C79 1_555 1_555
N33 Ag17 1_555 1_555
N34 N33 1_555 1_555
N35 Ag18 1_555 1_555
N36 Ag16 1_555 1_555
N37 N38 1_555 1_555
N38 C94 1_555 1_555
N39 Ag20 1_555 1_555
N40 N39 1_555 1_555
N41 Ag21 1_555 1_555
N42 Ag19 1_555 1_555
N43 N44 1_555 1_555
N44 C109 1_555 1_555
N45 Ag23 1_555 1_555
N46 N45 1_555 1_555
N47 Ag24 1_555 1_555
N48 Ag22 1_555 1_555
N49 N50 1_555 1_555
N50 C124 1_555 1_555
N51 Ag26 1_555 1_555
N52 N51 1_555 1_555
N53 Ag27 1_555 1_555
N54 Ag25 1_555 1_555
N55 N56 1_555 1_555
N56 C139 1_555 1_555
N57 Ag29 1_555 1_555
N58 N57 1_555 1_555
N59 Ag30 1_555 1_555
N60 Ag28 1_555 1_555
C1 C2 1_555 1_555
C2 N1 1_555 1_555
C3 C2 1_555 1_555
C4 C3 1_555 1_555
C5 C4 1_555 1_555
C6 C7 1_555 1_555
C7 N3 1_555 1_555
C8 C7 1_555 1_555
C9 C8 1_555 1_555
C10 C9 1_555 1_555
C11 C12 1_555 1_555
C12 N5 1_555 1_555
C13 C12 1_555 1_555
C14 C13 1_555 1_555
C15 C14 1_555 1_555
C16 C17 1_555 1_555
C17 N7 1_555 1_555
C18 C17 1_555 1_555
C19 C18 1_555 1_555
C20 C19 1_555 1_555
C21 C22 1_555 1_555
C22 N9 1_555 1_555
C23 C22 1_555 1_555
C24 C23 1_555 1_555
C25 C24 1_555 1_555
C26 C27 1_555 1_555
C27 N11 1_555 1_555
C28 C27 1_555 1_555
C29 C28 1_555 1_555
C30 C29 1_555 1_555
C31 C32 1_555 1_555
C32 N13 1_555 1_555
C33 C32 1_555 1_555
C34 C33 1_555 1_555
C35 C34 1_555 1_555
C36 C37 1_555 1_555
C37 N15 1_555 1_555
C38 C33 1_555 1_555
C39 C38 1_555 1_555
C40 C39 1_555 1_555
C41 C42 1_555 1_555
C42 N17 1_555 1_555
C43 C42 1_555 1_555
C44 N18 1_555 1_555
C45 C44 1_555 1_555
C46 C47 1_555 1_555
C47 N19 1_555 1_555
C48 C47 1_555 1_555
C49 C48 1_555 1_555
C50 C49 1_555 1_555
C51 C52 1_555 1_555
C52 N21 1_555 1_555
C53 C48 1_555 1_555
C54 C53 1_555 1_555
C55 C54 1_555 1_555
C56 C57 1_555 1_555
C57 N23 1_555 1_555
C58 C57 1_555 1_555
C59 N24 1_555 1_555
C60 C59 1_555 1_555
C61 C62 1_555 1_555
C62 N25 1_555 1_555
C63 C3 1_555 1_555
C64 C63 1_555 1_555
C65 C64 1_555 1_555
C66 C67 1_555 1_555
C67 N27 1_555 1_555
C68 C67 1_555 1_555
C69 N28 1_555 1_555
C70 C69 1_555 1_555
C71 C72 1_555 1_555
C72 N29 1_555 1_555
C73 C28 1_555 1_555
C74 N30 1_555 1_555
C75 C74 1_555 1_555
C76 C77 1_555 1_555
C77 N31 1_555 1_555
C78 C23 1_555 1_555
C79 C78 1_555 1_555
C80 C79 1_555 1_555
C81 C82 1_555 1_555
C82 N33 1_555 1_555
C83 C82 1_555 1_555
C84 N34 1_555 1_555
C85 C84 1_555 1_555
C86 C87 1_555 1_555
C87 N35 1_555 1_555
C88 C8 1_555 1_555
C89 N36 1_555 1_555
C90 C89 1_555 1_555
C91 C92 1_555 1_555
C92 N37 1_555 1_555
C93 C92 1_555 1_555
C94 C93 1_555 1_555
C95 C94 1_555 1_555
C96 C97 1_555 1_555
C97 N39 1_555 1_555
C98 C83 1_555 1_555
C99 N40 1_555 1_555
C100 C99 1_555 1_555
C101 C102 1_555 1_555
C102 N41 1_555 1_555
C103 C102 1_555 1_555
C104 N42 1_555 1_555
C105 C104 1_555 1_555
C106 C107 1_555 1_555
C107 N43 1_555 1_555
C108 C107 1_555 1_555
C109 C108 1_555 1_555
C110 C109 1_555 1_555
C111 C112 1_555 1_555
C112 N45 1_555 1_555
C113 C93 1_555 1_555
C114 N46 1_555 1_555
C115 C114 1_555 1_555
C116 C117 1_555 1_555
C117 N47 1_555 1_555
C118 C68 1_555 1_555
C119 N48 1_555 1_555
C120 C119 1_555 1_555
C121 C122 1_555 1_555
C122 N49 1_555 1_555
C123 C43 1_555 1_555
C124 C123 1_555 1_555
C125 C124 1_555 1_555
C126 C127 1_555 1_555
C127 N51 1_555 1_555
C128 C108 1_555 1_555
C129 N52 1_555 1_555
C130 C129 1_555 1_555
C131 C132 1_555 1_555
C132 N53 1_555 1_555
C133 C13 1_555 1_555
C134 N54 1_555 1_555
C135 C134 1_555 1_555
C136 C137 1_555 1_555
C137 N55 1_555 1_555
C138 C103 1_555 1_555
C139 C138 1_555 1_555
C140 C139 1_555 1_555
C141 C142 1_555 1_555
C142 N57 1_555 1_555
C143 C18 1_555 1_555
C144 N58 1_555 1_555
C145 C144 1_555 1_555
C146 C147 1_555 1_555
C147 N59 1_555 1_555
C148 C58 1_555 1_555
C149 N60 1_555 1_555
C150 C149 1_555 1_555
C151 C152 1_555 1_555
C152 C153 1_555 1_555
C153 C154 1_555 1_555
C154 C155 1_555 1_555
C155 C156 1_555 1_555
C156 C151 1_555 1_555
C157 C158 1_555 1_555
C158 C159 1_555 1_555
C159 C160 1_555 1_555
C160 C161 1_555 1_555
C161 C162 1_555 1_555
C162 C157 1_555 1_555
C163 C164 1_555 1_555
C164 C165 1_555 1_555
C165 C166 1_555 1_555
C166 C167 1_555 1_555
C167 C168 1_555 1_555
C168 C163 1_555 1_555
C169 C170 1_555 1_555
C170 C171 1_555 1_555
C171 C172 1_555 1_555
C172 C173 1_555 1_555
C173 C174 1_555 1_555
C174 C169 1_555 1_555
C175 C176 1_555 1_555
C176 C177 1_555 1_555
C177 C178 1_555 1_555
C178 C179 1_555 1_555
C179 C180 1_555 1_555
C180 C175 1_555 1_555
C181 C182 1_555 1_555
C182 C183 1_555 1_555
C183 C184 1_555 1_555
C184 C185 1_555 1_555
C185 C186 1_555 1_555
C186 C181 1_555 1_555
C187 C188 1_555 1_555
C188 C189 1_555 1_555
C189 C190 1_555 1_555
C190 C191 1_555 1_555
C191 C192 1_555 1_555
C192 C187 1_555 1_555
C193 C194 1_555 1_555
C194 C195 1_555 1_555
C195 C196 1_555 1_555
C196 C197 1_555 1_555
C197 C198 1_555 1_555
C198 C193 1_555 1_555
C199 C200 1_555 1_555
C200 C201 1_555 1_555
C201 C202 1_555 1_555
C202 C203 1_555 1_555
C203 C204 1_555 1_555
C204 C199 1_555 1_555
C205 C206 1_555 1_555
C206 C207 1_555 1_555
C207 C208 1_555 1_555
C208 C209 1_555 1_555
C209 C210 1_555 1_555
C210 C205 1_555 1_555
H1 C1 1_555 1_555
H2 C1 1_555 1_555
H3 C1 1_555 1_555
H4 C5 1_555 1_555
H5 C5 1_555 1_555
H6 C5 1_555 1_555
H7 C6 1_555 1_555
H8 C6 1_555 1_555
H9 C6 1_555 1_555
H10 C10 1_555 1_555
H11 C10 1_555 1_555
H12 C10 1_555 1_555
H13 C11 1_555 1_555
H14 C11 1_555 1_555
H15 C11 1_555 1_555
H16 C15 1_555 1_555
H17 C15 1_555 1_555
H18 C15 1_555 1_555
H19 C16 1_555 1_555
H20 C16 1_555 1_555
H21 C16 1_555 1_555
H22 C20 1_555 1_555
H23 C20 1_555 1_555
H24 C20 1_555 1_555
H25 C21 1_555 1_555
H26 C21 1_555 1_555
H27 C21 1_555 1_555
H28 C25 1_555 1_555
H29 C25 1_555 1_555
H30 C25 1_555 1_555
H31 C26 1_555 1_555
H32 C26 1_555 1_555
H33 C26 1_555 1_555
H34 C30 1_555 1_555
H35 C30 1_555 1_555
H36 C30 1_555 1_555
H37 C31 1_555 1_555
H38 C31 1_555 1_555
H39 C31 1_555 1_555
H40 C35 1_555 1_555
H41 C35 1_555 1_555
H42 C35 1_555 1_555
H43 C36 1_555 1_555
H44 C36 1_555 1_555
H45 C36 1_555 1_555
H46 C40 1_555 1_555
H47 C40 1_555 1_555
H48 C40 1_555 1_555
H49 C41 1_555 1_555
H50 C41 1_555 1_555
H51 C41 1_555 1_555
H52 C45 1_555 1_555
H53 C45 1_555 1_555
H54 C45 1_555 1_555
H55 C46 1_555 1_555
H56 C46 1_555 1_555
H57 C46 1_555 1_555
H58 C50 1_555 1_555
H59 C50 1_555 1_555
H60 C50 1_555 1_555
H61 C51 1_555 1_555
H62 C51 1_555 1_555
H63 C51 1_555 1_555
H64 C55 1_555 1_555
H65 C55 1_555 1_555
H66 C55 1_555 1_555
H67 C56 1_555 1_555
H68 C56 1_555 1_555
H69 C56 1_555 1_555
H70 C60 1_555 1_555
H71 C60 1_555 1_555
H72 C60 1_555 1_555
H73 C61 1_555 1_555
H74 C61 1_555 1_555
H75 C61 1_555 1_555
H76 C65 1_555 1_555
H77 C65 1_555 1_555
H78 C65 1_555 1_555
H79 C66 1_555 1_555
H80 C66 1_555 1_555
H81 C66 1_555 1_555
H82 C70 1_555 1_555
H83 C70 1_555 1_555
H84 C70 1_555 1_555
H85 C71 1_555 1_555
H86 C71 1_555 1_555
H87 C71 1_555 1_555
H88 C75 1_555 1_555
H89 C75 1_555 1_555
H90 C75 1_555 1_555
H91 C76 1_555 1_555
H92 C76 1_555 1_555
H93 C76 1_555 1_555
H94 C80 1_555 1_555
H95 C80 1_555 1_555
H96 C80 1_555 1_555
H97 C81 1_555 1_555
H98 C81 1_555 1_555
H99 C81 1_555 1_555
H100 C85 1_555 1_555
H101 C85 1_555 1_555
H102 C85 1_555 1_555
H103 C86 1_555 1_555
H104 C86 1_555 1_555
H105 C86 1_555 1_555
H106 C90 1_555 1_555
H107 C90 1_555 1_555
H108 C90 1_555 1_555
H109 C91 1_555 1_555
H110 C91 1_555 1_555
H111 C91 1_555 1_555
H112 C95 1_555 1_555
H113 C95 1_555 1_555
H114 C95 1_555 1_555
H115 C96 1_555 1_555
H116 C96 1_555 1_555
H117 C96 1_555 1_555
H118 C100 1_555 1_555
H119 C100 1_555 1_555
H120 C100 1_555 1_555
H121 C101 1_555 1_555
H122 C101 1_555 1_555
H123 C101 1_555 1_555
H124 C105 1_555 1_555
H125 C105 1_555 1_555
H126 C105 1_555 1_555
H127 C106 1_555 1_555
H128 C106 1_555 1_555
H129 C106 1_555 1_555
H130 C110 1_555 1_555
H131 C110 1_555 1_555
H132 C110 1_555 1_555
H133 C111 1_555 1_555
H134 C111 1_555 1_555
H135 C111 1_555 1_555
H136 C115 1_555 1_555
H137 C115 1_555 1_555
H138 C115 1_555 1_555
H139 C116 1_555 1_555
H140 C116 1_555 1_555
H141 C116 1_555 1_555
H142 C120 1_555 1_555
H143 C120 1_555 1_555
H144 C120 1_555 1_555
H145 C121 1_555 1_555
H146 C121 1_555 1_555
H147 C121 1_555 1_555
H148 C125 1_555 1_555
H149 C125 1_555 1_555
H150 C125 1_555 1_555
H151 C126 1_555 1_555
H152 C126 1_555 1_555
H153 C126 1_555 1_555
H154 C130 1_555 1_555
H155 C130 1_555 1_555
H156 C130 1_555 1_555
H157 C131 1_555 1_555
H158 C131 1_555 1_555
H159 C131 1_555 1_555
H160 C135 1_555 1_555
H161 C135 1_555 1_555
H162 C135 1_555 1_555
H163 C136 1_555 1_555
H164 C136 1_555 1_555
H165 C136 1_555 1_555
H166 C140 1_555 1_555
H167 C140 1_555 1_555
H168 C140 1_555 1_555
H169 C141 1_555 1_555
H170 C141 1_555 1_555
H171 C141 1_555 1_555
H172 C145 1_555 1_555
H173 C145 1_555 1_555
H174 C145 1_555 1_555
H175 C146 1_555 1_555
H176 C146 1_555 1_555
H177 C146 1_555 1_555
H178 C150 1_555 1_555
H179 C150 1_555 1_555
H180 C150 1_555 1_555
H181 C151 1_555 1_555
H182 C152 1_555 1_555
H183 C153 1_555 1_555
H184 C154 1_555 1_555
H185 C155 1_555 1_555
H186 C156 1_555 1_555
H187 C157 1_555 1_555
H188 C158 1_555 1_555
H189 C159 1_555 1_555
H190 C160 1_555 1_555
H191 C161 1_555 1_555
H192 C162 1_555 1_555
H193 C163 1_555 1_555
H194 C164 1_555 1_555
H195 C165 1_555 1_555
H196 C166 1_555 1_555
H197 C167 1_555 1_555
H198 C168 1_555 1_555
H199 C169 1_555 1_555
H200 C170 1_555 1_555
H201 C171 1_555 1_555
H202 C172 1_555 1_555
H203 C173 1_555 1_555
H204 C174 1_555 1_555
H205 C175 1_555 1_555
H206 C176 1_555 1_555
H207 C177 1_555 1_555
H208 C178 1_555 1_555
H209 C179 1_555 1_555
H210 C180 1_555 1_555
H211 C181 1_555 1_555
H212 C182 1_555 1_555
H213 C183 1_555 1_555
H214 C184 1_555 1_555
H215 C185 1_555 1_555
H216 C186 1_555 1_555
H217 C187 1_555 1_555
H218 C188 1_555 1_555
H219 C189 1_555 1_555
H220 C190 1_555 1_555
H221 C191 1_555 1_555
H222 C192 1_555 1_555
H223 C193 1_555 1_555
H224 C194 1_555 1_555
H225 C195 1_555 1_555
H226 C196 1_555 1_555
H227 C197 1_555 1_555
H228 C198 1_555 1_555
H229 C199 1_555 1_555
H230 C200 1_555 1_555
H231 C201 1_555 1_555
H232 C202 1_555 1_555
H233 C203 1_555 1_555
H234 C204 1_555 1_555
H235 C205 1_555 1_555
H236 C206 1_555 1_555
H237 C207 1_555 1_555
H238 C208 1_555 1_555
H239 C209 1_555 1_555
H240 C210 1_555 1_555
Ag1_2 N6 1_555 1_555
Ag2F N3 1_555 1_555
Ag3A N5 1_555 1_555
Ag4F N12 1_555 1_555
Ag5_2 N9 1_555 1_555
Ag6F N11 1_555 1_555
Ag8A N15 1_555 1_555
Ag9A N16 1_555 1_555
Ag11A N21 1_555 1_555
Ag12A N22 1_555 1_555
N3A Ag2 1_555 1_555
N5F Ag3 1_555 1_555
N6_2 Ag1 1_555 1_555
N9_2 Ag5 1_555 1_555
N11A Ag6 1_555 1_555
N12A Ag4 1_555 1_555
N15F Ag8 1_555 1_555
N16F Ag9 1_555 1_555
N21F Ag11 1_555 1_555
N22F Ag12 1_555 1_555
N29 N30 1_555 1_555
N35 N36 1_555 1_555
N41 N42 1_555 1_555
N47 N48 1_555 1_555
N53 N54 1_555 1_555
N59 N60 1_555 1_555
C37 C38 1_555 1_555
C43 C44 1_555 1_555
C52 C53 1_555 1_555
C58 C59 1_555 1_555
C62 C63 1_555 1_555
C68 C69 1_555 1_555
C72 C73 1_555 1_555
C73 C74 1_555 1_555
C77 C78 1_555 1_555
C83 C84 1_555 1_555
C87 C88 1_555 1_555
C88 C89 1_555 1_555
C97 C98 1_555 1_555
C98 C99 1_555 1_555
C103 C104 1_555 1_555
C112 C113 1_555 1_555
C113 C114 1_555 1_555
C117 C118 1_555 1_555
C118 C119 1_555 1_555
C122 C123 1_555 1_555
C127 C128 1_555 1_555
C128 C129 1_555 1_555
C132 C133 1_555 1_555
C133 C134 1_555 1_555
C137 C138 1_555 1_555
C142 C143 1_555 1_555
C143 C144 1_555 1_555
C147 C148 1_555 1_555
C148 C149 1_555 1_555
N15F N16F 1_555 1_555
N21F N22F 1_555 1_555

#END
