
#######################################################################
#
#                 Cambridge Crystallographic Data Centre
#                                CCDC 
#
#######################################################################
#
# If this CIF has been generated from an entry in the Cambridge 
# Structural Database, then it will include bibliographic, chemical, 
# crystal, experimental, refinement or atomic coordinate data resulting 
# from the CCDC's data processing and validation procedures.
#
#######################################################################

data_YINSIZ01
_symmetry_cell_setting           monoclinic
_symmetry_space_group_name_H-M   'C 2/m'
_symmetry_Int_Tables_number      12
_space_group_name_Hall           '-C 2y'
loop_
_symmetry_equiv_pos_site_id
_symmetry_equiv_pos_as_xyz
1 x,y,z
2 -x,y,-z
3 1/2+x,1/2+y,z
4 1/2-x,1/2+y,-z
5 -x,-y,-z
6 x,-y,z
7 1/2-x,1/2-y,-z
8 1/2+x,1/2-y,z
_cell_length_a                   19.8663(4)
_cell_length_b                   21.8289(3)
_cell_length_c                   11.6384(2)
_cell_angle_alpha                90
_cell_angle_beta                 116.935(3)
_cell_angle_gamma                90
_cell_volume                     4499.6
loop_
_atom_site_label
_atom_site_type_symbol
_atom_site_fract_x
_atom_site_fract_y
_atom_site_fract_z
Ni1 Ni 0.18726(2) 0.12247(2) 0.88181(3)
O1 O 0.18811(8) 0.12047(7) 0.69827(13)
O2 O 0.26616(7) 0.17834(6) 0.85829(12)
O3 O 0.26407(7) 0.05120(6) 0.93375(13)
O4 O 0.11478(7) 0.05128(6) 0.85927(12)
N1 N 0.21686(9) 0.13958(7) 0.07009(14)
N2 N 0.35900(9) 0.20764(8) 0.52682(15)
N3 N 0.59699(9) 0.31844(8) 0.81041(14)
C1 C 0.17089(11) 0.13173(10) 0.12453(19)
H1 H 0.1210 0.1175 0.0724
C2 C 0.19297(11) 0.14341(11) 0.25347(19)
H2 H 0.1584 0.1375 0.2882
C3 C 0.26531(11) 0.16371(9) 0.33142(17)
C4 C 0.31314(12) 0.17180(11) 0.27489(19)
H3 H 0.3634 0.1859 0.3248
C5 C 0.28692(11) 0.15917(10) 0.14549(19)
H4 H 0.3203 0.1647 0.1083
C6 C 0.29315(11) 0.17741(10) 0.47103(17)
C7 C 0.25381(11) 0.15946(10) 0.53931(18)
H5 H 0.2073 0.1380 0.4975
C8 C 0.28421(11) 0.17373(10) 0.66934(18)
C9 C 0.35327(11) 0.20371(10) 0.72858(18)
H6 H 0.3756 0.2131 0.8179
C10 C 0.38896(11) 0.21963(10) 0.65350(18)
C11 C 0.46158(11) 0.25314(10) 0.70838(18)
C12 C 0.51978(12) 0.23909(10) 0.82989(19)
H7 H 0.5139 0.2072 0.8802
C13 C 0.58616(11) 0.27230(9) 0.87583(18)
H8 H 0.6259 0.2619 0.9577
C14 C 0.54082(11) 0.33174(10) 0.69279(18)
H9 H 0.5479 0.3643 0.6453
C15 C 0.47345(12) 0.29993(11) 0.63865(18)
H10 H 0.4356 0.3099 0.5547
C16 C 0.24365(11) 0.15660(9) 0.74666(17)
C17 C 0.14624(14) 0.0000 0.8742(2)
C18 C 0.23249(14) 0.0000 0.9172(2)
O3E O 0.26407(7) -0.05120(6) 0.93375(13)
O4E O 0.11478(7) -0.05128(6) 0.85927(12)
Ni1E Ni 0.18726(2) -0.12247(2) 0.88181(3)
O1E O 0.18811(8) -0.12047(7) 0.69827(13)
O2E O 0.26616(7) -0.17834(6) 0.85829(12)
N1E N 0.21686(9) -0.13958(7) 0.07009(14)
N2E N 0.35900(9) -0.20764(8) 0.52682(15)
N3E N 0.59699(9) -0.31844(8) 0.81041(14)
C1E C 0.17089(11) -0.13173(10) 0.12453(19)
H1E H 0.1210 -0.1175 0.0724
C2E C 0.19297(11) -0.14341(11) 0.25347(19)
H2E H 0.1584 -0.1375 0.2882
C3E C 0.26531(11) -0.16371(9) 0.33142(17)
C4E C 0.31314(12) -0.17180(11) 0.27489(19)
H3E H 0.3634 -0.1859 0.3248
C5E C 0.28692(11) -0.15917(10) 0.14549(19)
H4E H 0.3203 -0.1647 0.1083
C6E C 0.29315(11) -0.17741(10) 0.47103(17)
C7E C 0.25381(11) -0.15946(10) 0.53931(18)
H5E H 0.2073 -0.1380 0.4975
C8E C 0.28421(11) -0.17373(10) 0.66934(18)
C9E C 0.35327(11) -0.20371(10) 0.72858(18)
H6E H 0.3756 -0.2131 0.8179
C10E C 0.38896(11) -0.21963(10) 0.65350(18)
C11E C 0.46158(11) -0.25314(10) 0.70838(18)
C12E C 0.51978(12) -0.23909(10) 0.82989(19)
H7E H 0.5139 -0.2072 0.8802
C13E C 0.58616(11) -0.27230(9) 0.87583(18)
H8E H 0.6259 -0.2619 0.9577
C14E C 0.54082(11) -0.33174(10) 0.69279(18)
H9E H 0.5479 -0.3643 0.6453
C15E C 0.47345(12) -0.29993(11) 0.63865(18)
H10E H 0.4356 -0.3099 0.5547
C16E C 0.24365(11) -0.15660(9) 0.74666(17)
Ni1_2 Ni 0.18726(2) 0.12247(2) -0.11819(3)
Ni1B Ni 0.68726(2) -0.37753(2) 0.88181(3)
Ni1E_2 Ni 0.18726(2) -0.12247(2) -0.11819(3)
Ni1G Ni 0.68726(2) 0.37753(2) 0.88181(3)
N1_2 N 0.21686(9) 0.13958(7) 1.07009(14)
N1E_2 N 0.21686(9) -0.13958(7) 1.07009(14)
N3B N 0.09699(9) -0.18156(8) 0.81041(14)
N3G N 0.09699(9) 0.18156(8) 0.81041(14)
loop_
_geom_bond_atom_site_label_1
_geom_bond_atom_site_label_2
_geom_bond_site_symmetry_1
_geom_bond_site_symmetry_2
Ni1 O1 1_555 1_555
O1 C16 1_555 1_555
O2 Ni1 1_555 1_555
O3 Ni1 1_555 1_555
O4 Ni1 1_555 1_555
N1 C1 1_555 1_555
N2 C6 1_555 1_555
N3 C13 1_555 1_555
C1 H1 1_555 1_555
C2 C1 1_555 1_555
H2 C2 1_555 1_555
C3 C2 1_555 1_555
C4 C3 1_555 1_555
H3 C4 1_555 1_555
C5 N1 1_555 1_555
H4 C5 1_555 1_555
C6 C3 1_555 1_555
C7 C6 1_555 1_555
H5 C7 1_555 1_555
C8 C7 1_555 1_555
C9 C8 1_555 1_555
H6 C9 1_555 1_555
C10 N2 1_555 1_555
C11 C10 1_555 1_555
C12 C11 1_555 1_555
H7 C12 1_555 1_555
C13 C12 1_555 1_555
H8 C13 1_555 1_555
C14 N3 1_555 1_555
H9 C14 1_555 1_555
C15 C11 1_555 1_555
H10 C15 1_555 1_555
C16 O2 1_555 1_555
C17 O4 1_555 1_555
C18 O3 1_555 1_555
O3E C18 1_555 1_555
O4E C17 1_555 1_555
Ni1E O3E 1_555 1_555
O1E Ni1E 1_555 1_555
O2E Ni1E 1_555 1_555
N1E C1E 1_555 1_555
N2E C6E 1_555 1_555
N3E C13E 1_555 1_555
C1E H1E 1_555 1_555
C2E C1E 1_555 1_555
H2E C2E 1_555 1_555
C3E C2E 1_555 1_555
C4E C3E 1_555 1_555
H3E C4E 1_555 1_555
C5E N1E 1_555 1_555
H4E C5E 1_555 1_555
C6E C3E 1_555 1_555
C7E C6E 1_555 1_555
H5E C7E 1_555 1_555
C8E C7E 1_555 1_555
C9E C8E 1_555 1_555
H6E C9E 1_555 1_555
C10E N2E 1_555 1_555
C11E C10E 1_555 1_555
C12E C11E 1_555 1_555
H7E C12E 1_555 1_555
C13E C12E 1_555 1_555
H8E C13E 1_555 1_555
C14E N3E 1_555 1_555
H9E C14E 1_555 1_555
C15E C11E 1_555 1_555
H10E C15E 1_555 1_555
C16E O1E 1_555 1_555
Ni1_2 N1 1_555 1_555
Ni1B N3E 1_555 1_555
Ni1E_2 N1E 1_555 1_555
Ni1G N3 1_555 1_555
N1_2 Ni1 1_555 1_555
N1E_2 Ni1E 1_555 1_555
N3B Ni1E 1_555 1_555
N3G Ni1 1_555 1_555
C4 C5 1_555 1_555
C8 C16 1_555 1_555
C9 C10 1_555 1_555
C14 C15 1_555 1_555
C17 C18 1_555 1_555
O4E Ni1E 1_555 1_555
O2E C16E 1_555 1_555
C4E C5E 1_555 1_555
C8E C16E 1_555 1_555
C9E C10E 1_555 1_555
C14E C15E 1_555 1_555

#END
