
#######################################################################
#
#                 Cambridge Crystallographic Data Centre
#                                CCDC 
#
#######################################################################
#
# If this CIF has been generated from an entry in the Cambridge 
# Structural Database, then it will include bibliographic, chemical, 
# crystal, experimental, refinement or atomic coordinate data resulting 
# from the CCDC's data processing and validation procedures.
#
#######################################################################

data_YINSUL01
_symmetry_cell_setting           monoclinic
_symmetry_space_group_name_H-M   'C 2/m'
_symmetry_Int_Tables_number      12
_space_group_name_Hall           '-C 2y'
loop_
_symmetry_equiv_pos_site_id
_symmetry_equiv_pos_as_xyz
1 x,y,z
2 -x,y,-z
3 1/2+x,1/2+y,z
4 1/2-x,1/2+y,-z
5 -x,-y,-z
6 x,-y,z
7 1/2-x,1/2-y,-z
8 1/2+x,1/2-y,z
_cell_length_a                   19.513(3)
_cell_length_b                   22.317(3)
_cell_length_c                   11.6320(15)
_cell_angle_alpha                90
_cell_angle_beta                 116.608(18)
_cell_angle_gamma                90
_cell_volume                     4528.94
loop_
_atom_site_label
_atom_site_type_symbol
_atom_site_fract_x
_atom_site_fract_y
_atom_site_fract_z
Ni1 Ni 0.18806(3) 0.11843(2) 0.89204(4)
O1 O 0.18841(13) 0.12070(11) 0.7064(2)
O2 O 0.26797(14) 0.17531(11) 0.86915(19)
O3 O 0.26565(11) 0.04991(10) 0.9448(2)
O4 O 0.11438(11) 0.04991(10) 0.8697(2)
N1 N 0.21776(15) 0.13630(13) 0.0819(2)
N2 N 0.36043(16) 0.20716(14) 0.5351(2)
N3 N 0.59662(15) 0.32234(12) 0.8203(2)
C1 C 0.1760(2) 0.12399(18) 0.1395(3)
H1 H 0.1289 0.1055 0.0918
C2 C 0.1973(2) 0.1368(2) 0.2690(3)
H2 H 0.1641 0.1282 0.3044
C3 C 0.26682(18) 0.16174(15) 0.3423(3)
C4 C 0.3108(2) 0.1754(2) 0.2813(3)
H3 H 0.3579 0.1942 0.3261
C5 C 0.2847(2) 0.1612(2) 0.1529(3)
H4 H 0.3164 0.1697 0.1145
C6 C 0.29479(18) 0.17642(15) 0.4814(3)
C7 C 0.25599(19) 0.15805(16) 0.5503(3)
H5 H 0.2108 0.1362 0.5104
C8 C 0.28574(18) 0.17278(15) 0.6798(3)
C9 C 0.3543(2) 0.20358(16) 0.7365(3)
H6 H 0.3762 0.2132 0.8234
C10 C 0.3900(2) 0.21990(16) 0.6609(3)
C11 C 0.46258(19) 0.25387(16) 0.7162(3)
C12 C 0.5216(2) 0.24120(18) 0.8352(3)
H7 H 0.5170 0.2096 0.8835
C13 C 0.5877(2) 0.27548(17) 0.8829(3)
H8 H 0.6276 0.2653 0.9621
C14 C 0.5399(2) 0.33432(19) 0.7045(3)
H9 H 0.5456 0.3667 0.6593
C15 C 0.4734(2) 0.30146(19) 0.6483(3)
H10 H 0.4361 0.3108 0.5661
C16 C 0.24452(18) 0.15521(15) 0.7573(3)
C17 C 0.1463(2) 0.0000 0.8844(4)
C18 C 0.2340(2) 0.0000 0.9276(4)
O3E O 0.26565(11) -0.04991(10) 0.9448(2)
O4E O 0.11438(11) -0.04991(10) 0.8697(2)
Ni1E Ni 0.18806(3) -0.11843(2) 0.89204(4)
O1E O 0.18841(13) -0.12070(11) 0.7064(2)
O2E O 0.26797(14) -0.17531(11) 0.86915(19)
N1E N 0.21776(15) -0.13630(13) 0.0819(2)
N2E N 0.36043(16) -0.20716(14) 0.5351(2)
N3E N 0.59662(15) -0.32234(12) 0.8203(2)
C1E C 0.1760(2) -0.12399(18) 0.1395(3)
H1E H 0.1289 -0.1055 0.0918
C2E C 0.1973(2) -0.1368(2) 0.2690(3)
H2E H 0.1641 -0.1282 0.3044
C3E C 0.26682(18) -0.16174(15) 0.3423(3)
C4E C 0.3108(2) -0.1754(2) 0.2813(3)
H3E H 0.3579 -0.1942 0.3261
C5E C 0.2847(2) -0.1612(2) 0.1529(3)
H4E H 0.3164 -0.1697 0.1145
C6E C 0.29479(18) -0.17642(15) 0.4814(3)
C7E C 0.25599(19) -0.15805(16) 0.5503(3)
H5E H 0.2108 -0.1362 0.5104
C8E C 0.28574(18) -0.17278(15) 0.6798(3)
C9E C 0.3543(2) -0.20358(16) 0.7365(3)
H6E H 0.3762 -0.2132 0.8234
C10E C 0.3900(2) -0.21990(16) 0.6609(3)
C11E C 0.46258(19) -0.25387(16) 0.7162(3)
C12E C 0.5216(2) -0.24120(18) 0.8352(3)
H7E H 0.5170 -0.2096 0.8835
C13E C 0.5877(2) -0.27548(17) 0.8829(3)
H8E H 0.6276 -0.2653 0.9621
C14E C 0.5399(2) -0.33432(19) 0.7045(3)
H9E H 0.5456 -0.3667 0.6593
C15E C 0.4734(2) -0.30146(19) 0.6483(3)
H10E H 0.4361 -0.3108 0.5661
C16E C 0.24452(18) -0.15521(15) 0.7573(3)
Ni1_2 Ni 0.18806(3) 0.11843(2) -0.10796(4)
Ni1B Ni 0.68806(3) -0.38157(2) 0.89204(4)
Ni1E_2 Ni 0.18806(3) -0.11843(2) -0.10796(4)
Ni1G Ni 0.68806(3) 0.38157(2) 0.89204(4)
N1_2 N 0.21776(15) 0.13630(13) 1.0819(2)
N1E_2 N 0.21776(15) -0.13630(13) 1.0819(2)
N3B N 0.09662(15) -0.17766(12) 0.8203(2)
N3G N 0.09662(15) 0.17766(12) 0.8203(2)
loop_
_geom_bond_atom_site_label_1
_geom_bond_atom_site_label_2
_geom_bond_site_symmetry_1
_geom_bond_site_symmetry_2
Ni1 O1 1_555 1_555
O1 C16 1_555 1_555
O2 Ni1 1_555 1_555
O3 Ni1 1_555 1_555
O4 Ni1 1_555 1_555
N1 C1 1_555 1_555
N2 C6 1_555 1_555
N3 C13 1_555 1_555
C1 H1 1_555 1_555
C2 C1 1_555 1_555
H2 C2 1_555 1_555
C3 C2 1_555 1_555
C4 C3 1_555 1_555
H3 C4 1_555 1_555
C5 N1 1_555 1_555
H4 C5 1_555 1_555
C6 C3 1_555 1_555
C7 C6 1_555 1_555
H5 C7 1_555 1_555
C8 C7 1_555 1_555
C9 C8 1_555 1_555
H6 C9 1_555 1_555
C10 N2 1_555 1_555
C11 C10 1_555 1_555
C12 C11 1_555 1_555
H7 C12 1_555 1_555
C13 C12 1_555 1_555
H8 C13 1_555 1_555
C14 N3 1_555 1_555
H9 C14 1_555 1_555
C15 C11 1_555 1_555
H10 C15 1_555 1_555
C16 O2 1_555 1_555
C17 O4 1_555 1_555
C18 O3 1_555 1_555
O3E C18 1_555 1_555
O4E C17 1_555 1_555
Ni1E O3E 1_555 1_555
O1E Ni1E 1_555 1_555
O2E Ni1E 1_555 1_555
N1E C1E 1_555 1_555
N2E C6E 1_555 1_555
N3E C13E 1_555 1_555
C1E H1E 1_555 1_555
C2E C1E 1_555 1_555
H2E C2E 1_555 1_555
C3E C2E 1_555 1_555
C4E C3E 1_555 1_555
H3E C4E 1_555 1_555
C5E N1E 1_555 1_555
H4E C5E 1_555 1_555
C6E C3E 1_555 1_555
C7E C6E 1_555 1_555
H5E C7E 1_555 1_555
C8E C7E 1_555 1_555
C9E C8E 1_555 1_555
H6E C9E 1_555 1_555
C10E N2E 1_555 1_555
C11E C10E 1_555 1_555
C12E C11E 1_555 1_555
H7E C12E 1_555 1_555
C13E C12E 1_555 1_555
H8E C13E 1_555 1_555
C14E N3E 1_555 1_555
H9E C14E 1_555 1_555
C15E C11E 1_555 1_555
H10E C15E 1_555 1_555
C16E O1E 1_555 1_555
Ni1_2 N1 1_555 1_555
Ni1B N3E 1_555 1_555
Ni1E_2 N1E 1_555 1_555
Ni1G N3 1_555 1_555
N1_2 Ni1 1_555 1_555
N1E_2 Ni1E 1_555 1_555
N3B Ni1E 1_555 1_555
N3G Ni1 1_555 1_555
C4 C5 1_555 1_555
C8 C16 1_555 1_555
C9 C10 1_555 1_555
C14 C15 1_555 1_555
C17 C18 1_555 1_555
O4E Ni1E 1_555 1_555
O2E C16E 1_555 1_555
C4E C5E 1_555 1_555
C8E C16E 1_555 1_555
C9E C10E 1_555 1_555
C14E C15E 1_555 1_555

#END
