
#######################################################################
#
#                 Cambridge Crystallographic Data Centre
#                                CCDC 
#
#######################################################################
#
# If this CIF has been generated from an entry in the Cambridge 
# Structural Database, then it will include bibliographic, chemical, 
# crystal, experimental, refinement or atomic coordinate data resulting 
# from the CCDC's data processing and validation procedures.
#
#######################################################################

data_YINSIZ
_symmetry_cell_setting           monoclinic
_symmetry_space_group_name_H-M   'C 2/m'
_symmetry_Int_Tables_number      12
_space_group_name_Hall           '-C 2y'
loop_
_symmetry_equiv_pos_site_id
_symmetry_equiv_pos_as_xyz
1 x,y,z
2 -x,y,-z
3 1/2+x,1/2+y,z
4 1/2-x,1/2+y,-z
5 -x,-y,-z
6 x,-y,z
7 1/2-x,1/2-y,-z
8 1/2+x,1/2-y,z
_cell_length_a                   19.8663(4)
_cell_length_b                   21.8289(3)
_cell_length_c                   11.6384(2)
_cell_angle_alpha                90
_cell_angle_beta                 116.935(3)
_cell_angle_gamma                90
_cell_volume                     4499.6
loop_
_atom_site_label
_atom_site_type_symbol
_atom_site_fract_x
_atom_site_fract_y
_atom_site_fract_z
Ni1 Ni 0.18725(3) 0.12247(2) 0.88179(5)
O1 O 0.18810(13) 0.12044(11) 0.6981(2)
O2 O 0.26619(12) 0.17827(10) 0.8582(2)
O3 O 0.26417(11) 0.05117(10) 0.9341(2)
O4 O 0.11478(11) 0.05128(10) 0.8592(2)
N1 N 0.21697(14) 0.13966(12) 0.0702(2)
N2 N 0.35913(15) 0.20749(14) 0.5270(3)
N3 N 0.59695(14) 0.31847(12) 0.8102(2)
C1 C 0.17075(18) 0.13178(17) 0.1245(3)
H1 H 0.1208 0.1177 0.0721
C2 C 0.19256(19) 0.14330(18) 0.2531(3)
H2 H 0.1580 0.1373 0.2878
C3 C 0.26554(18) 0.16383(15) 0.3316(3)
C4 C 0.31310(19) 0.17192(18) 0.2750(3)
H3 H 0.3632 0.1862 0.3247
C5 C 0.28697(19) 0.15898(17) 0.1454(3)
H4 H 0.3205 0.1641 0.1083
C6 C 0.29317(18) 0.17750(16) 0.4711(3)
C7 C 0.25405(17) 0.15942(16) 0.5393(3)
H5 H 0.2077 0.1377 0.4975
C8 C 0.28420(18) 0.17383(16) 0.6695(3)
C9 C 0.35320(19) 0.20359(17) 0.7285(3)
H6 H 0.3758 0.2128 0.8179
C10 C 0.38881(18) 0.21974(17) 0.6533(3)
C11 C 0.46152(18) 0.25318(16) 0.7083(3)
C12 C 0.51962(19) 0.23925(17) 0.8300(3)
H7 H 0.5136 0.2075 0.8803
C13 C 0.58623(18) 0.27243(15) 0.8764(3)
H8 H 0.6259 0.2621 0.9585
C14 C 0.54073(18) 0.33163(17) 0.6926(3)
H9 H 0.5479 0.3641 0.6449
C15 C 0.47340(19) 0.30004(17) 0.6386(3)
H10 H 0.4355 0.3101 0.5547
C16 C 0.24370(17) 0.15646(15) 0.7469(3)
C17 C 0.1460(2) 0.0000 0.8739(4)
C18 C 0.2325(2) 0.0000 0.9174(4)
O3E O 0.26417(11) -0.05117(10) 0.9341(2)
O4E O 0.11478(11) -0.05128(10) 0.8592(2)
Ni1E Ni 0.18725(3) -0.12247(2) 0.88179(5)
O1E O 0.18810(13) -0.12044(11) 0.6981(2)
O2E O 0.26619(12) -0.17827(10) 0.8582(2)
N1E N 0.21697(14) -0.13966(12) 0.0702(2)
N2E N 0.35913(15) -0.20749(14) 0.5270(3)
N3E N 0.59695(14) -0.31847(12) 0.8102(2)
C1E C 0.17075(18) -0.13178(17) 0.1245(3)
H1E H 0.1208 -0.1177 0.0721
C2E C 0.19256(19) -0.14330(18) 0.2531(3)
H2E H 0.1580 -0.1373 0.2878
C3E C 0.26554(18) -0.16383(15) 0.3316(3)
C4E C 0.31310(19) -0.17192(18) 0.2750(3)
H3E H 0.3632 -0.1862 0.3247
C5E C 0.28697(19) -0.15898(17) 0.1454(3)
H4E H 0.3205 -0.1641 0.1083
C6E C 0.29317(18) -0.17750(16) 0.4711(3)
C7E C 0.25405(17) -0.15942(16) 0.5393(3)
H5E H 0.2077 -0.1377 0.4975
C8E C 0.28420(18) -0.17383(16) 0.6695(3)
C9E C 0.35320(19) -0.20359(17) 0.7285(3)
H6E H 0.3758 -0.2128 0.8179
C10E C 0.38881(18) -0.21974(17) 0.6533(3)
C11E C 0.46152(18) -0.25318(16) 0.7083(3)
C12E C 0.51962(19) -0.23925(17) 0.8300(3)
H7E H 0.5136 -0.2075 0.8803
C13E C 0.58623(18) -0.27243(15) 0.8764(3)
H8E H 0.6259 -0.2621 0.9585
C14E C 0.54073(18) -0.33163(17) 0.6926(3)
H9E H 0.5479 -0.3641 0.6449
C15E C 0.47340(19) -0.30004(17) 0.6386(3)
H10E H 0.4355 -0.3101 0.5547
C16E C 0.24370(17) -0.15646(15) 0.7469(3)
Ni1_2 Ni 0.18725(3) 0.12247(2) -0.11821(5)
Ni1B Ni 0.68725(3) -0.37753(2) 0.88179(5)
Ni1E_2 Ni 0.18725(3) -0.12247(2) -0.11821(5)
Ni1G Ni 0.68725(3) 0.37753(2) 0.88179(5)
N1_2 N 0.21697(14) 0.13966(12) 1.0702(2)
N1E_2 N 0.21697(14) -0.13966(12) 1.0702(2)
N3B N 0.09695(14) -0.18153(12) 0.8102(2)
N3G N 0.09695(14) 0.18153(12) 0.8102(2)
O5 O 0.2901(9) 0.0000 0.3941(18)
O6 O 0.0731(12) 0.0552(8) 0.4900(16)
O7 O 0.1510(6) 0.0000 0.5823(9)
O8 O 0.1328(7) 0.0000 0.3221(12)
O9 O 0.0211(3) 0.0774(4) 0.1335(8)
O10 O 0.4312(13) 0.0880(11) 1.000(3)
O11? O 0.285(3) 0.0000 0.276(5)
O12? O 0.3629(18) 0.0197(12) 0.238(3)
O13? O 0.0000 0.0437(11) 0.5000
O14? O 0.026(2) 0.0370(11) 0.118(5)
O15? O 0.5000 0.1197(8) 1.0000
loop_
_geom_bond_atom_site_label_1
_geom_bond_atom_site_label_2
_geom_bond_site_symmetry_1
_geom_bond_site_symmetry_2
Ni1 O1 1_555 1_555
O1 C16 1_555 1_555
O2 Ni1 1_555 1_555
O3 Ni1 1_555 1_555
O4 Ni1 1_555 1_555
N1 C1 1_555 1_555
N2 C6 1_555 1_555
N3 C13 1_555 1_555
C1 H1 1_555 1_555
C2 C1 1_555 1_555
H2 C2 1_555 1_555
C3 C2 1_555 1_555
C4 C3 1_555 1_555
H3 C4 1_555 1_555
C5 N1 1_555 1_555
H4 C5 1_555 1_555
C6 C3 1_555 1_555
C7 C6 1_555 1_555
H5 C7 1_555 1_555
C8 C7 1_555 1_555
C9 C8 1_555 1_555
H6 C9 1_555 1_555
C10 N2 1_555 1_555
C11 C10 1_555 1_555
C12 C11 1_555 1_555
H7 C12 1_555 1_555
C13 C12 1_555 1_555
H8 C13 1_555 1_555
C14 N3 1_555 1_555
H9 C14 1_555 1_555
C15 C11 1_555 1_555
H10 C15 1_555 1_555
C16 O2 1_555 1_555
C17 O4 1_555 1_555
C18 O3 1_555 1_555
O3E C18 1_555 1_555
O4E C17 1_555 1_555
Ni1E O3E 1_555 1_555
O1E Ni1E 1_555 1_555
O2E Ni1E 1_555 1_555
N1E C1E 1_555 1_555
N2E C6E 1_555 1_555
N3E C13E 1_555 1_555
C1E H1E 1_555 1_555
C2E C1E 1_555 1_555
H2E C2E 1_555 1_555
C3E C2E 1_555 1_555
C4E C3E 1_555 1_555
H3E C4E 1_555 1_555
C5E N1E 1_555 1_555
H4E C5E 1_555 1_555
C6E C3E 1_555 1_555
C7E C6E 1_555 1_555
H5E C7E 1_555 1_555
C8E C7E 1_555 1_555
C9E C8E 1_555 1_555
H6E C9E 1_555 1_555
C10E N2E 1_555 1_555
C11E C10E 1_555 1_555
C12E C11E 1_555 1_555
H7E C12E 1_555 1_555
C13E C12E 1_555 1_555
H8E C13E 1_555 1_555
C14E N3E 1_555 1_555
H9E C14E 1_555 1_555
C15E C11E 1_555 1_555
H10E C15E 1_555 1_555
C16E O1E 1_555 1_555
Ni1_2 N1 1_555 1_555
Ni1B N3E 1_555 1_555
Ni1E_2 N1E 1_555 1_555
Ni1G N3 1_555 1_555
N1_2 Ni1 1_555 1_555
N1E_2 Ni1E 1_555 1_555
N3B Ni1E 1_555 1_555
N3G Ni1 1_555 1_555
C4 C5 1_555 1_555
C8 C16 1_555 1_555
C9 C10 1_555 1_555
C14 C15 1_555 1_555
C17 C18 1_555 1_555
O4E Ni1E 1_555 1_555
O2E C16E 1_555 1_555
C4E C5E 1_555 1_555
C8E C16E 1_555 1_555
C9E C10E 1_555 1_555
C14E C15E 1_555 1_555

#END
