
#######################################################################
#
#                 Cambridge Crystallographic Data Centre
#                                CCDC 
#
#######################################################################
#
# If this CIF has been generated from an entry in the Cambridge 
# Structural Database, then it will include bibliographic, chemical, 
# crystal, experimental, refinement or atomic coordinate data resulting 
# from the CCDC's data processing and validation procedures.
#
#######################################################################

data_YIVNIC
_symmetry_cell_setting           monoclinic
_symmetry_space_group_name_H-M   'C 2/c'
_symmetry_Int_Tables_number      15
_space_group_name_Hall           '-C 2yn'
loop_
_symmetry_equiv_pos_site_id
_symmetry_equiv_pos_as_xyz
1 x,y,z
2 -x,y,1/2-z
3 1/2+x,1/2+y,z
4 1/2-x,1/2+y,1/2-z
5 -x,-y,-z
6 x,-y,1/2+z
7 1/2-x,1/2-y,-z
8 1/2+x,1/2-y,1/2+z
_cell_length_a                   30.448(4)
_cell_length_b                   11.3273(14)
_cell_length_c                   11.5744(14)
_cell_angle_alpha                90
_cell_angle_beta                 106.572(3)
_cell_angle_gamma                90
_cell_volume                     3826.12
loop_
_atom_site_label
_atom_site_type_symbol
_atom_site_fract_x
_atom_site_fract_y
_atom_site_fract_z
Cu1 Cu 0.2500 0.7500 1.0000
Cu2 Cu 0.0000 1.0000 0.5000
V1 V 0.14481(2) 0.90902(6) 0.93969(6)
V2 V 0.10759(2) 1.08940(6) 0.68172(6)
O1 O 0.20030(9) 0.8739(2) 0.9731(2)
O2 O 0.11296(12) 0.7938(3) 0.8960(3)
O3 O 0.13279(11) 1.0178(3) 0.8238(3)
O4 O 0.11896(12) 1.2290(3) 0.6980(3)
O5 O 0.13350(10) 1.0313(3) 0.5721(2)
O6 O 0.05091(10) 1.0721(3) 0.6370(3)
O7 O 0.02697(12) 1.0809(4) 0.3688(3)
H1 H 0.031(2) 1.152(2) 0.381(5)
H2 H 0.0197(19) 1.078(5) 0.2967(18)
N1 N 0.23899(11) 0.7311(3) 0.7995(3)
N2 N 0.04255(12) 0.8491(3) 0.5067(3)
N3 N 0.20038(11) 0.3881(3) 0.5022(3)
C1 C 0.26297(14) 0.6520(4) 0.7561(3)
H3 H 0.2779 0.5903 0.8082
C2 C 0.21786(14) 0.8150(4) 0.7222(4)
H4 H 0.1998 0.8712 0.7491
C3 C 0.26752(13) 0.6542(4) 0.6400(3)
H5 H 0.2845 0.5944 0.6142
C4 C 0.22084(15) 0.8248(4) 0.6049(4)
H6 H 0.2049 0.8863 0.5542
C5 C 0.24693(14) 0.7452(4) 0.5615(3)
C6 C 0.06699(15) 0.7988(4) 0.6094(4)
H7 H 0.0632 0.8278 0.6830
C7 C 0.04826(18) 0.8044(5) 0.4046(4)
H8 H 0.0310 0.8378 0.3302
C8 C 0.09743(14) 0.7068(4) 0.6148(4)
H9 H 0.1141 0.6746 0.6904
C9 C 0.07728(18) 0.7141(5) 0.4010(4)
H10 H 0.0798 0.6864 0.3257
C10 C 0.10345(14) 0.6620(4) 0.5086(4)
C11 C 0.13633(14) 0.5672(4) 0.5064(3)
C12 C 0.14452(15) 0.4745(4) 0.5888(4)
H11 H 0.1288 0.4709 0.6487
C13 C 0.16071(15) 0.5657(4) 0.4201(4)
H12 H 0.1557 0.6256 0.3604
C14 C 0.17569(15) 0.3879(4) 0.5829(4)
H13 H 0.1801 0.3244 0.6387
C15 C 0.19187(14) 0.4771(4) 0.4224(3)
H14 H 0.2083 0.4790 0.3640
N1F N 0.26101(11) 0.7689(3) 0.2005(3)
C1F C 0.23703(14) 0.8480(4) 0.2439(3)
H3F H 0.2221 0.9097 0.1918
C2F C 0.28214(14) 0.6850(4) 0.2778(4)
H4F H 0.3002 0.6288 0.2509
C3F C 0.23248(13) 0.8458(4) 0.3600(3)
H5F H 0.2155 0.9056 0.3858
C4F C 0.27916(15) 0.6752(4) 0.3951(4)
H6F H 0.2951 0.6137 0.4458
C5F C 0.25307(14) 0.7548(4) 0.4385(3)
V1D V -0.14481(2) 1.09098(6) 0.06031(6)
V2D V -0.10759(2) 0.91060(6) 0.31828(6)
O1D O -0.20030(9) 1.1261(2) 0.0269(2)
O2D O -0.11296(12) 1.2062(3) 0.1040(3)
O3D O -0.13279(11) 0.9822(3) 0.1762(3)
O4D O -0.11896(12) 0.7710(3) 0.3020(3)
O5D O -0.13350(10) 0.9687(3) 0.4279(2)
O6D O -0.05091(10) 0.9279(3) 0.3630(3)
O7D O -0.02697(12) 0.9191(4) 0.6312(3)
H1D H -0.031(2) 0.848(2) 0.619(5)
H2D H -0.0197(19) 0.922(5) 0.7033(18)
N2D N -0.04255(12) 1.1509(3) 0.4933(3)
N3D N -0.20038(11) 1.6119(3) 0.4978(3)
C6D C -0.06699(15) 1.2012(4) 0.3906(4)
H7D H -0.0632 1.1722 0.3170
C7D C -0.04826(18) 1.1956(5) 0.5954(4)
H8D H -0.0310 1.1622 0.6698
C8D C -0.09743(14) 1.2932(4) 0.3852(4)
H9D H -0.1141 1.3254 0.3096
C9D C -0.07728(18) 1.2859(5) 0.5990(4)
H10D H -0.0798 1.3136 0.6743
C10D C -0.10345(14) 1.3380(4) 0.4914(4)
C11D C -0.13633(14) 1.4328(4) 0.4936(3)
C12D C -0.14452(15) 1.5255(4) 0.4112(4)
H11D H -0.1288 1.5291 0.3513
C13D C -0.16071(15) 1.4343(4) 0.5799(4)
H12D H -0.1557 1.3744 0.6396
C14D C -0.17569(15) 1.6121(4) 0.4171(4)
H13D H -0.1801 1.6756 0.3613
C15D C -0.19187(14) 1.5229(4) 0.5776(3)
H14D H -0.2083 1.5210 0.6360
Cu1_2 Cu 0.2500 0.7500 0.0000
Cu1A Cu -0.2500 1.7500 0.5000
Cu1B Cu -0.2500 1.2500 0.0000
Cu1C Cu 0.2500 0.2500 0.5000
V1A V -0.14481(2) 0.90902(6) 0.56031(6)
V1E V 0.14481(2) 1.09098(6) 0.43969(6)
O1F O 0.29970(9) 0.6261(2) 1.0269(2)
O5A O -0.13350(10) 1.0313(3) -0.0721(2)
O5E O 0.13350(10) 0.9687(3) 1.0721(2)
N1F_2 N 0.26101(11) 0.7689(3) 1.2005(3)
N3C N 0.29962(11) 0.8881(3) 0.9978(3)
N3E N 0.20038(11) 0.6119(3) 1.0022(3)
loop_
_geom_bond_atom_site_label_1
_geom_bond_atom_site_label_2
_geom_bond_site_symmetry_1
_geom_bond_site_symmetry_2
Cu1 O1 1_555 1_555
Cu2 O6 1_555 1_555
V1 O1 1_555 1_555
V2 O3 1_555 1_555
O2 V1 1_555 1_555
O3 V1 1_555 1_555
O4 V2 1_555 1_555
O5 V2 1_555 1_555
O6 V2 1_555 1_555
O7 Cu2 1_555 1_555
H1 O7 1_555 1_555
H2 O7 1_555 1_555
N1 Cu1 1_555 1_555
N2 Cu2 1_555 1_555
N3 C14 1_555 1_555
C1 N1 1_555 1_555
H3 C1 1_555 1_555
C2 N1 1_555 1_555
H4 C2 1_555 1_555
C3 C1 1_555 1_555
H5 C3 1_555 1_555
C4 C2 1_555 1_555
H6 C4 1_555 1_555
C5 C3 1_555 1_555
C6 N2 1_555 1_555
H7 C6 1_555 1_555
C7 N2 1_555 1_555
H8 C7 1_555 1_555
C8 C6 1_555 1_555
H9 C8 1_555 1_555
C9 C7 1_555 1_555
H10 C9 1_555 1_555
C10 C8 1_555 1_555
C11 C10 1_555 1_555
C12 C11 1_555 1_555
H11 C12 1_555 1_555
C13 C11 1_555 1_555
H12 C13 1_555 1_555
C14 C12 1_555 1_555
H13 C14 1_555 1_555
C15 N3 1_555 1_555
H14 C15 1_555 1_555
N1F C1F 1_555 1_555
C1F H3F 1_555 1_555
C2F N1F 1_555 1_555
H4F C2F 1_555 1_555
C3F C1F 1_555 1_555
H5F C3F 1_555 1_555
C4F C2F 1_555 1_555
H6F C4F 1_555 1_555
C5F C5 1_555 1_555
V1D O1D 1_555 1_555
V2D O3D 1_555 1_555
O1D Cu1B 1_555 1_555
O2D V1D 1_555 1_555
O3D V1D 1_555 1_555
O4D V2D 1_555 1_555
O5D V2D 1_555 1_555
O6D Cu2 1_555 1_555
O7D Cu2 1_555 1_555
H1D O7D 1_555 1_555
H2D O7D 1_555 1_555
N2D Cu2 1_555 1_555
N3D C14D 1_555 1_555
C6D N2D 1_555 1_555
H7D C6D 1_555 1_555
C7D N2D 1_555 1_555
H8D C7D 1_555 1_555
C8D C6D 1_555 1_555
H9D C8D 1_555 1_555
C9D C7D 1_555 1_555
H10D C9D 1_555 1_555
C10D C8D 1_555 1_555
C11D C10D 1_555 1_555
C12D C11D 1_555 1_555
H11D C12D 1_555 1_555
C13D C11D 1_555 1_555
H12D C13D 1_555 1_555
C14D C12D 1_555 1_555
H13D C14D 1_555 1_555
C15D N3D 1_555 1_555
H14D C15D 1_555 1_555
Cu1_2 N1F 1_555 1_555
Cu1A N3D 1_555 1_555
Cu1C N3 1_555 1_555
V1A O5D 1_555 1_555
V1E O5 1_555 1_555
O1F Cu1 1_555 1_555
O5A V1D 1_555 1_555
O5E V1 1_555 1_555
N1F_2 Cu1 1_555 1_555
N3C Cu1 1_555 1_555
N3E Cu1 1_555 1_555
C4 C5 1_555 1_555
C9 C10 1_555 1_555
C13 C15 1_555 1_555
C3F C5F 1_555 1_555
C4F C5F 1_555 1_555
V2D O6D 1_555 1_555
C9D C10D 1_555 1_555
C13D C15D 1_555 1_555

#END
