
#######################################################################
#
#                 Cambridge Crystallographic Data Centre
#                                CCDC 
#
#######################################################################
#
# If this CIF has been generated from an entry in the Cambridge 
# Structural Database, then it will include bibliographic, chemical, 
# crystal, experimental, refinement or atomic coordinate data resulting 
# from the CCDC's data processing and validation procedures.
#
#######################################################################

data_YIVZIO
_symmetry_cell_setting           triclinic
_symmetry_space_group_name_H-M   'P -1'
_symmetry_Int_Tables_number      2
_space_group_name_Hall           '-P 1'
loop_
_symmetry_equiv_pos_site_id
_symmetry_equiv_pos_as_xyz
1 x,y,z
2 -x,-y,-z
_cell_length_a                   14.168(3)
_cell_length_b                   15.091(3)
_cell_length_c                   22.752(4)
_cell_angle_alpha                85.333(4)
_cell_angle_beta                 75.130(4)
_cell_angle_gamma                69.426(4)
_cell_volume                     4401.59
loop_
_atom_site_label
_atom_site_type_symbol
_atom_site_fract_x
_atom_site_fract_y
_atom_site_fract_z
Pr1 Pr 0.19445(2) 0.79564(2) 0.270201(14)
O1 O 0.1944(2) 0.6486(2) 0.23134(16)
O2 O 0.3000(3) 0.8899(2) 0.25894(15)
O3 O 0.1536(3) 0.8622(3) 0.37488(17)
O4 O 0.0658(3) 0.9566(3) 0.31265(19)
O5 O 0.3383(3) 0.7339(3) 0.17587(17)
N1 N 0.0847(5) 0.9412(5) 0.3613(3)
O6 O 0.1054(2) -0.1322(3) 0.19178(14)
O7 O -0.0151(3) 1.2132(3) 0.69019(15)
O8 O 0.3427(3) 1.6870(3) 0.31238(15)
C1 C 0.1419(4) 0.6224(4) 0.2074(2)
C2 C 0.3468(3) 0.9208(4) 0.2871(2)
O9 O 0.0447(7) 1.0028(6) 0.4134(3)
Pr2 Pr -0.068710(19) 0.83239(2) 0.202140(12)
Pr3 Pr 0.541996(19) 0.71129(2) 0.304086(12)
O10 O 0.0531(3) 0.6714(3) 0.19911(15)
C3 C 0.1820(4) 0.5201(4) 0.1864(2)
O11 O 0.4309(3) 0.8724(2) 0.30183(17)
C4 C 0.3019(3) 1.0231(4) 0.3081(2)
O12 O -0.1161(3) 0.9626(4) 0.2808(2)
O13 O -0.1630(2) 0.7231(3) 0.18576(15)
O14 O 0.0254(3) 0.7945(3) 0.09437(10)
O15 O 0.7303(3) -0.0701(3) 0.23488(15)
O16 O 0.8102(2) -0.0784(3) 0.13926(15)
O17 O -0.0174(3) -0.0238(3) 0.1548(2)
O18 O 0.1278(2) 1.2375(3) 0.69516(14)
O19 O 0.6505(2) 0.8054(3) 0.32367(16)
O20 O 0.4484(3) 0.7407(3) 0.41055(18)
O21 O 0.4718(2) 0.3081(3) -0.19748(14)
O22 O 0.3745(2) 0.2268(2) -0.20214(14)
O23 O 0.4850(3) 1.5729(3) 0.31684(18)
O24 O -0.3448(2) 1.6005(3) 0.36509(15)
O25 O -0.2673(2) 1.5998(3) 0.26959(15)
C5 C 0.2695(4) 0.4549(4) 0.2026(2)
C6 C 0.1370(4) 0.4891(4) 0.1479(2)
C7 C 0.2168(4) 1.0848(3) 0.2904(2)
C8 C 0.3416(4) 1.0519(4) 0.3476(2)
C9 C 0.02555(17) 0.8179(3) 0.04113(10)
C10 C 0.4660(5) 0.7123(5) 0.4611(3)
C11 C 0.3097(4) 0.3643(4) 0.1830(2)
H1 H 0.3010 0.4749 0.2275
C12 C 0.1808(4) 0.3955(4) 0.1269(2)
H2 H 0.0786 0.5304 0.1365
C13 C 0.1742(3) 1.1761(4) 0.3110(2)
H3 H 0.1880 1.0641 0.2642
C14 C 0.2957(4) 1.1461(4) 0.3698(2)
H4 H 0.3987 1.0102 0.3602
C15 C -0.06354(19) 0.8302(6) 0.01302(19)
N2 N 0.10342(18) 0.8424(3) 0.00579(11)
C16 C 0.5428(5) 0.7332(8) 0.4892(4)
N3 N 0.4192(5) 0.6551(6) 0.4928(3)
C17 C 0.2675(3) 0.3317(3) 0.14279(19)
H5 H 0.3660 0.3224 0.1963
H6 H 0.1504 0.3755 0.1012
C18 C 0.2087(3) 1.2093(3) 0.35297(19)
H7 H 0.1197 1.2176 0.2960
H8 H 0.3245 1.1662 0.3963
C19 C 0.1066(6) 0.8683(5) -0.05759(12)
C20 C 0.1869(2) 0.8309(6) 0.03513(19)
C21 C 0.3143(5) 0.6738(11) 0.4816(5)
C22 C 0.4443(9) 0.6260(11) 0.5521(3)
Si1 Si 0.33131(10) 0.21017(10) 0.10694(6)
Si2 Si 0.14189(9) 1.32741(10) 0.39237(6)
C23 C 0.4560(3) 0.1455(3) 0.1303(2)
C24 C 0.2485(4) 0.1359(4) 0.1293(2)
C25 C 0.3589(4) 0.2260(4) 0.0210(2)
C26 C 0.1164(3) 1.3030(4) 0.4756(2)
C27 C 0.2242(3) 1.4048(4) 0.3723(2)
C28 C 0.0148(3) 1.3939(4) 0.3697(2)
C29 C 0.5507(4) 0.1095(4) 0.0877(2)
C30 C 0.4532(4) 0.1167(4) 0.1909(2)
C31 C 0.2967(4) 0.0331(3) 0.1249(2)
C32 C 0.1402(4) 0.1713(4) 0.1461(2)
C33 C 0.4025(5) 0.2896(4) -0.0061(2)
C34 C 0.3313(4) 0.1756(4) -0.0148(2)
C35 C 0.1544(4) 1.3379(4) 0.5149(2)
C36 C 0.0577(4) 1.2491(4) 0.5003(2)
C37 C 0.3267(4) 1.3795(4) 0.3493(2)
C38 C 0.1701(4) 1.5055(4) 0.3818(2)
C39 C -0.0786(4) 1.4162(4) 0.4115(2)
C40 C 0.0170(3) 1.4290(4) 0.3104(2)
H9 H 0.5553 0.1254 0.0470
C41 C 0.6386(4) 0.0499(4) 0.1057(2)
H10 H 0.3907 0.1386 0.2202
C42 C 0.5390(3) 0.0580(4) 0.2079(2)
H11 H 0.3688 0.0069 0.1130
C43 C 0.2409(4) -0.0254(4) 0.1376(2)
H12 H 0.1061 0.2364 0.1499
C44 C 0.0809(4) 0.1104(4) 0.1577(2)
H13 H 0.4193 0.3266 0.0176
C45 C 0.4229(4) 0.3011(5) -0.0685(2)
H14 H 0.2993 0.1326 0.0033
C46 C 0.3494(5) 0.1867(4) -0.0767(2)
H15 H 0.1919 1.3781 0.5003
C47 C 0.1379(4) 1.3141(4) 0.5762(2)
H16 H 0.0302 1.2250 0.4749
C48 C 0.0362(4) 1.2277(4) 0.5628(2)
H17 H 0.3633 1.3151 0.3428
C49 C 0.3827(4) 1.4377(4) 0.3344(2)
H18 H 0.0986 1.5274 0.3982
C50 C 0.2219(4) 1.5709(4) 0.3671(2)
H19 H -0.0813 1.3957 0.4513
C51 C -0.1703(4) 1.4697(4) 0.3946(2)
H20 H 0.0802 1.4147 0.2816
C52 C -0.0720(4) 1.4834(4) 0.2944(2)
H21 H 0.7016 0.0269 0.0769
C53 C 0.6328(4) 0.0251(4) 0.1654(2)
H22 H 0.5346 0.0399 0.2483
H23 H 0.2737 -0.0907 0.1359
C54 C 0.1324(4) 0.0147(4) 0.1532(2)
H24 H 0.0087 0.1349 0.1680
H25 H 0.4539 0.3449 -0.0864
C55 C 0.3974(4) 0.2477(4) -0.1040(2)
H26 H 0.3287 0.1522 -0.0999
H27 H 0.1675 1.3364 0.6012
C56 C 0.0811(3) 1.2607(4) 0.5997(2)
H28 H -0.0067 1.1925 0.5788
H29 H 0.4544 1.4131 0.3191
C57 C 0.3311(4) 1.5363(4) 0.3423(2)
H30 H 0.1858 1.6354 0.3734
H31 H -0.2341 1.4805 0.4225
C58 C -0.1671(4) 1.5062(4) 0.3373(2)
H32 H -0.0692 1.5054 0.2548
C59 C 0.7313(4) -0.0484(4) 0.1814(2)
C60 C 0.0720(4) -0.0502(4) 0.1679(3)
C61 C 0.4144(3) 0.2615(4) -0.1713(2)
C62 C 0.0655(4) 1.2345(4) 0.6654(2)
C63 C 0.3877(4) 1.6022(4) 0.3228(2)
C64 C -0.2672(4) 1.5707(4) 0.3216(2)
Pr1_2 Pr 0.19445(2) -0.20436(2) 0.270201(14)
Pr1_3 Pr 0.19445(2) 1.79564(2) 0.270201(14)
Pr1A Pr -0.19445(2) 1.20436(2) 0.729799(14)
O6_2 O 0.1054(2) 0.8678(3) 0.19178(14)
O7A O 0.0151(3) 0.7868(3) 0.30981(15)
O8_2 O 0.3427(3) 0.6870(3) 0.31238(15)
Pr2_2 Pr -0.068710(19) -0.16761(2) 0.202140(12)
Pr2_3 Pr 0.931290(19) -0.16761(2) 0.202140(12)
Pr2A Pr 0.068710(19) 1.16761(2) 0.797860(12)
Pr3_2 Pr -0.458004(19) 1.71129(2) 0.304086(12)
Pr3_3 Pr 0.541996(19) 1.71129(2) 0.304086(12)
Pr3A Pr 0.458004(19) 0.28871(2) -0.304086(12)
O15_2 O -0.2697(3) 0.9299(3) 0.23488(15)
O16_2 O -0.1898(2) 0.9216(3) 0.13926(15)
O17_2 O -0.0174(3) 0.9762(3) 0.1548(2)
O18A O -0.1278(2) 0.7625(3) 0.30484(14)
O21A O 0.5282(2) 0.6919(3) 0.19748(14)
O22A O 0.6255(2) 0.7732(2) 0.20214(14)
O23_2 O 0.4850(3) 0.5729(3) 0.31684(18)
O24_2 O 0.6552(2) 0.6005(3) 0.36509(15)
O25_2 O 0.7327(2) 0.5998(3) 0.26959(15)
O26 O 0.1240(4) 0.5265(12) 0.90395(16)
C65 C 0.0847(3) 0.4667(3) 0.9625(12)
C66 C 0.1531(2) 0.5253(3) 0.95611(19)
C67 C 0.1487(6) 0.7571(10) 0.7145(5)
C68 C 0.2238(6) 0.7740(5) 0.7465(4)
C69 C 0.3198(13) 0.6100(6) 0.7320(7)
C70 C 0.3591(6) 0.7266(9) 0.7951(5)
N4 N 0.2922(6) 0.7004(5) 0.7648(5)
O27 O 0.2096(9) 0.8543(5) 0.7654(5)
O28 O 0.5580(19) 0.467(2) 0.9491(11)
C71 C 0.6741(10) -0.0586(6) 0.4502(9)
C72 C 0.6983(9) 0.0328(5) 0.4461(3)
C73 C 0.6089(6) 0.0647(9) 0.3677(5)
C74 C 0.6736(13) 0.1841(6) 0.4084(10)
N5 N 0.6797(8) 0.0863(6) 0.3981(4)
O29 O 0.6956(14) 0.0722(10) 0.4933(5)
loop_
_geom_bond_atom_site_label_1
_geom_bond_atom_site_label_2
_geom_bond_site_symmetry_1
_geom_bond_site_symmetry_2
Pr1 O1 1_555 1_555
O1 C1 1_555 1_555
O2 Pr1 1_555 1_555
O3 Pr1 1_555 1_555
O4 Pr1 1_555 1_555
O5 Pr1 1_555 1_555
N1 O3 1_555 1_555
O6 C60 1_555 1_555
O7 C62 1_555 1_555
O8 C63 1_555 1_555
C1 O10 1_555 1_555
C2 O2 1_555 1_555
O9 N1 1_555 1_555
Pr2 O10 1_555 1_555
Pr3 O11 1_555 1_555
C3 C1 1_555 1_555
O11 C2 1_555 1_555
C4 C2 1_555 1_555
O12 Pr2 1_555 1_555
O13 Pr2 1_555 1_555
O14 Pr2 1_555 1_555
O15 C59 1_555 1_555
O16 C59 1_555 1_555
O17 C60 1_555 1_555
O18 C62 1_555 1_555
O19 Pr3 1_555 1_555
O20 Pr3 1_555 1_555
O21 C61 1_555 1_555
O22 C61 1_555 1_555
O23 C63 1_555 1_555
O24 C64 1_555 1_555
O25 C64 1_555 1_555
C5 C3 1_555 1_555
C6 C3 1_555 1_555
C7 C4 1_555 1_555
C8 C4 1_555 1_555
C9 O14 1_555 1_555
C10 O20 1_555 1_555
C11 C5 1_555 1_555
H1 C5 1_555 1_555
C12 C6 1_555 1_555
H2 C6 1_555 1_555
C13 C7 1_555 1_555
H3 C7 1_555 1_555
C14 C8 1_555 1_555
H4 C8 1_555 1_555
C15 C9 1_555 1_555
N2 C9 1_555 1_555
C16 C10 1_555 1_555
N3 C10 1_555 1_555
C17 C11 1_555 1_555
H5 C11 1_555 1_555
H6 C12 1_555 1_555
C18 C13 1_555 1_555
H7 C13 1_555 1_555
H8 C14 1_555 1_555
C19 N2 1_555 1_555
C20 N2 1_555 1_555
C21 N3 1_555 1_555
C22 N3 1_555 1_555
Si1 C17 1_555 1_555
Si2 C18 1_555 1_555
C23 Si1 1_555 1_555
C24 Si1 1_555 1_555
C25 Si1 1_555 1_555
C26 Si2 1_555 1_555
C27 Si2 1_555 1_555
C28 Si2 1_555 1_555
C29 C23 1_555 1_555
C30 C23 1_555 1_555
C31 C24 1_555 1_555
C32 C24 1_555 1_555
C33 C25 1_555 1_555
C34 C25 1_555 1_555
C35 C26 1_555 1_555
C36 C26 1_555 1_555
C37 C27 1_555 1_555
C38 C27 1_555 1_555
C39 C28 1_555 1_555
C40 C28 1_555 1_555
H9 C29 1_555 1_555
C41 C29 1_555 1_555
H10 C30 1_555 1_555
C42 C30 1_555 1_555
H11 C31 1_555 1_555
C43 C31 1_555 1_555
H12 C32 1_555 1_555
C44 C32 1_555 1_555
H13 C33 1_555 1_555
C45 C33 1_555 1_555
H14 C34 1_555 1_555
C46 C34 1_555 1_555
H15 C35 1_555 1_555
C47 C35 1_555 1_555
H16 C36 1_555 1_555
C48 C36 1_555 1_555
H17 C37 1_555 1_555
C49 C37 1_555 1_555
H18 C38 1_555 1_555
C50 C38 1_555 1_555
H19 C39 1_555 1_555
C51 C39 1_555 1_555
H20 C40 1_555 1_555
C52 C40 1_555 1_555
H21 C41 1_555 1_555
C53 C41 1_555 1_555
H22 C42 1_555 1_555
H23 C43 1_555 1_555
C54 C43 1_555 1_555
H24 C44 1_555 1_555
H25 C45 1_555 1_555
C55 C45 1_555 1_555
H26 C46 1_555 1_555
H27 C47 1_555 1_555
C56 C47 1_555 1_555
H28 C48 1_555 1_555
H29 C49 1_555 1_555
C57 C49 1_555 1_555
H30 C50 1_555 1_555
H31 C51 1_555 1_555
C58 C51 1_555 1_555
H32 C52 1_555 1_555
C59 C53 1_555 1_555
C60 C54 1_555 1_555
C61 C55 1_555 1_555
C62 C56 1_555 1_555
C63 C57 1_555 1_555
C64 C58 1_555 1_555
O26 C66 1_555 1_555
C65 C66 1_555 1_555
C67 C68 1_555 1_555
C68 N4 1_555 1_555
C69 N4 1_555 1_555
C70 N4 1_555 1_555
O27 C68 1_555 1_555
C71 C72 1_555 1_555
C72 N5 1_555 1_555
C73 N5 1_555 1_555
C74 N5 1_555 1_555
O29 C72 1_555 1_555
Pr1_2 O6 1_555 1_555
Pr1_3 O8 1_555 1_555
Pr1A O7 1_555 1_555
O6_2 Pr1 1_555 1_555
O7A Pr1 1_555 1_555
O8_2 Pr1 1_555 1_555
Pr2_2 O6 1_555 1_555
Pr2_3 O15 1_555 1_555
Pr2A O7 1_555 1_555
Pr3_2 O24 1_555 1_555
Pr3_3 O8 1_555 1_555
Pr3A O21 1_555 1_555
O15_2 Pr2 1_555 1_555
O16_2 Pr2 1_555 1_555
O17_2 Pr2 1_555 1_555
O18A Pr2 1_555 1_555
O21A Pr3 1_555 1_555
O22A Pr3 1_555 1_555
O23_2 Pr3 1_555 1_555
O24_2 Pr3 1_555 1_555
O25_2 Pr3 1_555 1_555
O4 N1 1_555 1_555
Pr2 O6_2 1_555 1_555
Pr2 O7A 1_555 1_555
Pr3 O8_2 1_555 1_555
O16 Pr2_3 1_555 1_555
O17 Pr2_2 1_555 1_555
O18 Pr2A 1_555 1_555
O22 Pr3A 1_555 1_555
O23 Pr3_3 1_555 1_555
O25 Pr3_2 1_555 1_555
C12 C17 1_555 1_555
C14 C18 1_555 1_555
C42 C53 1_555 1_555
C44 C54 1_555 1_555
C46 C55 1_555 1_555
C48 C56 1_555 1_555
C50 C57 1_555 1_555
C52 C58 1_555 1_555

#END
