
#######################################################################
#
#                 Cambridge Crystallographic Data Centre
#                                CCDC 
#
#######################################################################
#
# If this CIF has been generated from an entry in the Cambridge 
# Structural Database, then it will include bibliographic, chemical, 
# crystal, experimental, refinement or atomic coordinate data resulting 
# from the CCDC's data processing and validation procedures.
#
#######################################################################

data_YIZCER
_symmetry_cell_setting           monoclinic
_symmetry_space_group_name_H-M   'P 21/c'
_symmetry_Int_Tables_number      14
_space_group_name_Hall           '-P 2ybc'
loop_
_symmetry_equiv_pos_site_id
_symmetry_equiv_pos_as_xyz
1 x,y,z
2 -x,1/2+y,1/2-z
3 -x,-y,-z
4 x,1/2-y,1/2+z
_cell_length_a                   11.3988(2)
_cell_length_b                   17.3695(2)
_cell_length_c                   13.24337(19)
_cell_angle_alpha                90
_cell_angle_beta                 92.4376(15)
_cell_angle_gamma                90
_cell_volume                     2619.7
loop_
_atom_site_label
_atom_site_type_symbol
_atom_site_fract_x
_atom_site_fract_y
_atom_site_fract_z
Co1 Co 0.52981(5) 0.61206(3) 0.46144(4)
O1 O 0.4590(3) 0.42334(17) 0.3945(2)
O2 O 0.5266(3) 0.53733(16) 0.3452(2)
O3 O 0.4724(3) 0.23306(17) -0.0142(2)
O4 O 0.4723(3) 0.20646(16) 0.1465(2)
N1 N 0.7180(3) 0.60959(19) 0.4629(3)
N2 N 1.3414(3) 0.6109(2) 0.4612(3)
C1 C 0.4920(4) 0.4697(2) 0.3288(3)
C2 C 0.4885(4) 0.4427(2) 0.2214(3)
C3 C 0.4772(4) 0.3645(2) 0.2004(3)
H1 H 0.4689 0.3292 0.2523
C4 C 0.4785(4) 0.3401(2) 0.1006(3)
C5 C 0.4739(4) 0.2554(2) 0.0765(3)
C6 C 0.4867(4) 0.3928(2) 0.0233(3)
H2 H 0.4862 0.3752 -0.0431
C7 C 0.4957(4) 0.4719(2) 0.0418(3)
C8 C 0.4978(4) 0.4957(2) 0.1434(3)
H3 H 0.5055 0.5477 0.1587
C9 C 0.7845(5) 0.6249(5) 0.5417(5)
H4 H 0.7476 0.6361 0.6012
C10 C 0.9052(5) 0.6261(5) 0.5449(5)
H5 H 0.9461 0.6392 0.6047
C11 C 0.9650(5) 0.6083(4) 0.4621(4)
C12 C 1.0947(5) 0.6090(4) 0.4608(4)
C13 C 1.1637(5) 0.6237(4) 0.5473(4)
H6 H 1.1284 0.6323 0.6084
C14 C 1.2838(5) 0.6259(4) 0.5436(4)
H7 H 1.3272 0.6385 0.6024
C15 C 1.2753(5) 0.5961(4) 0.3780(4)
H8 H 1.3129 0.5867 0.3183
C16 C 1.1537(5) 0.5940(4) 0.3754(4)
H9 H 1.1122 0.5823 0.3153
C17 C 0.8954(5) 0.5929(5) 0.3808(5)
H10 H 0.9298 0.5832 0.3196
C18 C 0.7759(5) 0.5908(5) 0.3840(5)
H11 H 0.7333 0.5750 0.3262
O1B O 0.5410(3) 0.57666(17) -0.3945(2)
O2B O 0.4734(3) 0.46267(16) -0.3452(2)
O3B O 0.5276(3) 0.76694(17) 0.0142(2)
O4B O 0.5277(3) 0.79354(16) -0.1465(2)
C1B C 0.5080(4) 0.5303(2) -0.3288(3)
C2B C 0.5115(4) 0.5573(2) -0.2214(3)
C3B C 0.5228(4) 0.6355(2) -0.2004(3)
H1B H 0.5311 0.6708 -0.2523
C4B C 0.5215(4) 0.6599(2) -0.1006(3)
C5B C 0.5261(4) 0.7446(2) -0.0765(3)
C6B C 0.5133(4) 0.6072(2) -0.0233(3)
H2B H 0.5138 0.6248 0.0431
C7B C 0.5043(4) 0.5281(2) -0.0418(3)
C8B C 0.5022(4) 0.5043(2) -0.1434(3)
H3B H 0.4945 0.4523 -0.1587
Co1B Co 0.47019(5) 0.38794(3) -0.46144(4)
N1B N 0.2820(3) 0.39041(19) -0.4629(3)
N2B N -0.3414(3) 0.3891(2) -0.4612(3)
C9B C 0.2155(5) 0.3751(5) -0.5417(5)
H4B H 0.2524 0.3639 -0.6012
C10B C 0.0948(5) 0.3739(5) -0.5449(5)
H5B H 0.0539 0.3608 -0.6047
C11B C 0.0350(5) 0.3917(4) -0.4621(4)
C12B C -0.0947(5) 0.3910(4) -0.4608(4)
C13B C -0.1637(5) 0.3763(4) -0.5473(4)
H6B H -0.1284 0.3677 -0.6084
C14B C -0.2838(5) 0.3741(4) -0.5436(4)
H7B H -0.3272 0.3615 -0.6024
C15B C -0.2753(5) 0.4039(4) -0.3780(4)
H8B H -0.3129 0.4133 -0.3183
C16B C -0.1537(5) 0.4060(4) -0.3754(4)
H9B H -0.1122 0.4177 -0.3153
C17B C 0.1046(5) 0.4071(5) -0.3808(5)
H10B H 0.0702 0.4168 -0.3196
C18B C 0.2241(5) 0.4092(5) -0.3840(5)
H11B H 0.2667 0.4250 -0.3262
Co1_2 Co 0.52981(5) 0.61206(3) -0.53856(4)
Co1_3 Co 1.52981(5) 0.61206(3) 0.46144(4)
Co1A Co 0.47019(5) 0.11206(3) 0.03856(4)
Co1B_2 Co -0.52981(5) 0.38794(3) -0.46144(4)
Co1B_3 Co 0.47019(5) 0.38794(3) 0.53856(4)
Co1C Co 0.52981(5) 0.88794(3) -0.03856(4)
O1_2 O 0.4590(3) 0.42334(17) -0.6055(2)
O1B_2 O 0.5410(3) 0.57666(17) 0.6055(2)
O3A O 0.5276(3) 0.73306(17) 0.5142(2)
O3C O 0.4724(3) 0.26694(17) -0.5142(2)
O4A O 0.5277(3) 0.70646(16) 0.3535(2)
O4C O 0.4723(3) 0.29354(16) -0.3535(2)
N2_2 N 0.3414(3) 0.6109(2) 0.4612(3)
N2B_2 N 0.6586(3) 0.3891(2) -0.4612(3)
loop_
_geom_bond_atom_site_label_1
_geom_bond_atom_site_label_2
_geom_bond_site_symmetry_1
_geom_bond_site_symmetry_2
Co1 O2 1_555 1_555
O1 C1 1_555 1_555
O2 C1 1_555 1_555
O3 C5 1_555 1_555
O4 C5 1_555 1_555
N1 Co1 1_555 1_555
N2 C14 1_555 1_555
C1 C2 1_555 1_555
C2 C3 1_555 1_555
C3 H1 1_555 1_555
C4 C3 1_555 1_555
C5 C4 1_555 1_555
C6 C4 1_555 1_555
H2 C6 1_555 1_555
C7 C6 1_555 1_555
C8 C2 1_555 1_555
H3 C8 1_555 1_555
C9 N1 1_555 1_555
H4 C9 1_555 1_555
C10 C9 1_555 1_555
H5 C10 1_555 1_555
C11 C10 1_555 1_555
C12 C11 1_555 1_555
C13 C12 1_555 1_555
H6 C13 1_555 1_555
C14 C13 1_555 1_555
H7 C14 1_555 1_555
C15 N2 1_555 1_555
H8 C15 1_555 1_555
C16 C12 1_555 1_555
H9 C16 1_555 1_555
C17 C11 1_555 1_555
H10 C17 1_555 1_555
C18 N1 1_555 1_555
H11 C18 1_555 1_555
O1B C1B 1_555 1_555
O2B C1B 1_555 1_555
O3B C5B 1_555 1_555
O4B C5B 1_555 1_555
C1B C2B 1_555 1_555
C2B C3B 1_555 1_555
C3B H1B 1_555 1_555
C4B C3B 1_555 1_555
C5B C4B 1_555 1_555
C6B C4B 1_555 1_555
H2B C6B 1_555 1_555
C7B C7 1_555 1_555
C8B C2B 1_555 1_555
H3B C8B 1_555 1_555
Co1B O2B 1_555 1_555
N1B Co1B 1_555 1_555
N2B C14B 1_555 1_555
C9B N1B 1_555 1_555
H4B C9B 1_555 1_555
C10B C9B 1_555 1_555
H5B C10B 1_555 1_555
C11B C10B 1_555 1_555
C12B C11B 1_555 1_555
C13B C12B 1_555 1_555
H6B C13B 1_555 1_555
C14B C13B 1_555 1_555
H7B C14B 1_555 1_555
C15B N2B 1_555 1_555
H8B C15B 1_555 1_555
C16B C12B 1_555 1_555
H9B C16B 1_555 1_555
C17B C11B 1_555 1_555
H10B C17B 1_555 1_555
C18B N1B 1_555 1_555
H11B C18B 1_555 1_555
Co1_2 O1B 1_555 1_555
Co1_3 N2 1_555 1_555
Co1A O3 1_555 1_555
Co1B_2 N2B 1_555 1_555
Co1B_3 O1 1_555 1_555
Co1C O3B 1_555 1_555
O1_2 Co1B 1_555 1_555
O1B_2 Co1 1_555 1_555
O3A Co1 1_555 1_555
O3C Co1B 1_555 1_555
O4A Co1 1_555 1_555
O4C Co1B 1_555 1_555
N2_2 Co1 1_555 1_555
N2B_2 Co1B 1_555 1_555
O4 Co1A 1_555 1_555
C7 C8 1_555 1_555
C15 C16 1_555 1_555
C17 C18 1_555 1_555
O4B Co1C 1_555 1_555
C6B C7B 1_555 1_555
C7B C8B 1_555 1_555
C15B C16B 1_555 1_555
C17B C18B 1_555 1_555

#END
