
#######################################################################
#
#                 Cambridge Crystallographic Data Centre
#                                CCDC 
#
#######################################################################
#
# If this CIF has been generated from an entry in the Cambridge 
# Structural Database, then it will include bibliographic, chemical, 
# crystal, experimental, refinement or atomic coordinate data resulting 
# from the CCDC's data processing and validation procedures.
#
#######################################################################

data_YOFFUW
_symmetry_cell_setting           monoclinic
_symmetry_space_group_name_H-M   'P c'
_symmetry_Int_Tables_number      7
_space_group_name_Hall           'P -2yc'
loop_
_symmetry_equiv_pos_site_id
_symmetry_equiv_pos_as_xyz
1 x,y,z
2 x,-y,1/2+z
_cell_length_a                   18.3253(16)
_cell_length_b                   8.2754(7)
_cell_length_c                   21.0402(19)
_cell_angle_alpha                90
_cell_angle_beta                 95.401(2)
_cell_angle_gamma                90
_cell_volume                     3176.56
loop_
_atom_site_label
_atom_site_type_symbol
_atom_site_fract_x
_atom_site_fract_y
_atom_site_fract_z
U1 U 0.758181(16) 0.56370(4) 0.790922(15)
U2 U 0.271088(16) 0.57038(4) 0.771021(15)
S1 S 0.87076(14) 1.0542(3) 0.92473(13)
S2 S 0.10851(15) 0.0604(3) 0.82279(14)
S3 S 0.50556(13) 0.4996(3) 0.63606(12)
O1 O 0.3160(4) 0.4885(8) 0.8425(3)
O2 O 0.8197(4) 0.4830(8) 0.7404(4)
O3 O 0.3736(4) 0.4799(8) 0.7059(4)
O4 O 0.6510(4) 0.4576(7) 0.7249(3)
O5 O 0.8585(3) 0.7074(7) 0.8564(3)
O6 O 0.8163(4) 1.3891(7) 0.8779(3)
O7 O 0.6915(4) 0.6936(8) 0.6987(3)
O8 O 0.6978(3) 0.6457(8) 0.8422(3)
O9 O 0.7215(3) 1.2886(8) 0.8225(3)
O10 O 0.1681(3) 0.3936(7) 0.7888(3)
O11 O 0.8055(4) 0.8382(7) 0.7771(3)
O12 O 0.2798(4) -0.1540(8) 0.8147(4)
O13 O 0.2252(3) 0.6491(8) 0.7004(3)
O14 O 0.3821(3) 0.7185(8) 0.7512(3)
O15 O 0.1846(3) -0.2943(7) 0.8340(3)
O16 O 0.2503(4) 0.2902(8) 0.7322(3)
C1 C 0.5966(5) 0.5769(12) 0.6278(5)
H1 H 0.6186 0.5127 0.5947
H2 H 0.5922 0.6897 0.6123
C2 C 0.6480(5) 0.5739(11) 0.6876(4)
C3 C 0.7772(5) 1.1227(11) 0.9055(5)
H3 H 0.7489 1.0359 0.882
H4 H 0.7545 1.1426 0.9457
C4 C 0.1918(5) 0.2783(11) 0.7589(4)
C5 C 0.2189(5) -0.1621(11) 0.8383(4)
C6 C 0.8917(5) 0.9896(11) 0.8466(5)
H5 H 0.8787 1.0768 0.8154
H6 H 0.9451 0.9698 0.8474
C7 C 0.4062(5) 0.6101(12) 0.7166(5)
C8 C 0.7718(5) 1.2729(10) 0.8662(5)
C9 C 0.1474(5) 0.1230(12) 0.7514(5)
H7 H 0.1794 0.0355 0.7379
H8 H 0.1072 0.1382 0.717
C10 C 0.8506(5) 0.8368(11) 0.8253(5)
C11 C 0.4822(5) 0.6423(12) 0.6936(5)
H9 H 0.5196 0.6391 0.7307
H10 H 0.4827 0.752 0.6748
C12 C 0.1893(6) -0.0165(11) 0.8684(5)
H11 H 0.2274 0.0687 0.8723
H12 H 0.1772 -0.0442 0.912
U1_2 U 0.758181(16) 1.56370(4) 0.790922(15)
U2_2 U 0.271088(16) -0.42962(4) 0.771021(15)
O6_2 O 0.8163(4) 0.3891(7) 0.8779(3)
O9_2 O 0.7215(3) 0.2886(8) 0.8225(3)
O12_2 O 0.2798(4) 0.8460(8) 0.8147(4)
O15_2 O 0.1846(3) 0.7057(7) 0.8340(3)
U3 U 0.589339(16) 0.03679(4) 0.510489(15)
U4 U 1.077804(17) -0.01376(4) 0.542730(16)
S4 S 0.48889(14) -0.4845(3) 0.37026(12)
S5 S 1.24647(14) -0.5103(3) 0.49513(13)
S6 S 0.84113(12) 0.1514(3) 0.65249(12)
O17 O 0.6980(4) -0.0439(8) 0.5786(3)
O18 O 1.1720(3) -0.1685(7) 0.4919(3)
O19 O 0.9661(3) -0.1520(7) 0.5697(3)
O20 O 1.1845(3) -0.8473(7) 0.5274(3)
O21 O 0.6286(3) -0.2385(7) 0.4834(3)
O22 O 0.5248(3) -0.1572(7) 0.4332(3)
O23 O 0.6538(3) 0.1942(7) 0.5962(3)
O24 O 0.5327(4) -0.0362(8) 0.5676(4)
O25 O 1.0366(4) 0.0544(8) 0.4686(4)
O26 O 0.9760(4) 0.1021(8) 0.5965(4)
O27 O 1.1183(4) -0.0837(8) 0.6163(3)
O28 O 1.1008(3) -0.7338(7) 0.5792(3)
O29 O 0.5466(3) -0.6810(7) 0.5147(3)
O30 O 1.0687(3) -0.2955(7) 0.4999(3)
O31 O 0.4843(3) -0.8344(7) 0.4444(3)
O32 O 0.6457(3) 0.1069(8) 0.4529(3)
C13 C 0.4554(5) -0.5514(10) 0.4441(4)
H13 H 0.4607 -0.4631 0.4759
H14 H 0.4028 -0.579 0.4365
C14 C 1.1639(6) -0.4371(11) 0.4505(5)
H15 H 1.1749 -0.4072 0.4069
H16 H 1.1268 -0.5245 0.4468
C15 C 0.4974(4) -0.6959(11) 0.4696(4)
C16 C 0.6990(5) 0.0820(10) 0.6126(4)
C17 C 0.5774(5) -0.4085(11) 0.3997(5)
H17 H 0.6043 -0.4951 0.4244
H18 H 0.6051 -0.3828 0.3628
C18 C 0.9399(5) -0.0295(11) 0.5943(5)
C19 C 0.7494(4) 0.1001(11) 0.6712(4)
H19 H 0.7509 -0.0022 0.6956
H20 H 0.7309 0.186 0.6983
C20 C 0.5763(5) -0.2612(10) 0.4411(4)
C21 C 0.8678(5) -0.0403(11) 0.6217(5)
H21 H 0.8711 -0.1213 0.6564
H22 H 0.8299 -0.077 0.5882
C22 C 1.1324(5) -0.2913(11) 0.4824(4)
C23 C 1.2080(5) -0.5751(10) 0.5661(4)
H23 H 1.2482 -0.594 0.6
H24 H 1.1768 -0.4875 0.5807
C24 C 1.1627(5) -0.7271(11) 0.5569(4)
U3_2 U 0.589339(16) -0.96321(4) 0.510489(15)
U4_2 U 1.077804(17) -1.01376(4) 0.542730(16)
O20_2 O 1.1845(3) 0.1527(7) 0.5274(3)
O28_2 O 1.1008(3) 0.2662(7) 0.5792(3)
O29_2 O 0.5466(3) 0.3190(7) 0.5147(3)
O31_2 O 0.4843(3) 0.1656(7) 0.4444(3)
O33 O 0.9656(4) -0.4368(10) 0.4122(4)
H25 H 0.922(3) -0.375(11) 0.407(5)
H26 H 0.980(5) -0.403(12) 0.455(2)
O34 O 1.3652(4) -0.2004(9) 0.4166(4)
H27 H 1.4176(12) -0.204(13) 0.421(5)
H28 H 1.340(5) -0.287(8) 0.394(4)
N1 N -0.0013(5) 0.5044(10) 0.7943(4)
H29 H -0.0135 0.4841 0.8329
C25 C 0.0289(5) 0.6496(12) 0.7820(6)
H30 H 0.0375 0.7266 0.8153
C26 C 0.0355(6) 0.5677(12) 0.6764(5)
H31 H 0.0484 0.5892 0.6346
C27 C -0.0126(5) 0.3954(13) 0.7505(5)
H32 H -0.0341 0.295 0.7601
C28 C 0.0065(6) 0.4243(12) 0.6900(5)
H33 H -0.0007 0.3435 0.658
C29 C 0.0466(5) 0.6850(12) 0.7238(5)
H34 H 0.0663 0.7877 0.7147
N2 N 1.3557(6) 0.0490(12) 0.5238(5)
H35 H 1.3682 0.0721 0.4854
C30 C 1.3266(4) -0.0942(11) 0.5357(4)
H36 H 1.3215 -0.1728 0.5027
C31 C 1.3053(6) -0.1292(14) 0.5906(5)
H37 H 1.284 -0.2321 0.5965
C32 C 1.3661(6) 0.1621(13) 0.5733(6)
H38 H 1.3896 0.2623 0.5668
C33 C 1.3418(5) 0.1258(14) 0.6313(5)
H39 H 1.3456 0.2043 0.6644
C34 C 1.3124(6) -0.0209(14) 0.6420(5)
H40 H 1.2974 -0.0491 0.6825
N3 N 0.4921(5) 0.0628(10) 0.3184(4)
H41 H 0.4702 0.1251 0.3446
C35 C 0.5601(7) -0.1286(14) 0.2400(6)
H42 H 0.5843 -0.1965 0.2122
C36 C 0.4542(6) -0.0541(14) 0.2885(6)
H43 H 0.4039 -0.0691 0.2943
C37 C 0.5616(6) 0.0902(11) 0.3106(5)
H44 H 0.5867 0.1771 0.3325
C38 C 0.5970(6) -0.0055(16) 0.2713(5)
H45 H 0.6472 0.0132 0.2657
C39 C 0.4888(6) -0.1543(14) 0.2486(5)
H46 H 0.4627 -0.2409 0.2272
N4 N 0.8564(5) 0.6581(12) 0.9940(4)
H47 H 0.8795 0.7263 0.9708
C40 C 0.8964(6) 0.5615(12) 1.0334(5)
H48 H 0.9483 0.5676 1.037
C41 C 0.7484(6) 0.5526(13) 1.0201(6)
H49 H 0.6964 0.5482 1.0146
C42 C 0.8621(6) 0.4544(12) 1.0684(6)
H50 H 0.8897 0.3836 1.0969
C43 C 0.7838(6) 0.6583(14) 0.9873(5)
H51 H 0.7577 0.733 0.9594
C44 C 0.7870(7) 0.4481(14) 1.0626(7)
H52 H 0.7619 0.3738 1.0872
loop_
_geom_bond_atom_site_label_1
_geom_bond_atom_site_label_2
_geom_bond_site_symmetry_1
_geom_bond_site_symmetry_2
U1 O2 1_555 1_555
U2 O1 1_555 1_555
S1 C3 1_555 1_555
S2 C9 1_555 1_555
S3 C1 1_555 1_555
O3 U2 1_555 1_555
O4 U1 1_555 1_555
O5 U1 1_555 1_555
O6 C8 1_555 1_555
O7 U1 1_555 1_555
O8 U1 1_555 1_555
O9 C8 1_555 1_555
O10 U2 1_555 1_555
O11 U1 1_555 1_555
O12 C5 1_555 1_555
O13 U2 1_555 1_555
O14 U2 1_555 1_555
O15 C5 1_555 1_555
O16 U2 1_555 1_555
C1 H1 1_555 1_555
H2 C1 1_555 1_555
C2 O4 1_555 1_555
C3 H3 1_555 1_555
H4 C3 1_555 1_555
C4 O10 1_555 1_555
C5 C12 1_555 1_555
C6 S1 1_555 1_555
H5 C6 1_555 1_555
H6 C6 1_555 1_555
C7 O3 1_555 1_555
C8 C3 1_555 1_555
C9 C4 1_555 1_555
H7 C9 1_555 1_555
H8 C9 1_555 1_555
C10 O5 1_555 1_555
C11 S3 1_555 1_555
H9 C11 1_555 1_555
H10 C11 1_555 1_555
C12 S2 1_555 1_555
H11 C12 1_555 1_555
H12 C12 1_555 1_555
U3 O17 1_555 1_555
U4 O18 1_555 1_555
S4 C13 1_555 1_555
S5 C14 1_555 1_555
S6 C19 1_555 1_555
O17 C16 1_555 1_555
O18 C22 1_555 1_555
O19 U4 1_555 1_555
O20 C24 1_555 1_555
O21 U3 1_555 1_555
O22 U3 1_555 1_555
O23 U3 1_555 1_555
O24 U3 1_555 1_555
O25 U4 1_555 1_555
O26 U4 1_555 1_555
O27 U4 1_555 1_555
O28 C24 1_555 1_555
O29 C15 1_555 1_555
O30 U4 1_555 1_555
O31 C15 1_555 1_555
O32 U3 1_555 1_555
C13 H13 1_555 1_555
H14 C13 1_555 1_555
C14 H15 1_555 1_555
H16 C14 1_555 1_555
C15 C13 1_555 1_555
C16 O23 1_555 1_555
C17 S4 1_555 1_555
H17 C17 1_555 1_555
H18 C17 1_555 1_555
C18 O19 1_555 1_555
C19 C16 1_555 1_555
H19 C19 1_555 1_555
H20 C19 1_555 1_555
C20 O21 1_555 1_555
C21 S6 1_555 1_555
H21 C21 1_555 1_555
H22 C21 1_555 1_555
C22 O30 1_555 1_555
C23 S5 1_555 1_555
H23 C23 1_555 1_555
H24 C23 1_555 1_555
C24 C23 1_555 1_555
O33 H25 1_555 1_555
H26 O33 1_555 1_555
O34 H27 1_555 1_555
H28 O34 1_555 1_555
N1 H29 1_555 1_555
C25 N1 1_555 1_555
H30 C25 1_555 1_555
C26 H31 1_555 1_555
C27 N1 1_555 1_555
H32 C27 1_555 1_555
C28 C26 1_555 1_555
H33 C28 1_555 1_555
C29 C25 1_555 1_555
H34 C29 1_555 1_555
N2 H35 1_555 1_555
C30 N2 1_555 1_555
H36 C30 1_555 1_555
C31 C30 1_555 1_555
H37 C31 1_555 1_555
C32 N2 1_555 1_555
H38 C32 1_555 1_555
C33 C32 1_555 1_555
H39 C33 1_555 1_555
C34 C31 1_555 1_555
H40 C34 1_555 1_555
N3 H41 1_555 1_555
C35 H42 1_555 1_555
C36 N3 1_555 1_555
H43 C36 1_555 1_555
C37 N3 1_555 1_555
H44 C37 1_555 1_555
C38 C35 1_555 1_555
H45 C38 1_555 1_555
C39 C35 1_555 1_555
H46 C39 1_555 1_555
N4 H47 1_555 1_555
C40 N4 1_555 1_555
H48 C40 1_555 1_555
C41 H49 1_555 1_555
C42 C40 1_555 1_555
H50 C42 1_555 1_555
C43 N4 1_555 1_555
H51 C43 1_555 1_555
C44 C41 1_555 1_555
H52 C44 1_555 1_555
U1_2 O6 1_555 1_555
U2_2 O12 1_555 1_555
O6_2 U1 1_555 1_555
O9_2 U1 1_555 1_555
O12_2 U2 1_555 1_555
O15_2 U2 1_555 1_555
U3_2 O29 1_555 1_555
U4_2 O20 1_555 1_555
O20_2 U4 1_555 1_555
O28_2 U4 1_555 1_555
O29_2 U3 1_555 1_555
O31_2 U3 1_555 1_555
O7 C2 1_555 1_555
O9 U1_2 1_555 1_555
O11 C10 1_555 1_555
O14 C7 1_555 1_555
O15 U2_2 1_555 1_555
O16 C4 1_555 1_555
C1 C2 1_555 1_555
C6 C10 1_555 1_555
C7 C11 1_555 1_555
O22 C20 1_555 1_555
O26 C18 1_555 1_555
O28 U4_2 1_555 1_555
O31 U3_2 1_555 1_555
C14 C22 1_555 1_555
C17 C20 1_555 1_555
C18 C21 1_555 1_555
C26 C29 1_555 1_555
C27 C28 1_555 1_555
C33 C34 1_555 1_555
C36 C39 1_555 1_555
C37 C38 1_555 1_555
C41 C43 1_555 1_555
C42 C44 1_555 1_555

#END
