
#######################################################################
#
#                 Cambridge Crystallographic Data Centre
#                                CCDC 
#
#######################################################################
#
# If this CIF has been generated from an entry in the Cambridge 
# Structural Database, then it will include bibliographic, chemical, 
# crystal, experimental, refinement or atomic coordinate data resulting 
# from the CCDC's data processing and validation procedures.
#
#######################################################################

data_YORGIX
_symmetry_cell_setting           triclinic
_symmetry_space_group_name_H-M   'P -1'
_symmetry_Int_Tables_number      2
_space_group_name_Hall           '-P 1'
loop_
_symmetry_equiv_pos_site_id
_symmetry_equiv_pos_as_xyz
1 x,y,z
2 -x,-y,-z
_cell_length_a                   15.558(4)
_cell_length_b                   15.599(4)
_cell_length_c                   16.283(4)
_cell_angle_alpha                89.943(7)
_cell_angle_beta                 89.961(6)
_cell_angle_gamma                83.859(7)
_cell_volume                     3929.03
loop_
_atom_site_label
_atom_site_type_symbol
_atom_site_fract_x
_atom_site_fract_y
_atom_site_fract_z
Zn1 Zn 0.12408(6) 0.51006(7) 0.03651(6)
Zn2 Zn -0.37594(7) 0.51047(9) 0.46352(6)
N1 N 0.1195(4) 0.6478(5) 0.0331(4)
N2 N 0.1236(5) 1.3800(7) 0.0377(5)
C1 C 0.1166(7) 0.8250(7) 0.0364(7)
N3 N -0.3764(5) 0.3822(6) 0.4618(5)
N4 N -0.3824(5) -0.3582(5) 0.4672(5)
C2 C 0.0770(9) 0.6976(8) 0.0936(8)
H1 H 0.0488 0.6707 0.1352
C3 C 0.0755(8) 0.7814(8) 0.0943(8)
H2 H 0.0452 0.8124 0.1358
C4 C 0.1552(8) 0.6866(8) -0.0221(7)
H3 H 0.1818 0.6543 -0.0647
C5 C 0.1067(11) 0.9677(11) 0.1063(10)
H4 H 0.0948 0.9398 0.1549
C6 C 0.1223(10) 0.9652(8) -0.0340(9)
H5 H 0.1176 0.9364 -0.0835
C7 C 0.1094(11) 1.0568(10) 0.1039(10)
H6 H 0.1024 1.0878 0.1527
C8 C -0.3741(13) -0.0309(15) 0.5337(13)
H7 H -0.3723 -0.0600 0.5836
C9 C -0.3665(16) 0.0548(18) 0.5341(16)
H8 H -0.3514 0.0815 0.5822
C10 C -0.3944(14) 0.0586(15) 0.3940(14)
H9 H -0.4048 0.0892 0.3453
C11 C 0.0876(10) 1.2468(10) 0.0981(9)
H10 H 0.0669 1.2190 0.1435
O1 O 0.0744(6) 0.5075(8) 0.4006(5)
O2 O 0.5725(6) 0.5079(8) 0.0998(5)
C12 C 0.1617(9) 1.3245(9) -0.0200(7)
H11 H 0.1931 1.3487 -0.0610
C13 C 0.0021(9) 0.5145(11) 0.3530(8)
C14 C 0.5005(10) 0.5237(12) 0.1493(8)
C15 C 0.4236(7) 0.5075(10) 0.1126(8)
H12 H 0.4216 0.4990 0.0561
C16 C -0.0773(7) 0.5048(10) 0.3894(8)
H13 H -0.0814 0.4991 0.4461
C17 C 0.6447(11) 0.5632(9) 0.1294(12)
H14 H 0.6633 0.5399 0.1825
H15 H 0.6930 0.5494 0.0924
C18 C 0.3552(7) 0.5092(8) 0.2411(6)
H16 H 0.3044 0.5122 0.2715
C19 C 0.0083(7) 0.5134(9) 0.2624(6)
H17 H 0.0608 0.5151 0.2354
C20 C 0.1584(9) 1.2396(9) -0.0237(9)
H18 H 0.1817 1.2093 -0.0691
C21 C 0.1293(10) 1.0567(10) -0.0346(10)
H19 H 0.1391 1.0852 -0.0833
C22 C -0.3765(8) 0.1960(9) 0.4622(8)
C23 C -0.3814(11) 0.1021(13) 0.4630(11)
C24 C -0.0603(7) 0.5037(8) 0.1279(6)
C25 C 0.5076(7) 0.5160(8) 0.2379(6)
H20 H 0.5608 0.5148 0.2642
C26 C -0.3465(10) -0.3095(10) 0.5221(8)
H21 H -0.3185 -0.3397 0.5655
C27 C 0.1229(8) 1.1973(7) 0.0356(7)
C28 C 0.1223(8) 0.9222(7) 0.0345(7)
C29 C 0.1215(7) 1.0989(7) 0.0356(7)
O3 O -0.1258(3) 0.4912(4) 0.0861(3)
O4 O 0.3728(5) 0.4934(6) 0.4153(4)
O5 O 0.2625(4) 0.5022(5) 0.0404(4)
O6 O -0.2384(4) 0.4999(5) 0.4600(4)
O7 O 0.1976(4) 0.5062(5) 0.1618(4)
O8 O -0.3023(4) 0.5068(5) 0.3391(4)
C30 C -0.3817(10) -0.1764(10) 0.4636(9)
C31 C -0.3845(11) -0.0784(12) 0.4613(11)
C32 C -0.2367(6) 0.5046(7) 0.3842(6)
C33 C 0.2627(6) 0.5038(7) 0.1149(6)
C34 C -0.3384(10) 0.3241(9) 0.5192(7)
H22 H -0.3075 0.3477 0.5608
C35 C -0.3929(14) -0.0335(14) 0.3924(11)
H23 H -0.3979 -0.0618 0.3427
C36 C -0.3404(10) 0.2347(9) 0.5227(9)
H24 H -0.3166 0.2032 0.5673
C37 C -0.1493(7) 0.5038(10) 0.3412(7)
C38 C -0.3444(11) -0.2235(10) 0.5245(9)
H25 H -0.3176 -0.1977 0.5675
C39 C 0.1575(15) 0.7677(10) -0.0235(11)
H26 H 0.1875 0.7910 -0.0660
C40 C 0.0807(9) 1.3348(10) 0.0985(7)
H27 H 0.0477 1.3653 0.1386
C41 C -0.4253(9) -0.3058(10) 0.4061(8)
H28 H -0.4551 -0.3317 0.3651
C42 C -0.4168(10) 0.3348(11) 0.4002(7)
H29 H -0.4483 0.3650 0.3590
O9 O 0.5092(4) 0.5230(5) 0.4028(4)
O10 O 0.0103(4) 0.5229(5) 0.0976(4)
C43 C -0.0673(6) 0.5096(9) 0.2206(6)
C44 C 0.3501(6) 0.5039(10) 0.1590(6)
C45 C 0.4319(7) 0.5105(10) 0.2821(6)
C46 C -0.1431(7) 0.5015(8) 0.2576(6)
H30 H -0.1916 0.4941 0.2261
C47 C -0.4108(14) 0.2455(11) 0.3998(10)
H31 H -0.4314 0.2183 0.3541
C48 C -0.4249(10) -0.2168(10) 0.4048(9)
H32 H -0.4542 -0.1846 0.3635
C49 C 0.4406(6) 0.5107(7) 0.3715(6)
C50 C 0.6355(14) 0.6617(10) 0.1392(14)
C51 C 0.1403(10) 0.5735(9) 0.3737(10)
H33 H 0.1854 0.5637 0.4149
H34 H 0.1655 0.5472 0.3241
C52 C 0.1398(11) 0.6692(10) 0.3558(11)
C53 C 0.1802(13) 0.6820(10) 0.2874(13)
H35 H 0.2008 0.6410 0.2487
C54 C 0.6173(19) 0.722(2) 0.0868(19)
H36 H 0.5882 0.7027 0.0419
C55 C 0.629(2) 0.811(2) 0.0775(12)
H37 H 0.6299 0.8463 0.0312
C56 C 0.6764 0.6803 0.2069
H38 H 0.6974 0.6385 0.2447
C57 C 0.6860 0.7729 0.2178
H39 H 0.7209 0.7931 0.2582
C58 C 0.1183 0.7198 0.4176
C59 C 0.1176 0.6958 0.5019
H40 H 0.1170 0.6371 0.5115
C60 C 0.130(2) 0.858(2) 0.477(2)
H41 H 0.1521 0.9104 0.4720
C61 C 0.1201(19) 0.8109(12) 0.400(2)
C62 C 0.1462(15) 0.8455(17) 0.3318(15)
H42 H 0.1403 0.9034 0.3170
C63 C 0.6372(16) 0.8291(15) 0.1612(10)
H43 H 0.6094 0.8805 0.1814
C64 C 0.186(2) 0.7730(11) 0.2849(19)
H44 H 0.2236 0.7890 0.2445
C65 C 0.113(2) 0.837(3) 0.544(3)
H45 H 0.0927 0.8833 0.5776
C66 C 0.118(3) 0.755(3) 0.584(3)
H46 H 0.1201 0.7398 0.6389
Zn1_2 Zn 0.12408(6) 1.51006(7) 0.03651(6)
Zn1A Zn -0.12408(6) 0.48994(7) -0.03651(6)
Zn2_2 Zn -0.37594(7) -0.48953(9) 0.46352(6)
Zn2_3 Zn 0.62406(7) 0.51047(9) 0.46352(6)
Zn2A Zn 0.37594(7) 0.48953(9) 0.53648(6)
N2_2 N 0.1236(5) 0.3800(7) 0.0377(5)
N4_2 N -0.3824(5) 0.6418(5) 0.4672(5)
O3A O 0.1258(3) 0.5088(4) -0.0861(3)
O4A O -0.3728(5) 0.5066(6) 0.5847(4)
O9_2 O -0.4908(4) 0.5230(5) 0.4028(4)
loop_
_geom_bond_atom_site_label_1
_geom_bond_atom_site_label_2
_geom_bond_site_symmetry_1
_geom_bond_site_symmetry_2
Zn1 N1 1_555 1_555
Zn2 N3 1_555 1_555
N1 C2 1_555 1_555
N2 C12 1_555 1_555
C1 C3 1_555 1_555
N3 C34 1_555 1_555
N4 C26 1_555 1_555
C2 H1 1_555 1_555
C3 C2 1_555 1_555
H2 C3 1_555 1_555
C4 N1 1_555 1_555
H3 C4 1_555 1_555
C5 H4 1_555 1_555
C6 H5 1_555 1_555
C7 C5 1_555 1_555
H6 C7 1_555 1_555
C8 H7 1_555 1_555
C9 C8 1_555 1_555
H8 C9 1_555 1_555
C10 H9 1_555 1_555
C11 H10 1_555 1_555
O1 C13 1_555 1_555
O2 C14 1_555 1_555
C12 H11 1_555 1_555
C13 C16 1_555 1_555
C14 C15 1_555 1_555
C15 H12 1_555 1_555
C16 H13 1_555 1_555
C17 O2 1_555 1_555
H14 C17 1_555 1_555
H15 C17 1_555 1_555
C18 H16 1_555 1_555
C19 C13 1_555 1_555
H17 C19 1_555 1_555
C20 C12 1_555 1_555
H18 C20 1_555 1_555
C21 C6 1_555 1_555
H19 C21 1_555 1_555
C22 C23 1_555 1_555
C23 C9 1_555 1_555
C24 O3 1_555 1_555
C25 C14 1_555 1_555
H20 C25 1_555 1_555
C26 H21 1_555 1_555
C27 C11 1_555 1_555
C28 C1 1_555 1_555
C29 C7 1_555 1_555
O3 Zn1A 1_555 1_555
O4 C49 1_555 1_555
O5 Zn1 1_555 1_555
O6 Zn2 1_555 1_555
O7 Zn1 1_555 1_555
O8 Zn2 1_555 1_555
C30 C31 1_555 1_555
C31 C8 1_555 1_555
C32 O6 1_555 1_555
C33 O5 1_555 1_555
C34 H22 1_555 1_555
C35 C10 1_555 1_555
H23 C35 1_555 1_555
C36 C22 1_555 1_555
H24 C36 1_555 1_555
C37 C16 1_555 1_555
C38 C26 1_555 1_555
H25 C38 1_555 1_555
C39 C1 1_555 1_555
H26 C39 1_555 1_555
C40 N2 1_555 1_555
H27 C40 1_555 1_555
C41 N4 1_555 1_555
H28 C41 1_555 1_555
C42 N3 1_555 1_555
H29 C42 1_555 1_555
O9 C49 1_555 1_555
O10 Zn1 1_555 1_555
C43 C19 1_555 1_555
C44 C15 1_555 1_555
C45 C18 1_555 1_555
C46 C37 1_555 1_555
H30 C46 1_555 1_555
C47 C22 1_555 1_555
H31 C47 1_555 1_555
C48 C30 1_555 1_555
H32 C48 1_555 1_555
C49 C45 1_555 1_555
C50 C17 1_555 1_555
C51 O1 1_555 1_555
H33 C51 1_555 1_555
H34 C51 1_555 1_555
C52 C51 1_555 1_555
C53 C52 1_555 1_555
H35 C53 1_555 1_555
C54 C50 1_555 1_555
H36 C54 1_555 1_555
C55 C54 1_555 1_555
H37 C55 1_555 1_555
C56 C50 1_555 1_555
H38 C56 1_555 1_555
C57 C56 1_555 1_555
H39 C57 1_555 1_555
C58 C52 1_555 1_555
C59 C58 1_555 1_555
H40 C59 1_555 1_555
C60 H41 1_555 1_555
C61 C58 1_555 1_555
C62 C61 1_555 1_555
H42 C62 1_555 1_555
C63 C55 1_555 1_555
H43 C63 1_555 1_555
C64 C53 1_555 1_555
H44 C64 1_555 1_555
C65 C60 1_555 1_555
H45 C65 1_555 1_555
C66 C59 1_555 1_555
H46 C66 1_555 1_555
Zn1_2 N2 1_555 1_555
Zn2_2 N4 1_555 1_555
Zn2_3 O9 1_555 1_555
Zn2A O4 1_555 1_555
N2_2 Zn1 1_555 1_555
N4_2 Zn2 1_555 1_555
O3A Zn1 1_555 1_555
O4A Zn2 1_555 1_555
O9_2 Zn2 1_555 1_555
C4 C39 1_555 1_555
C5 C28 1_555 1_555
C6 C28 1_555 1_555
C10 C23 1_555 1_555
C11 C40 1_555 1_555
C18 C44 1_555 1_555
C20 C27 1_555 1_555
C21 C29 1_555 1_555
C24 O10 1_555 1_555
C24 C43 1_555 1_555
C25 C45 1_555 1_555
C27 C29 1_555 1_555
O7 C33 1_555 1_555
O8 C32 1_555 1_555
C30 C38 1_555 1_555
C31 C35 1_555 1_555
C32 C37 1_555 1_555
C33 C44 1_555 1_555
C34 C36 1_555 1_555
C41 C48 1_555 1_555
C42 C47 1_555 1_555
C43 C46 1_555 1_555
C57 C63 1_555 1_555
C60 C61 1_555 1_555
C62 C64 1_555 1_555
C65 C66 1_555 1_555

#END
