
#######################################################################
#
#                 Cambridge Crystallographic Data Centre
#                                CCDC 
#
#######################################################################
#
# If this CIF has been generated from an entry in the Cambridge 
# Structural Database, then it will include bibliographic, chemical, 
# crystal, experimental, refinement or atomic coordinate data resulting 
# from the CCDC's data processing and validation procedures.
#
#######################################################################

data_YOVNOO
_symmetry_cell_setting           monoclinic
_symmetry_space_group_name_H-M   'P 21/n'
_symmetry_Int_Tables_number      14
_space_group_name_Hall           '-P 2yn'
loop_
_symmetry_equiv_pos_site_id
_symmetry_equiv_pos_as_xyz
1 x,y,z
2 1/2-x,1/2+y,1/2-z
3 -x,-y,-z
4 1/2+x,1/2-y,1/2+z
_cell_length_a                   8.8570(15)
_cell_length_b                   31.574(5)
_cell_length_c                   16.097(3)
_cell_angle_alpha                90
_cell_angle_beta                 92.152(5)
_cell_angle_gamma                90
_cell_volume                     4498.37
loop_
_atom_site_label
_atom_site_type_symbol
_atom_site_fract_x
_atom_site_fract_y
_atom_site_fract_z
Ni1 Ni 1.17577(3) 0.833934(7) 0.482534(14)
C1 C 0.9968(2) 0.88804(6) 0.36405(11)
H1 H 1.0884 0.8959 0.3393
C2 C 0.4644(3) 0.93916(7) -0.48067(12)
H2 H 0.5374 0.9591 -0.4976
C3 C 1.3123(2) 0.84008(6) 0.30302(12)
C4 C 0.3168(2) 0.90045(6) -0.40552(11)
H3 H 0.2680 0.8889 -0.3591
C5 C 0.6842(2) 0.94111(6) 0.13685(12)
H4 H 0.6000 0.9356 0.1001
C6 C 0.7842(2) 0.97365(6) 0.11775(11)
C7 C 1.4128(2) 0.81889(6) 0.16380(11)
H5 H 1.4036 0.8476 0.1466
C8 C 1.3950(3) 0.76545(7) 0.26971(13)
H6 H 1.3705 0.7575 0.3245
C9 C 1.4502(3) 0.73506(7) 0.21559(13)
H7 H 1.4664 0.7068 0.2341
C10 C 1.5374(2) 0.71375(6) 0.07438(11)
C11 C 0.8286(2) 0.92479(6) 0.26194(11)
C12 C 0.7048(2) 0.91663(6) 0.20821(12)
H8 H 0.6355 0.8947 0.2202
C13 C 1.3756(2) 0.80742(6) 0.24380(12)
C14 C 0.7614(2) 1.00018(6) 0.04214(11)
C15 C 1.4815(2) 0.74643(6) 0.13390(11)
C16 C 1.1318(2) 1.25446(6) -0.01651(12)
H9 H 1.2184 1.2368 -0.0108
C17 C 0.8304(2) 1.18342(7) 0.02921(13)
H10 H 0.7881 1.2031 0.0664
C18 C 0.7906(2) 1.06750(6) -0.02872(11)
C19 C 0.7820(2) 1.14166(6) 0.02806(13)
H11 H 0.7072 1.1327 0.0650
C20 C 0.8048(2) 1.04278(6) 0.04263(12)
H12 H 0.8447 1.0551 0.0927
C21 C 0.7289(2) 1.04975(6) -0.10241(12)
H13 H 0.7204 1.0665 -0.1514
C22 C 1.0042(3) 1.16786(6) -0.07722(15)
H14 H 1.0818 1.1767 -0.1125
C23 C 0.3817(2) 0.91256(6) -0.53085(12)
H15 H 0.3864 0.9112 -0.5897
C24 C 0.9405(2) 1.19632(6) -0.02386(13)
C25 C 0.4807(2) 0.95200(6) -0.32636(12)
C26 C 0.6799(2) 1.00768(6) -0.10447(11)
C27 C 0.9270(2) 0.95749(6) 0.24506(12)
H16 H 1.0092 0.9635 0.2828
C28 C 0.9060(2) 0.98150(6) 0.17327(12)
H17 H 0.9753 1.0035 0.1618
C29 C 0.4430(2) 0.93743(7) -0.24923(12)
H18 H 0.3726 0.9149 -0.2447
C30 C 0.8370(2) 0.86074(7) 0.44667(13)
H19 H 0.7963 0.8457 0.4919
C31 C 1.4638(2) 0.78842(6) 0.10852(11)
H20 H 1.4865 0.7963 0.0534
C32 C 0.9539(2) 1.12609(6) -0.07894(13)
H21 H 0.9967 1.1066 -0.1163
C33 C 0.8426(2) 1.11256(6) -0.02722(11)
C34 C 0.6099(2) 0.98886(6) -0.18195(11)
C35 C 0.5081(2) 0.95568(6) -0.17796(12)
H22 H 0.4821 0.9451 -0.1251
C36 C 0.6989(2) 0.98305(6) -0.03183(11)
H23 H 0.6687 0.9542 -0.0330
C37 C 0.7547(2) 0.88154(7) 0.38663(14)
H24 H 0.6477 0.8835 0.3816
C38 C 0.6397(3) 1.00446(8) -0.25966(13)
H25 H 0.7046 1.0282 -0.2643
C39 C 0.5767(3) 0.98613(8) -0.33133(13)
H26 H 0.6001 0.9972 -0.3842
C40 C 0.9891(3) 1.30905(7) -0.0248(2)
H27 H 0.9565 1.3377 -0.0266
C41 C 0.8966(3) 1.27484(8) -0.0278(2)
H28 H 0.7893 1.2750 -0.0320
N1 N 0.98909(17) 0.86471(5) 0.43194(9)
N2 N 0.85714(17) 0.89936(5) 0.33423(9)
N3 N 1.13694(18) 1.29610(5) -0.01855(10)
N4 N 0.98857(19) 1.23982(5) -0.02358(11)
N5 N 0.29094(17) 0.88816(5) -0.48362(9)
N6 N 0.42212(17) 0.93165(5) -0.40068(9)
O1 O 1.25121(16) 0.82429(4) 0.36594(8)
O2 O 1.32532(16) 0.87851(4) 0.28575(8)
O3 O 1.57894(15) 0.67763(4) 0.10070(8)
O4 O 1.54491(14) 0.72349(4) -0.00179(8)
Ni1_2 Ni 0.17577(3) 0.833934(7) -0.517466(14)
Ni1A Ni 1.32423(3) 1.333934(7) 0.017466(14)
Ni1C Ni 1.67577(3) 0.666066(7) -0.017466(14)
N3A N 1.36306(18) 0.79610(5) 0.51855(10)
N5_2 N 1.29094(17) 0.88816(5) 0.51638(9)
O3C O 1.07894(15) 0.82237(4) 0.60070(8)
O4C O 1.04491(14) 0.77651(4) 0.49821(8)
loop_
_geom_bond_atom_site_label_1
_geom_bond_atom_site_label_2
_geom_bond_site_symmetry_1
_geom_bond_site_symmetry_2
Ni1 N1 1_555 1_555
C1 H1 1_555 1_555
C2 H2 1_555 1_555
C3 C13 1_555 1_555
C4 H3 1_555 1_555
C5 H4 1_555 1_555
C6 C5 1_555 1_555
C7 H5 1_555 1_555
C8 H6 1_555 1_555
C9 C8 1_555 1_555
H7 C9 1_555 1_555
C10 C15 1_555 1_555
C11 C12 1_555 1_555
C12 C5 1_555 1_555
H8 C12 1_555 1_555
C13 C7 1_555 1_555
C14 C6 1_555 1_555
C15 C9 1_555 1_555
C16 H9 1_555 1_555
C17 H10 1_555 1_555
C18 C20 1_555 1_555
C19 C17 1_555 1_555
H11 C19 1_555 1_555
C20 C14 1_555 1_555
H12 C20 1_555 1_555
C21 C18 1_555 1_555
H13 C21 1_555 1_555
C22 H14 1_555 1_555
C23 C2 1_555 1_555
H15 C23 1_555 1_555
C24 C17 1_555 1_555
C25 C29 1_555 1_555
C26 C21 1_555 1_555
C27 C11 1_555 1_555
H16 C27 1_555 1_555
C28 C6 1_555 1_555
H17 C28 1_555 1_555
C29 H18 1_555 1_555
C30 H19 1_555 1_555
C31 C7 1_555 1_555
H20 C31 1_555 1_555
C32 C22 1_555 1_555
H21 C32 1_555 1_555
C33 C18 1_555 1_555
C34 C26 1_555 1_555
C35 C29 1_555 1_555
H22 C35 1_555 1_555
C36 C14 1_555 1_555
H23 C36 1_555 1_555
C37 C30 1_555 1_555
H24 C37 1_555 1_555
C38 C34 1_555 1_555
H25 C38 1_555 1_555
C39 C25 1_555 1_555
H26 C39 1_555 1_555
C40 H27 1_555 1_555
C41 C40 1_555 1_555
H28 C41 1_555 1_555
N1 C1 1_555 1_555
N2 C1 1_555 1_555
N3 C16 1_555 1_555
N4 C16 1_555 1_555
N5 C4 1_555 1_555
N6 C2 1_555 1_555
O1 Ni1 1_555 1_555
O2 C3 1_555 1_555
O3 C10 1_555 1_555
O4 C10 1_555 1_555
Ni1_2 N5 1_555 1_555
Ni1A N3 1_555 1_555
Ni1C O3 1_555 1_555
N3A Ni1 1_555 1_555
N5_2 Ni1 1_555 1_555
O3C Ni1 1_555 1_555
O4C Ni1 1_555 1_555
C3 O1 1_555 1_555
C4 N6 1_555 1_555
C8 C13 1_555 1_555
C11 N2 1_555 1_555
C15 C31 1_555 1_555
C19 C33 1_555 1_555
C22 C24 1_555 1_555
C23 N5 1_555 1_555
C24 N4 1_555 1_555
C25 N6 1_555 1_555
C26 C36 1_555 1_555
C27 C28 1_555 1_555
C30 N1 1_555 1_555
C32 C33 1_555 1_555
C34 C35 1_555 1_555
C37 N2 1_555 1_555
C38 C39 1_555 1_555
C40 N3 1_555 1_555
C41 N4 1_555 1_555
O4 Ni1C 1_555 1_555

#END
