
#######################################################################
#
#                 Cambridge Crystallographic Data Centre
#                                CCDC 
#
#######################################################################
#
# If this CIF has been generated from an entry in the Cambridge 
# Structural Database, then it will include bibliographic, chemical, 
# crystal, experimental, refinement or atomic coordinate data resulting 
# from the CCDC's data processing and validation procedures.
#
#######################################################################

data_YOYBUL
_symmetry_cell_setting           triclinic
_symmetry_space_group_name_H-M   'P -1'
_symmetry_Int_Tables_number      2
_space_group_name_Hall           '-P 1'
loop_
_symmetry_equiv_pos_site_id
_symmetry_equiv_pos_as_xyz
1 x,y,z
2 -x,-y,-z
_cell_length_a                   11.4424(5)
_cell_length_b                   15.1352(8)
_cell_length_c                   15.2141(9)
_cell_angle_alpha                112.002(5)
_cell_angle_beta                 96.433(4)
_cell_angle_gamma                98.574(4)
_cell_volume                     2374.78
loop_
_atom_site_label
_atom_site_type_symbol
_atom_site_fract_x
_atom_site_fract_y
_atom_site_fract_z
Zn1 Zn 0.35040(3) 0.13899(2) 0.73096(3)
O1 O 0.3155(2) 0.99482(16) 0.69685(18)
O2 O 0.3798(2) 0.19461(19) -0.12493(16)
O3 O 0.4388(3) 0.3469(2) -0.10908(18)
O4 O 0.2741(3) 0.98325(18) 0.5465(2)
C1 C 0.3233(4) 0.6970(3) 0.5958(3)
H1 H 0.3274 0.6652 0.6375
N1 N 0.3556(2) 0.50767(18) 0.36818(18)
C2 C 0.3679(4) 0.2822(3) 0.1671(3)
H2 H 0.3504 0.2362 0.1931
N2 N -0.4600(2) 0.13771(19) 0.72718(19)
C3 C 0.4236(3) 0.4162(3) 0.0871(2)
H3 H 0.4437 0.4621 0.0614
C4 C 0.3706(3) 0.3570(2) 0.3788(2)
H4 H 0.3819 0.2937 0.3491
N3 N 0.3583(2) 0.22076(18) 0.64422(18)
C5 C 0.3143(4) 0.7939(3) 0.6311(3)
H5 H 0.3148 0.8270 0.6965
C6 C -0.2581(3) 0.2296(3) 0.7681(3)
H6 H -0.2062 0.2902 0.7957
C7 C -0.0846(3) 0.1480(3) 0.7296(3)
C8 C 0.3265(3) 0.6469(2) 0.4996(2)
C9 C 0.3192(4) 0.6957(3) 0.4396(3)
H7 H 0.3219 0.6635 0.3747
C10 C 0.3545(3) 0.3921(2) 0.4747(2)
C11 C 0.3845(3) 0.3813(2) 0.2253(2)
C12 C 0.3396(3) 0.5431(2) 0.4593(2)
N4 N 0.1608(2) 0.1488(2) 0.7299(2)
C13 C -0.2138(3) 0.1448(3) 0.7301(2)
C14 C -0.0445(4) 0.0846(4) 0.6550(3)
H8 H -0.0990 0.0392 0.6013
C15 C 0.3370(3) 0.4883(2) 0.5147(2)
H9 H 0.3239 0.5149 0.5778
C16 C 0.0032(4) 0.2192(4) 0.7997(4)
H10 H -0.0175 0.2701 0.8485
C17 C 0.3553(3) 0.3328(2) 0.5324(2)
C18 C -0.2959(3) 0.0575(3) 0.6897(3)
H11 H -0.2701 -0.0005 0.6615
C19 C 0.4051(3) 0.3184(2) 0.0302(2)
C20 C 0.3651(4) 0.2365(3) 0.4959(3)
H12 H 0.3712 0.2065 0.4314
C21 C 0.3078(4) 0.7922(3) 0.4744(3)
H13 H 0.3023 0.8238 0.4326
C22 C 0.3700(3) 0.4155(2) 0.3281(2)
C23 C 0.4120(3) 0.4462(3) 0.1834(2)
H14 H 0.4233 0.5126 0.2208
C24 C 0.3774(4) 0.2523(3) 0.0705(3)
H15 H 0.3648 0.1861 0.0323
C25 C -0.3801(3) 0.2220(3) 0.7641(2)
H16 H -0.4086 0.2792 0.7886
C26 C 0.2961(3) 0.9476(2) 0.6056(3)
C27 C 0.3045(3) 0.8416(2) 0.5708(3)
C28 C -0.4168(3) 0.0563(3) 0.6914(3)
H17 H -0.4704 -0.0035 0.6667
C29 C 0.0772(4) 0.0879(4) 0.6591(3)
H18 H 0.1012 0.0431 0.6071
C30 C 0.4084(3) 0.2857(3) -0.0763(2)
C31 C 0.3490(4) 0.3695(3) 0.6282(3)
H19 H 0.3437 0.4344 0.6586
C32 C 0.3660(4) 0.1841(3) 0.5516(3)
H20 H 0.3724 0.1193 0.5233
C33 C 0.3504(4) 0.3136(3) 0.6801(3)
H21 H 0.3455 0.3423 0.7450
C34 C 0.1214(4) 0.2148(4) 0.7973(4)
H22 H 0.1785 0.2625 0.8475
Zn1_2 Zn -0.64960(3) 0.13899(2) 0.73096(3)
Zn1_3 Zn 0.35040(3) 0.13899(2) -0.26904(3)
Zn1_4 Zn 0.35040(3) 1.13899(2) 0.73096(3)
O1_2 O 0.3155(2) -0.00518(16) 0.69685(18)
O2_2 O 0.3798(2) 0.19461(19) 0.87507(16)
N2_2 N 0.5400(2) 0.13771(19) 0.72718(19)
O5 O 0.2293(9) 0.5651(13) 0.7359(11)
C35 C 0.2589(5) 0.6082(4) 0.8261(4)
N5 N 0.2471(8) 0.5919(6) 0.8924(6)
C36 C 0.2679(11) 0.6505(8) 0.9947(6)
H23 H 0.3363 0.6369 1.0261
H24 H 0.1983 0.6354 1.0204
H25 H 0.2828 0.7182 1.0055
C37 C 0.2225(11) 0.4856(6) 0.8651(9)
H26 H 0.1975 0.4527 0.7964
H27 H 0.1597 0.4682 0.8962
H28 H 0.2940 0.4667 0.8848
C38 C 0.2909(13) 0.7186(6) 0.8512(11)
H29 H 0.2988 0.7293 0.7936
H30 H 0.3656 0.7467 0.8962
H31 H 0.2285 0.7487 0.8794
N6? N 0.2684(8) 0.6806(7) 0.8932(6)
C39? C 0.2808(12) 0.7186(8) 0.9963(6)
H32? H 0.2054 0.7001 1.0134
H33? H 0.3041 0.7883 1.0223
H34? H 0.3411 0.6927 1.0223
O6? O 0.2669(9) 0.5724(13) 0.7410(12)
C40? C 0.2508(12) 0.5308(9) 0.8732(10)
H35? H 0.1714 0.4906 0.8530
H36? H 0.2676 0.5640 0.9421
H37? H 0.3084 0.4908 0.8530
C41? C 0.2788(13) 0.7592(8) 0.8574(10)
H38? H 0.3525 0.7642 0.8334
H39? H 0.2784 0.8198 0.9091
H40? H 0.2121 0.7445 0.8064
loop_
_geom_bond_atom_site_label_1
_geom_bond_atom_site_label_2
_geom_bond_site_symmetry_1
_geom_bond_site_symmetry_2
Zn1 N3 1_555 1_555
O1 C26 1_555 1_555
O2 C30 1_555 1_555
O3 C30 1_555 1_555
O4 C26 1_555 1_555
C1 H1 1_555 1_555
N1 C12 1_555 1_555
C2 H2 1_555 1_555
N2 C25 1_555 1_555
C3 H3 1_555 1_555
C4 H4 1_555 1_555
N3 C32 1_555 1_555
C5 C1 1_555 1_555
H5 C5 1_555 1_555
C6 H6 1_555 1_555
C7 C13 1_555 1_555
C8 C1 1_555 1_555
C9 C8 1_555 1_555
H7 C9 1_555 1_555
C10 C4 1_555 1_555
C11 C2 1_555 1_555
C12 C8 1_555 1_555
N4 Zn1 1_555 1_555
C13 C6 1_555 1_555
C14 C7 1_555 1_555
H8 C14 1_555 1_555
C15 C10 1_555 1_555
H9 C15 1_555 1_555
C16 C7 1_555 1_555
H10 C16 1_555 1_555
C17 C10 1_555 1_555
C18 C13 1_555 1_555
H11 C18 1_555 1_555
C19 C3 1_555 1_555
C20 C17 1_555 1_555
H12 C20 1_555 1_555
C21 C9 1_555 1_555
H13 C21 1_555 1_555
C22 N1 1_555 1_555
C23 C3 1_555 1_555
H14 C23 1_555 1_555
C24 C2 1_555 1_555
H15 C24 1_555 1_555
C25 C6 1_555 1_555
H16 C25 1_555 1_555
C26 C27 1_555 1_555
C27 C5 1_555 1_555
C28 N2 1_555 1_555
H17 C28 1_555 1_555
C29 N4 1_555 1_555
H18 C29 1_555 1_555
C30 C19 1_555 1_555
C31 C17 1_555 1_555
H19 C31 1_555 1_555
C32 C20 1_555 1_555
H20 C32 1_555 1_555
C33 N3 1_555 1_555
H21 C33 1_555 1_555
C34 N4 1_555 1_555
H22 C34 1_555 1_555
O5 C35 1_555 1_555
C35 N5 1_555 1_555
N5 C36 1_555 1_555
C36 H23 1_555 1_555
H24 C36 1_555 1_555
H25 C36 1_555 1_555
C37 N5 1_555 1_555
H26 C37 1_555 1_555
H27 C37 1_555 1_555
H28 C37 1_555 1_555
C38 C35 1_555 1_555
H29 C38 1_555 1_555
H30 C38 1_555 1_555
H31 C38 1_555 1_555
Zn1_2 N2 1_555 1_555
Zn1_3 O2 1_555 1_555
Zn1_4 O1 1_555 1_555
O1_2 Zn1 1_555 1_555
O2_2 Zn1 1_555 1_555
N2_2 Zn1 1_555 1_555
C4 C22 1_555 1_555
C11 C22 1_555 1_555
C11 C23 1_555 1_555
C12 C15 1_555 1_555
C14 C29 1_555 1_555
C16 C34 1_555 1_555
C18 C28 1_555 1_555
C19 C24 1_555 1_555
C21 C27 1_555 1_555
C31 C33 1_555 1_555

#END
