
#######################################################################
#
#                 Cambridge Crystallographic Data Centre
#                                CCDC 
#
#######################################################################
#
# If this CIF has been generated from an entry in the Cambridge 
# Structural Database, then it will include bibliographic, chemical, 
# crystal, experimental, refinement or atomic coordinate data resulting 
# from the CCDC's data processing and validation procedures.
#
#######################################################################

data_YOYREL
_symmetry_cell_setting           trigonal
_symmetry_space_group_name_H-M   'P -3 1 c'
_symmetry_Int_Tables_number      163
_space_group_name_Hall           "-P 3 2'c"
loop_
_symmetry_equiv_pos_site_id
_symmetry_equiv_pos_as_xyz
1 x,y,z
2 -y,x-y,z
3 -x+y,-x,z
4 -y,-x,1/2-z
5 x,x-y,1/2-z
6 -x+y,y,1/2-z
7 -x,-y,-z
8 y,-x+y,-z
9 x-y,x,-z
10 y,x,1/2+z
11 -x,-x+y,1/2+z
12 x-y,-y,1/2+z
_cell_length_a                   17.485(5)
_cell_length_b                   17.485(5)
_cell_length_c                   14.019(5)
_cell_angle_alpha                90
_cell_angle_beta                 90
_cell_angle_gamma                120
_cell_volume                     3711.75
loop_
_atom_site_label
_atom_site_type_symbol
_atom_site_fract_x
_atom_site_fract_y
_atom_site_fract_z
O2 O -0.70783(13) 0.5843(3) 0.7500
N3 N -0.6667 0.6667 0.7500
O2A O -0.5843(3) 0.70787(33) 0.7500
O2B O -0.70787(33) 0.70783(13) 0.7500
Mn1 Mn -0.3333 0.3333 0.60147(5)
O1 O -0.35769(14) 0.42297(14) 0.68097(14)
N1 N -0.59846(19) 0.50610(18) 0.91160(17)
N2 N -0.66332(18) 0.55960(18) 1.00725(17)
C1 C -0.40903(15) 0.40903(15) 0.7500
C2 C -0.45857(15) 0.45857(15) 0.7500
C3 C -0.5046(2) 0.4586(2) 0.8310(2)
H1 H -0.5043 0.4284 0.8855
C4 C -0.5505(2) 0.5033(2) 0.8300(2)
C5 C -0.54974(16) 0.54974(16) 0.7500
H2 H -0.5804 0.5804 0.7500
C6 C -0.6070(2) 0.5757(2) 0.9378(2)
H3 H -0.5755 0.6308 0.9088
C7 C -0.6550(3) 0.4364(2) 0.9702(2)
C8 C -0.6752(4) 0.3496(3) 0.9764(3)
H4 H -0.6486 0.3270 0.9368
C9 C -0.7366(5) 0.2980(3) 1.0441(5)
H5 H -0.7526 0.2388 1.0496
C10 C -0.7752(5) 0.3323(3) 1.1045(4)
H6 H -0.8153 0.2958 1.1504
C11 C -0.7558(3) 0.4186(3) 1.0982(3)
H7 H -0.7822 0.4411 1.1383
C12 C -0.6949(2) 0.4708(2) 1.0293(2)
O1C O -0.42297(14) 0.35769(14) 0.81903(14)
N1C N -0.50610(18) 0.59846(19) 0.58840(17)
N2C N -0.55960(18) 0.66332(18) 0.49275(17)
C3C C -0.4586(2) 0.5046(2) 0.6690(2)
H1C H -0.4284 0.5043 0.6145
C4C C -0.5033(2) 0.5505(2) 0.6700(2)
C6C C -0.5757(2) 0.6070(2) 0.5622(2)
H3C H -0.6308 0.5755 0.5912
C7C C -0.4364(2) 0.6550(3) 0.5298(2)
C8C C -0.3496(3) 0.6752(4) 0.5236(3)
H4C H -0.3270 0.6486 0.5632
C9C C -0.2980(3) 0.7366(5) 0.4559(5)
H5C H -0.2388 0.7526 0.4504
C10C C -0.3323(3) 0.7752(5) 0.3955(4)
H6C H -0.2958 0.8153 0.3496
C11C C -0.4186(3) 0.7558(3) 0.4018(3)
H7C H -0.4411 0.7822 0.3617
C12C C -0.4708(2) 0.6949(2) 0.4707(2)
O1A O -0.42297(14) 0.21934(20) 0.68097(14)
N1A N -0.50610(18) -0.10456(26) 0.91160(17)
N2A N -0.55960(18) -0.22292(25) 1.00725(17)
C1A C -0.40903(15) 0.18194(21) 0.7500
C2A C -0.45857(15) 0.08286(21) 0.7500
C3A C -0.4586(2) 0.0368(3) 0.8310(2)
H1A H -0.4284 0.0673 0.8855
C4A C -0.5033(2) -0.0538(3) 0.8300(2)
C5A C -0.54974(16) -0.09948(23) 0.7500
H2A H -0.5804 -0.1608 0.7500
C6A C -0.5757(2) -0.1827(3) 0.9378(2)
H3A H -0.6308 -0.2063 0.9088
C7A C -0.4364(2) -0.0914(4) 0.9702(2)
C8A C -0.3496(3) -0.0248(5) 0.9764(3)
H4A H -0.3270 0.0244 0.9368
C9A C -0.2980(3) -0.0346(6) 1.0441(5)
H5A H -0.2388 0.0086 1.0496
C10A C -0.3323(3) -0.1075(6) 1.1045(4)
H6A H -0.2958 -0.1111 1.1504
C11A C -0.4186(3) -0.1744(4) 1.0982(3)
H7A H -0.4411 -0.2233 1.1383
C12A C -0.4708(2) -0.1657(3) 1.0293(2)
O1D O -0.35769(14) 0.21934(20) 0.81903(14)
N1D N -0.59846(19) -0.10456(26) 0.58840(17)
N2D N -0.66332(18) -0.22292(25) 0.49275(17)
C3D C -0.5046(2) 0.0368(3) 0.6690(2)
H1D H -0.5043 0.0673 0.6145
C4D C -0.5505(2) -0.0538(3) 0.6700(2)
C6D C -0.6070(2) -0.1827(3) 0.5622(2)
H3D H -0.5755 -0.2063 0.5912
C7D C -0.6550(3) -0.0914(4) 0.5298(2)
C8D C -0.6752(4) -0.0248(5) 0.5236(3)
H4D H -0.6486 0.0244 0.5632
C9D C -0.7366(5) -0.0346(6) 0.4559(5)
H5D H -0.7526 0.0086 0.4504
C10D C -0.7752(5) -0.1075(6) 0.3955(4)
H6D H -0.8153 -0.1111 0.3496
C11D C -0.7558(3) -0.1744(4) 0.4018(3)
H7D H -0.7822 -0.2233 0.3617
C12D C -0.6949(2) -0.1657(3) 0.4707(2)
O1B O -0.21934(20) 0.35769(14) 0.68097(14)
N1B N 0.10456(26) 0.59846(19) 0.91160(17)
N2B N 0.22292(25) 0.66332(18) 1.00725(17)
C1B C -0.18194(21) 0.40903(15) 0.7500
C2B C -0.08286(21) 0.45857(15) 0.7500
C3B C -0.0368(3) 0.5046(2) 0.8310(2)
H1B H -0.0673 0.5043 0.8855
C4B C 0.0538(3) 0.5505(2) 0.8300(2)
C5B C 0.09948(23) 0.54974(16) 0.7500
H2B H 0.1608 0.5804 0.7500
C6B C 0.1827(3) 0.6070(2) 0.9378(2)
H3B H 0.2063 0.5755 0.9088
C7B C 0.0914(4) 0.6550(3) 0.9702(2)
C8B C 0.0248(5) 0.6752(4) 0.9764(3)
H4B H -0.0244 0.6486 0.9368
C9B C 0.0346(6) 0.7366(5) 1.0441(5)
H5B H -0.0086 0.7526 1.0496
C10B C 0.1075(6) 0.7752(5) 1.1045(4)
H6B H 0.1111 0.8153 1.1504
C11B C 0.1744(4) 0.7558(3) 1.0982(3)
H7B H 0.2233 0.7822 1.1383
C12B C 0.1657(3) 0.6949(2) 1.0293(2)
O1E O -0.21934(20) 0.42297(14) 0.81903(14)
N1E N 0.10456(26) 0.50610(18) 0.58840(17)
N2E N 0.22292(25) 0.55960(18) 0.49275(17)
C3E C -0.0368(3) 0.4586(2) 0.6690(2)
H1E H -0.0673 0.4284 0.6145
C4E C 0.0538(3) 0.5033(2) 0.6700(2)
C6E C 0.1827(3) 0.5757(2) 0.5622(2)
H3E H 0.2063 0.6308 0.5912
C7E C 0.0914(4) 0.4364(2) 0.5298(2)
C8E C 0.0248(5) 0.3496(3) 0.5236(3)
H4E H -0.0244 0.3270 0.5632
C9E C 0.0346(6) 0.2980(3) 0.4559(5)
H5E H -0.0086 0.2388 0.4504
C10E C 0.1075(6) 0.3323(3) 0.3955(4)
H6E H 0.1111 0.2958 0.3496
C11E C 0.1744(4) 0.4186(3) 0.4018(3)
H7E H 0.2233 0.4411 0.3617
C12E C 0.1657(3) 0.4708(2) 0.4707(2)
Mn1C Mn -0.3333 0.3333 0.89853(5)
Mn1F Mn -0.6667 -0.3333 0.39853(5)
Mn1F_2 Mn -0.6667 0.6667 0.39853(5)
Mn1F_3 Mn 0.3333 0.6667 0.39853(5)
Mn1I Mn -0.6667 -0.3333 1.10147(5)
Mn1I_2 Mn -0.6667 0.6667 1.10147(5)
Mn1I_3 Mn 0.3333 0.6667 1.10147(5)
N2F N -0.33668(18) 0.44040(18) 0.99275(17)
N2G N -0.44040(18) 0.22292(25) 0.99275(17)
N2H N -0.22292(25) 0.33668(18) 0.99275(17)
N2I N -0.44040(18) 0.33668(18) 0.50725(17)
N2J N -0.33668(18) 0.22292(25) 0.50725(17)
N2K N -0.22292(25) 0.44040(18) 0.50725(17)
loop_
_geom_bond_atom_site_label_1
_geom_bond_atom_site_label_2
_geom_bond_site_symmetry_1
_geom_bond_site_symmetry_2
Mn1 O1 1_555 1_555
O1 C1 1_555 1_555
N1 C4 1_555 1_555
N2 C6 1_555 1_555
C1 C2 1_555 1_555
C2 C3 1_555 1_555
C3 H1 1_555 1_555
C4 C3 1_555 1_555
C5 C4 1_555 1_555
H2 C5 1_555 1_555
C6 N1 1_555 1_555
H3 C6 1_555 1_555
C7 N1 1_555 1_555
C8 C7 1_555 1_555
H4 C8 1_555 1_555
C9 C8 1_555 1_555
H5 C9 1_555 1_555
C10 C9 1_555 1_555
H6 C10 1_555 1_555
C11 C10 1_555 1_555
H7 C11 1_555 1_555
C12 N2 1_555 1_555
O2 N3 1_555 1_555
N3 O2A 1_555 1_555
O1C C1 1_555 1_555
N1C C4C 1_555 1_555
N2C C6C 1_555 1_555
C3C C2 1_555 1_555
H1C C3C 1_555 1_555
C4C C5 1_555 1_555
C6C N1C 1_555 1_555
H3C C6C 1_555 1_555
C7C N1C 1_555 1_555
C8C C7C 1_555 1_555
H4C C8C 1_555 1_555
C9C C8C 1_555 1_555
H5C C9C 1_555 1_555
C10C C9C 1_555 1_555
H6C C10C 1_555 1_555
C11C C10C 1_555 1_555
H7C C11C 1_555 1_555
C12C N2C 1_555 1_555
O1A Mn1 1_555 1_555
N1A C4A 1_555 1_555
N2A C6A 1_555 1_555
C1A O1A 1_555 1_555
C2A C1A 1_555 1_555
C3A C2A 1_555 1_555
H1A C3A 1_555 1_555
C4A C3A 1_555 1_555
C5A C4A 1_555 1_555
H2A C5A 1_555 1_555
C6A N1A 1_555 1_555
H3A C6A 1_555 1_555
C7A N1A 1_555 1_555
C8A C7A 1_555 1_555
H4A C8A 1_555 1_555
C9A C8A 1_555 1_555
H5A C9A 1_555 1_555
C10A C9A 1_555 1_555
H6A C10A 1_555 1_555
C11A C10A 1_555 1_555
H7A C11A 1_555 1_555
C12A N2A 1_555 1_555
O1D C1A 1_555 1_555
N1D C4D 1_555 1_555
N2D C6D 1_555 1_555
C3D C2A 1_555 1_555
H1D C3D 1_555 1_555
C4D C5A 1_555 1_555
C6D N1D 1_555 1_555
H3D C6D 1_555 1_555
C7D N1D 1_555 1_555
C8D C7D 1_555 1_555
H4D C8D 1_555 1_555
C9D C8D 1_555 1_555
H5D C9D 1_555 1_555
C10D C9D 1_555 1_555
H6D C10D 1_555 1_555
C11D C10D 1_555 1_555
H7D C11D 1_555 1_555
C12D N2D 1_555 1_555
O1B Mn1 1_555 1_555
N1B C4B 1_555 1_555
N2B C6B 1_555 1_555
C1B O1B 1_555 1_555
C2B C1B 1_555 1_555
C3B C2B 1_555 1_555
H1B C3B 1_555 1_555
C4B C3B 1_555 1_555
C5B C4B 1_555 1_555
H2B C5B 1_555 1_555
C6B N1B 1_555 1_555
H3B C6B 1_555 1_555
C7B N1B 1_555 1_555
C8B C7B 1_555 1_555
H4B C8B 1_555 1_555
C9B C8B 1_555 1_555
H5B C9B 1_555 1_555
C10B C9B 1_555 1_555
H6B C10B 1_555 1_555
C11B C10B 1_555 1_555
H7B C11B 1_555 1_555
C12B N2B 1_555 1_555
O1E C1B 1_555 1_555
N1E C4E 1_555 1_555
N2E C6E 1_555 1_555
C3E C2B 1_555 1_555
H1E C3E 1_555 1_555
C4E C5B 1_555 1_555
C6E N1E 1_555 1_555
H3E C6E 1_555 1_555
C7E N1E 1_555 1_555
C8E C7E 1_555 1_555
H4E C8E 1_555 1_555
C9E C8E 1_555 1_555
H5E C9E 1_555 1_555
C10E C9E 1_555 1_555
H6E C10E 1_555 1_555
C11E C10E 1_555 1_555
H7E C11E 1_555 1_555
C12E N2E 1_555 1_555
Mn1C O1C 1_555 1_555
Mn1F N2D 1_555 1_555
Mn1F_2 N2C 1_555 1_555
Mn1F_3 N2E 1_555 1_555
Mn1I N2A 1_555 1_555
Mn1I_2 N2 1_555 1_555
Mn1I_3 N2B 1_555 1_555
N2F Mn1C 1_555 1_555
N2G Mn1C 1_555 1_555
N2H Mn1C 1_555 1_555
N2I Mn1 1_555 1_555
N2J Mn1 1_555 1_555
N2K Mn1 1_555 1_555
O2B N3 1_555 1_555
C7 C12 1_555 1_555
C11 C12 1_555 1_555
C3C C4C 1_555 1_555
C7C C12C 1_555 1_555
C11C C12C 1_555 1_555
C7A C12A 1_555 1_555
C11A C12A 1_555 1_555
O1D Mn1C 1_555 1_555
C3D C4D 1_555 1_555
C7D C12D 1_555 1_555
C11D C12D 1_555 1_555
C7B C12B 1_555 1_555
C11B C12B 1_555 1_555
O1E Mn1C 1_555 1_555
C3E C4E 1_555 1_555
C7E C12E 1_555 1_555
C11E C12E 1_555 1_555

#END
