
#######################################################################
#
#                 Cambridge Crystallographic Data Centre
#                                CCDC 
#
#######################################################################
#
# If this CIF has been generated from an entry in the Cambridge 
# Structural Database, then it will include bibliographic, chemical, 
# crystal, experimental, refinement or atomic coordinate data resulting 
# from the CCDC's data processing and validation procedures.
#
#######################################################################

data_YUGZEG
_symmetry_cell_setting           tetragonal
_symmetry_space_group_name_H-M   'P 42/m m c'
_symmetry_Int_Tables_number      131
_space_group_name_Hall           '-P 4c 2'
loop_
_symmetry_equiv_pos_site_id
_symmetry_equiv_pos_as_xyz
1 x,y,z
2 -x,-y,z
3 x,-y,-z
4 -x,y,-z
5 -y,-x,1/2-z
6 y,x,1/2-z
7 y,-x,1/2+z
8 -y,x,1/2+z
9 -x,-y,-z
10 x,y,-z
11 -x,y,z
12 x,-y,z
13 y,x,1/2+z
14 -y,-x,1/2+z
15 -y,x,1/2-z
16 y,-x,1/2-z
_cell_length_a                   6.8222(4)
_cell_length_b                   6.8222(4)
_cell_length_c                   16.5615(16)
_cell_angle_alpha                90
_cell_angle_beta                 90
_cell_angle_gamma                90
_cell_volume                     770.812
loop_
_atom_site_label
_atom_site_type_symbol
_atom_site_fract_x
_atom_site_fract_y
_atom_site_fract_z
Cu1 Cu 0.5000 1.0000 1.0000
Cu2 Cu 0.5000 0.5000 0.7500
S1 S 0.5000 0.7640(2) 0.90391(10)
C1 C 0.5000 0.8954(8) 0.8147(4)
N1 N 0.5000 0.7966(8) 0.7451(3)
C2 C 0.5000 0.8992(9) 0.6748(4)
H1 H 0.5000 0.8306 0.6249
Cu2_2 Cu 0.5000 1.5000 0.7500
Cu2B Cu 0.5000 1.5000 1.2500
Cu2B_2 Cu 0.5000 0.5000 1.2500
S1A S 0.5000 1.2360(2) 0.90391(10)
S1B S 0.5000 1.2360(2) 1.09609(10)
S1C S 0.5000 0.7640(2) 1.09609(10)
C1A C 0.5000 1.1046(8) 0.8147(4)
C1B C 0.5000 1.1046(8) 1.1853(4)
C1C C 0.5000 0.8954(8) 1.1853(4)
N1A N 0.5000 1.2034(8) 0.7451(3)
N1B N 0.5000 1.2034(8) 1.2549(3)
N1C N 0.5000 0.7966(8) 1.2549(3)
N1A_2 N 0.5000 0.2034(8) 0.7451(3)
N1D N 0.2034(8) 0.5000 0.7549(3)
N1E N 0.7966(8) 0.5000 0.7549(3)
C2A C 0.5000 1.1008(9) 0.6748(4)
C2B C 0.5000 1.1008(9) 1.3252(4)
C2C C 0.5000 0.8992(9) 1.3252(4)
H1A H 0.5000 1.1694 0.6249
H1B H 0.5000 1.1694 1.3751
H1C H 0.5000 0.8306 1.3751
loop_
_geom_bond_atom_site_label_1
_geom_bond_atom_site_label_2
_geom_bond_site_symmetry_1
_geom_bond_site_symmetry_2
Cu1 S1 1_555 1_555
Cu2 N1 1_555 1_555
S1 C1 1_555 1_555
C1 N1 1_555 1_555
N1 C2 1_555 1_555
C2 H1 1_555 1_555
Cu2_2 N1A 1_555 1_555
Cu2B N1B 1_555 1_555
Cu2B_2 N1C 1_555 1_555
S1A Cu1 1_555 1_555
S1B Cu1 1_555 1_555
S1C Cu1 1_555 1_555
C1A C1 1_555 1_555
C1B S1B 1_555 1_555
C1C S1C 1_555 1_555
N1A C1A 1_555 1_555
N1B C1B 1_555 1_555
N1C C1C 1_555 1_555
N1A_2 Cu2 1_555 1_555
N1D Cu2 1_555 1_555
N1E Cu2 1_555 1_555
C2A C2 1_555 1_555
C2B N1B 1_555 1_555
C2C N1C 1_555 1_555
H1A C2A 1_555 1_555
H1B C2B 1_555 1_555
H1C C2C 1_555 1_555
S1A C1A 1_555 1_555
C1B C1C 1_555 1_555
N1A C2A 1_555 1_555
C2B C2C 1_555 1_555

#END
