
#######################################################################
#
#                 Cambridge Crystallographic Data Centre
#                                CCDC 
#
#######################################################################
#
# If this CIF has been generated from an entry in the Cambridge 
# Structural Database, then it will include bibliographic, chemical, 
# crystal, experimental, refinement or atomic coordinate data resulting 
# from the CCDC's data processing and validation procedures.
#
#######################################################################

data_YUNJOI
_symmetry_cell_setting           triclinic
_symmetry_space_group_name_H-M   'P -1'
_symmetry_Int_Tables_number      2
_space_group_name_Hall           '-P 1'
loop_
_symmetry_equiv_pos_site_id
_symmetry_equiv_pos_as_xyz
1 x,y,z
2 -x,-y,-z
_cell_length_a                   5.1011(3)
_cell_length_b                   10.8715(9)
_cell_length_c                   15.2363(8)
_cell_angle_alpha                83.132(5)
_cell_angle_beta                 85.982(4)
_cell_angle_gamma                83.032(5)
_cell_volume                     831.37
loop_
_atom_site_label
_atom_site_type_symbol
_atom_site_fract_x
_atom_site_fract_y
_atom_site_fract_z
C1 C -0.0164(4) 0.6276(2) 0.48964(13)
H1 H -0.0278 0.7142 0.4826
C2 C 0.0814(4) 0.5631(2) 0.56776(13)
C3 C 0.0976(4) 0.4320(2) 0.57819(13)
C4 C 0.1858(4) 0.3548(2) 0.66050(13)
C5 C 0.4109(4) 0.2684(2) 0.65866(14)
H2 H 0.5013 0.2549 0.6049
C6 C 0.5014(4) 0.2023(2) 0.73651(14)
H3 H 0.6549 0.1468 0.7348
C7 C 0.3637(4) 0.2187(2) 0.81696(13)
C8 C 0.1330(4) 0.3007(2) 0.81856(13)
H4 H 0.0356 0.3095 0.8718
C9 C 0.0473(4) 0.3691(2) 0.74168(13)
H5 H -0.1048 0.4256 0.7439
C10 C 0.4679(4) 0.1531(2) 0.90166(13)
C11 C 0.1672(4) 0.6348(2) 0.63647(12)
C12 C 0.3965(4) 0.5941(2) 0.68083(13)
H6 H 0.5072 0.5254 0.6640
C13 C 0.4620(4) 0.6545(2) 0.74978(14)
H7 H 0.6143 0.6256 0.7796
C14 C 0.2999(4) 0.7586(2) 0.77452(13)
C15 C 0.0763(4) 0.8036(2) 0.72784(13)
H8 H -0.0294 0.8747 0.7428
C16 C 0.0117(4) 0.7425(2) 0.65917(13)
H9 H -0.1367 0.7733 0.6278
C17 C 0.3544(4) 0.8190(2) 0.85289(13)
O1 O 0.3045(3) 0.14580(14) 0.96984(9)
O2 O 0.7052(3) 0.11113(15) 0.90272(10)
O3 O 0.1975(3) 0.90083(15) 0.88191(10)
O4 O 0.5796(3) 0.77593(16) 0.88699(10)
H10 H 0.5985 0.8126 0.9297
Ca1 Ca 0.0000 0.0000 1.0000
C1A C 0.0164(4) 0.3724(2) 0.51036(13)
H1A H 0.0278 0.2858 0.5174
C2A C -0.0814(4) 0.4369(2) 0.43224(13)
C3A C -0.0976(4) 0.5680(2) 0.42181(13)
C4A C -0.1858(4) 0.6452(2) 0.33950(13)
C5A C -0.4109(4) 0.7316(2) 0.34134(14)
H2A H -0.5013 0.7451 0.3951
C6A C -0.5014(4) 0.7977(2) 0.26349(14)
H3A H -0.6549 0.8532 0.2652
C7A C -0.3637(4) 0.7813(2) 0.18304(13)
C8A C -0.1330(4) 0.6993(2) 0.18144(13)
H4A H -0.0356 0.6905 0.1282
C9A C -0.0473(4) 0.6309(2) 0.25832(13)
H5A H 0.1048 0.5744 0.2561
C10A C -0.4679(4) 0.8469(2) 0.09834(13)
C11A C -0.1672(4) 0.3652(2) 0.36353(12)
C12A C -0.3965(4) 0.4059(2) 0.31917(13)
H6A H -0.5072 0.4746 0.3360
C13A C -0.4620(4) 0.3455(2) 0.25022(14)
H7A H -0.6143 0.3744 0.2204
C14A C -0.2999(4) 0.2414(2) 0.22548(13)
C15A C -0.0763(4) 0.1964(2) 0.27216(13)
H8A H 0.0294 0.1253 0.2572
C16A C -0.0117(4) 0.2575(2) 0.34083(13)
H9A H 0.1367 0.2267 0.3722
C17A C -0.3544(4) 0.1810(2) 0.14711(13)
O1A O -0.3045(3) 0.85420(14) 0.03016(9)
O2A O -0.7052(3) 0.88887(15) 0.09728(10)
O3A O -0.1975(3) 0.09917(15) 0.11809(10)
O4A O -0.5796(3) 0.22407(16) 0.11301(10)
H10A H -0.5985 0.1874 0.0703
O1A_2 O -0.3045(3) -0.14580(14) 1.03016(9)
O2_2 O -0.2948(3) 0.11113(15) 0.90272(10)
O2A_2 O 0.2948(3) -0.11113(15) 1.09728(10)
O3_2 O 0.1975(3) -0.09917(15) 0.88191(10)
O3A_2 O -0.1975(3) 0.09917(15) 1.11809(10)
Ca1_2 Ca -1.0000 1.0000 0.0000
Ca1_3 Ca 0.0000 0.0000 0.0000
Ca1_4 Ca 0.0000 1.0000 0.0000
Ca1_5 Ca 0.0000 1.0000 1.0000
Ca1_6 Ca 1.0000 0.0000 1.0000
loop_
_geom_bond_atom_site_label_1
_geom_bond_atom_site_label_2
_geom_bond_site_symmetry_1
_geom_bond_site_symmetry_2
C1 H1 1_555 1_555
C2 C1 1_555 1_555
C3 C2 1_555 1_555
C4 C3 1_555 1_555
C5 C4 1_555 1_555
H2 C5 1_555 1_555
C6 C5 1_555 1_555
H3 C6 1_555 1_555
C7 C6 1_555 1_555
C8 C7 1_555 1_555
H4 C8 1_555 1_555
C9 C4 1_555 1_555
H5 C9 1_555 1_555
C10 C7 1_555 1_555
C11 C2 1_555 1_555
C12 C11 1_555 1_555
H6 C12 1_555 1_555
C13 C12 1_555 1_555
H7 C13 1_555 1_555
C14 C13 1_555 1_555
C15 C14 1_555 1_555
H8 C15 1_555 1_555
C16 C11 1_555 1_555
H9 C16 1_555 1_555
C17 C14 1_555 1_555
O1 C10 1_555 1_555
O2 C10 1_555 1_555
O3 C17 1_555 1_555
O4 C17 1_555 1_555
H10 O4 1_555 1_555
Ca1 O1 1_555 1_555
C1A C3 1_555 1_555
H1A C1A 1_555 1_555
C2A C1A 1_555 1_555
C3A C1 1_555 1_555
C4A C3A 1_555 1_555
C5A C4A 1_555 1_555
H2A C5A 1_555 1_555
C6A C5A 1_555 1_555
H3A C6A 1_555 1_555
C7A C6A 1_555 1_555
C8A C7A 1_555 1_555
H4A C8A 1_555 1_555
C9A C4A 1_555 1_555
H5A C9A 1_555 1_555
C10A C7A 1_555 1_555
C11A C2A 1_555 1_555
C12A C11A 1_555 1_555
H6A C12A 1_555 1_555
C13A C12A 1_555 1_555
H7A C13A 1_555 1_555
C14A C13A 1_555 1_555
C15A C14A 1_555 1_555
H8A C15A 1_555 1_555
C16A C11A 1_555 1_555
H9A C16A 1_555 1_555
C17A C14A 1_555 1_555
O1A C10A 1_555 1_555
O2A C10A 1_555 1_555
O3A C17A 1_555 1_555
O4A C17A 1_555 1_555
H10A O4A 1_555 1_555
O1A_2 Ca1 1_555 1_555
O2_2 Ca1 1_555 1_555
O2A_2 Ca1 1_555 1_555
O3_2 Ca1 1_555 1_555
O3A_2 Ca1 1_555 1_555
Ca1_2 O2A 1_555 1_555
Ca1_3 O3A 1_555 1_555
Ca1_4 O1A 1_555 1_555
Ca1_5 O3 1_555 1_555
Ca1_6 O2 1_555 1_555
C8 C9 1_555 1_555
C15 C16 1_555 1_555
C2A C3A 1_555 1_555
C8A C9A 1_555 1_555
C15A C16A 1_555 1_555

#END
