
#######################################################################
#
#                 Cambridge Crystallographic Data Centre
#                                CCDC 
#
#######################################################################
#
# If this CIF has been generated from an entry in the Cambridge 
# Structural Database, then it will include bibliographic, chemical, 
# crystal, experimental, refinement or atomic coordinate data resulting 
# from the CCDC's data processing and validation procedures.
#
#######################################################################

data_YUNKAV
_symmetry_cell_setting           triclinic
_symmetry_space_group_name_H-M   'P -1'
_symmetry_Int_Tables_number      2
_space_group_name_Hall           '-P 1'
loop_
_symmetry_equiv_pos_site_id
_symmetry_equiv_pos_as_xyz
1 x,y,z
2 -x,-y,-z
_cell_length_a                   5.1161(3)
_cell_length_b                   10.8239(4)
_cell_length_c                   15.2598(4)
_cell_angle_alpha                82.990(2)
_cell_angle_beta                 85.885(3)
_cell_angle_gamma                83.050(4)
_cell_volume                     831.156
loop_
_atom_site_label
_atom_site_type_symbol
_atom_site_fract_x
_atom_site_fract_y
_atom_site_fract_z
C1 C -0.0166(4) 0.62876(17) 0.48889(12)
H1 H -0.0292 0.7177 0.4813
C2 C 0.0823(4) 0.56412(17) 0.56694(11)
C3 C 0.0973(4) 0.43225(17) 0.57818(11)
C4 C 0.1858(4) 0.35482(17) 0.66115(12)
C5 C 0.4109(4) 0.26833(18) 0.65918(12)
H2 H 0.5025 0.2540 0.6043
C6 C 0.5017(4) 0.20282(18) 0.73773(13)
H3 H 0.6586 0.1462 0.7364
C7 C 0.3635(4) 0.22007(17) 0.81785(12)
C8 C 0.1320(4) 0.30211(18) 0.81946(12)
H4 H 0.0325 0.3113 0.8737
C9 C 0.0463(4) 0.37062(18) 0.74161(12)
H5 H -0.1085 0.4286 0.7433
C10 C 0.4674(4) 0.15452(17) 0.90324(12)
C11 C 0.1684(4) 0.63697(17) 0.63547(11)
C12 C 0.3979(4) 0.59565(18) 0.67927(12)
H6 H 0.5100 0.5251 0.6621
C13 C 0.4635(4) 0.65680(19) 0.74765(12)
H7 H 0.6196 0.6277 0.7776
C14 C 0.3008(4) 0.76137(18) 0.77277(12)
C15 C 0.0779(4) 0.80704(18) 0.72628(12)
H8 H -0.0295 0.8801 0.7416
C16 C 0.0130(4) 0.74548(18) 0.65744(12)
H9 H -0.1375 0.7773 0.6252
C17 C 0.3548(4) 0.82222(18) 0.85110(12)
O1 O 0.3034(3) 0.14723(12) 0.97079(8)
O2 O 0.7047(3) 0.11340(13) 0.90431(9)
O3 O 0.1978(3) 0.90318(13) 0.88093(9)
O4 O 0.5810(3) 0.77941(15) 0.88467(9)
H10 H 0.6004 0.8170 0.9284
Ca1 Ca 0.0000 0.0000 1.0000
C1A C 0.0166(4) 0.37124(17) 0.51111(12)
H1A H 0.0292 0.2823 0.5187
C2A C -0.0823(4) 0.43588(17) 0.43306(11)
C3A C -0.0973(4) 0.56775(17) 0.42182(11)
C4A C -0.1858(4) 0.64518(17) 0.33885(12)
C5A C -0.4109(4) 0.73167(18) 0.34082(12)
H2A H -0.5025 0.7460 0.3957
C6A C -0.5017(4) 0.79718(18) 0.26227(13)
H3A H -0.6586 0.8538 0.2636
C7A C -0.3635(4) 0.77993(17) 0.18215(12)
C8A C -0.1320(4) 0.69789(18) 0.18054(12)
H4A H -0.0325 0.6887 0.1263
C9A C -0.0463(4) 0.62938(18) 0.25839(12)
H5A H 0.1085 0.5714 0.2567
C10A C -0.4674(4) 0.84548(17) 0.09676(12)
C11A C -0.1684(4) 0.36303(17) 0.36453(11)
C12A C -0.3979(4) 0.40435(18) 0.32073(12)
H6A H -0.5100 0.4749 0.3379
C13A C -0.4635(4) 0.34320(19) 0.25235(12)
H7A H -0.6196 0.3723 0.2224
C14A C -0.3008(4) 0.23863(18) 0.22723(12)
C15A C -0.0779(4) 0.19296(18) 0.27372(12)
H8A H 0.0295 0.1199 0.2584
C16A C -0.0130(4) 0.25452(18) 0.34256(12)
H9A H 0.1375 0.2227 0.3748
C17A C -0.3548(4) 0.17778(18) 0.14890(12)
O1A O -0.3034(3) 0.85277(12) 0.02921(8)
O2A O -0.7047(3) 0.88660(13) 0.09569(9)
O3A O -0.1978(3) 0.09682(13) 0.11907(9)
O4A O -0.5810(3) 0.22059(15) 0.11533(9)
H10A H -0.6004 0.1830 0.0716
O1A_2 O -0.3034(3) -0.14723(12) 1.02921(8)
O2_2 O -0.2953(3) 0.11340(13) 0.90431(9)
O2A_2 O 0.2953(3) -0.11340(13) 1.09569(9)
O3_2 O 0.1978(3) -0.09682(13) 0.88093(9)
O3A_2 O -0.1978(3) 0.09682(13) 1.11907(9)
Ca1_2 Ca -1.0000 1.0000 0.0000
Ca1_3 Ca 0.0000 0.0000 0.0000
Ca1_4 Ca 0.0000 1.0000 0.0000
Ca1_5 Ca 0.0000 1.0000 1.0000
Ca1_6 Ca 1.0000 0.0000 1.0000
Kr1 Kr 0.5000 1.0000 0.5000
Kr2 Kr 0.5000 0.5000 1.0000
loop_
_geom_bond_atom_site_label_1
_geom_bond_atom_site_label_2
_geom_bond_site_symmetry_1
_geom_bond_site_symmetry_2
C1 H1 1_555 1_555
C2 C1 1_555 1_555
C3 C2 1_555 1_555
C4 C3 1_555 1_555
C5 C4 1_555 1_555
H2 C5 1_555 1_555
C6 C5 1_555 1_555
H3 C6 1_555 1_555
C7 C6 1_555 1_555
C8 C7 1_555 1_555
H4 C8 1_555 1_555
C9 C4 1_555 1_555
H5 C9 1_555 1_555
C10 C7 1_555 1_555
C11 C2 1_555 1_555
C12 C11 1_555 1_555
H6 C12 1_555 1_555
C13 C12 1_555 1_555
H7 C13 1_555 1_555
C14 C13 1_555 1_555
C15 C14 1_555 1_555
H8 C15 1_555 1_555
C16 C11 1_555 1_555
H9 C16 1_555 1_555
C17 C14 1_555 1_555
O1 C10 1_555 1_555
O2 C10 1_555 1_555
O3 C17 1_555 1_555
O4 C17 1_555 1_555
H10 O4 1_555 1_555
Ca1 O1 1_555 1_555
C1A C3 1_555 1_555
H1A C1A 1_555 1_555
C2A C1A 1_555 1_555
C3A C1 1_555 1_555
C4A C3A 1_555 1_555
C5A C4A 1_555 1_555
H2A C5A 1_555 1_555
C6A C5A 1_555 1_555
H3A C6A 1_555 1_555
C7A C6A 1_555 1_555
C8A C7A 1_555 1_555
H4A C8A 1_555 1_555
C9A C4A 1_555 1_555
H5A C9A 1_555 1_555
C10A C7A 1_555 1_555
C11A C2A 1_555 1_555
C12A C11A 1_555 1_555
H6A C12A 1_555 1_555
C13A C12A 1_555 1_555
H7A C13A 1_555 1_555
C14A C13A 1_555 1_555
C15A C14A 1_555 1_555
H8A C15A 1_555 1_555
C16A C11A 1_555 1_555
H9A C16A 1_555 1_555
C17A C14A 1_555 1_555
O1A C10A 1_555 1_555
O2A C10A 1_555 1_555
O3A C17A 1_555 1_555
O4A C17A 1_555 1_555
H10A O4A 1_555 1_555
O1A_2 Ca1 1_555 1_555
O2_2 Ca1 1_555 1_555
O2A_2 Ca1 1_555 1_555
O3_2 Ca1 1_555 1_555
O3A_2 Ca1 1_555 1_555
Ca1_2 O2A 1_555 1_555
Ca1_3 O3A 1_555 1_555
Ca1_4 O1A 1_555 1_555
Ca1_5 O3 1_555 1_555
Ca1_6 O2 1_555 1_555
C8 C9 1_555 1_555
C15 C16 1_555 1_555
C2A C3A 1_555 1_555
C8A C9A 1_555 1_555
C15A C16A 1_555 1_555

#END
