
#######################################################################
#
#                 Cambridge Crystallographic Data Centre
#                                CCDC 
#
#######################################################################
#
# If this CIF has been generated from an entry in the Cambridge 
# Structural Database, then it will include bibliographic, chemical, 
# crystal, experimental, refinement or atomic coordinate data resulting 
# from the CCDC's data processing and validation procedures.
#
#######################################################################

data_YUZJOT
_symmetry_cell_setting           triclinic
_symmetry_space_group_name_H-M   'P -1'
_symmetry_Int_Tables_number      2
_space_group_name_Hall           '-P 1'
loop_
_symmetry_equiv_pos_site_id
_symmetry_equiv_pos_as_xyz
1 x,y,z
2 -x,-y,-z
_cell_length_a                   13.787
_cell_length_b                   17.406
_cell_length_c                   23.632
_cell_angle_alpha                73.06
_cell_angle_beta                 75.17
_cell_angle_gamma                76.15
_cell_volume                     5160.39
loop_
_atom_site_label
_atom_site_type_symbol
_atom_site_fract_x
_atom_site_fract_y
_atom_site_fract_z
O1 O 0.2158(4) 0.7423(3) 0.9840(3)
O3 O 0.2540(4) 0.6157(3) 0.8726(3)
O4 O 0.5239(4) 0.8656(3) 0.8952(3)
O6 O 0.3129(4) 0.4079(3) 1.0184(3)
O7 O 0.6288(4) 0.7553(3) 0.9770(3)
O8 O 0.7678(4) 0.6362(3) 0.8614(3)
O9 O 0.3110(4) 0.8563(3) 0.8984(3)
O13 O 0.3724(4) 0.6839(3) 0.9003(3)
O14 O 0.3941(4) 0.5623(4) 0.7792(3)
O16 O 0.3517(4) 0.4800(3) 1.1121(3)
O18 O 0.5291(4) 0.6286(3) 0.8169(3)
O19 O 0.4774(4) 0.5773(3) 0.9920(3)
O23 O 0.2659(4) 0.5756(3) 0.9920(3)
O24 O 0.5032(5) 0.8407(4) 0.6956(3)
O25 O 0.1653(4) 0.9053(3) 0.9906(3)
O26 O 0.2033(4) 0.7684(3) 0.8685(3)
O27 O 0.6407(4) 0.7393(3) 0.7741(3)
O28 O 0.3768(4) 0.7299(3) 0.7809(3)
O30 O 0.4667(4) 0.8081(3) 0.8182(3)
O33 O 0.3679(4) 0.8939(3) 0.9908(3)
O37 O 0.7135(4) 0.7865(3) 0.8587(3)
O38 O 0.6181(5) 0.9084(4) 0.7755(3)
O40 O 0.5798(4) 0.6926(3) 0.8953(3)
O42 O 0.4306(4) 0.5113(4) 0.8937(3)
O47 O 0.2814(5) 0.8962(4) 0.7819(3)
O48 O 0.0851(4) 0.6619(3) 0.9576(3)
O49 O 0.7397(5) 0.5787(4) 0.7712(3)
O53 O 0.5600(4) 0.9159(4) 0.9872(3)
O54 O 0.2500(4) 0.7873(3) 1.0749(3)
O55 O 0.4210(4) 0.7469(3) 0.9868(3)
O57 O 0.8345(4) 0.6872(4) 0.9433(3)
O65 O 0.4860(4) 0.7946(4) 1.0736(3)
O66 O 0.5582(5) 0.6825(4) 0.6958(3)
Cu1 Cu 0.39214(7) 0.49601(6) 1.00308(5)
Cu3 Cu 0.0000 1.0000 1.0000
Ge2 Ge 0.46276(6) 0.67470(5) 0.94402(4)
Mo1 Mo 0.66707(5) 0.60850(4) 0.83323(4)
Mo2 Mo 0.26911(5) 0.82920(4) 0.99829(4)
Mo3 Mo 0.71822(5) 0.68411(4) 0.93225(4)
Mo5 Mo 0.21261(5) 0.66505(4) 0.94321(4)
Mo6 Mo 0.31688(6) 0.81398(4) 0.83819(4)
Mo8 Mo 0.50509(5) 0.83391(4) 0.99665(4)
Mo12 Mo 0.39555(6) 0.59730(5) 0.83995(4)
Mo15 Mo 0.59221(6) 0.82542(4) 0.83302(4)
Mo16 Mo 0.51774(6) 0.74556(5) 0.74509(4)
N1 N 0.0671(5) 1.0910(4) 1.0000(3)
N2 N 0.0183(5) 1.0354(4) 0.9101(3)
N3 N 0.0182(6) 1.1132(5) 0.8198(4)
N4 N 0.0934(6) 1.2056(5) 1.0099(5)
C1 C 0.0218(7) 1.1619(6) 1.0110(5)
C2 C 0.1853(7) 1.1577(7) 1.0003(6)
C3 C 0.1706(7) 1.0853(6) 0.9931(6)
C4 C -0.0084(8) 1.1114(6) 0.8775(5)
C5 C 0.0605(8) 1.0353(7) 0.8133(6)
C6 C 0.0595(8) 0.9879(6) 0.8687(5)
O1A O 0.7842(4) 0.2577(3) 1.0160(3)
O3A O 0.7460(4) 0.3843(3) 1.1274(3)
O4A O 0.4761(4) 0.1344(3) 1.1048(3)
O6A O 0.6871(4) 0.5921(3) 0.9816(3)
O7A O 0.3712(4) 0.2447(3) 1.0230(3)
O8A O 0.2322(4) 0.3638(3) 1.1386(3)
O9A O 0.6890(4) 0.1437(3) 1.1016(3)
O13A O 0.6276(4) 0.3161(3) 1.0997(3)
O14A O 0.6059(4) 0.4377(4) 1.2208(3)
O16A O 0.6483(4) 0.5200(3) 0.8879(3)
O18A O 0.4709(4) 0.3714(3) 1.1831(3)
O19A O 0.5226(4) 0.4227(3) 1.0080(3)
O23A O 0.7341(4) 0.4244(3) 1.0080(3)
O24A O 0.4968(5) 0.1593(4) 1.3044(3)
O25A O -0.1653(4) 1.0947(3) 1.0094(3)
O25A_2 O 0.8347(4) 0.0947(3) 1.0094(3)
O26A O 0.7967(4) 0.2316(3) 1.1315(3)
O27A O 0.3593(4) 0.2607(3) 1.2259(3)
O28A O 0.6232(4) 0.2701(3) 1.2191(3)
O30A O 0.5333(4) 0.1919(3) 1.1818(3)
O33A O 0.6321(4) 0.1061(3) 1.0092(3)
O37A O 0.2865(4) 0.2135(3) 1.1413(3)
O38A O 0.3819(5) 0.0916(4) 1.2245(3)
O40A O 0.4202(4) 0.3074(3) 1.1047(3)
O42A O 0.5694(4) 0.4887(4) 1.1063(3)
O47A O 0.7186(5) 0.1038(4) 1.2181(3)
O48A O 0.9149(4) 0.3381(3) 1.0424(3)
O49A O 0.2603(5) 0.4213(4) 1.2288(3)
O53A O 0.4400(4) 0.0841(4) 1.0128(3)
O54A O 0.7500(4) 0.2127(3) 0.9251(3)
O55A O 0.5790(4) 0.2531(3) 1.0132(3)
O57A O 0.1655(4) 0.3128(4) 1.0567(3)
O65A O 0.5140(4) 0.2054(4) 0.9264(3)
O66A O 0.4418(5) 0.3175(4) 1.3042(3)
Cu1A Cu 0.60786(7) 0.50399(6) 0.99692(5)
Cu3_2 Cu 1.0000 0.0000 1.0000
Ge2A Ge 0.53724(6) 0.32530(5) 1.05598(4)
Mo1A Mo 0.33293(5) 0.39150(4) 1.16677(4)
Mo2A Mo 0.73089(5) 0.17080(4) 1.00171(4)
Mo3A Mo 0.28178(5) 0.31589(4) 1.06775(4)
Mo5A Mo 0.78739(5) 0.33495(4) 1.05679(4)
Mo6A Mo 0.68312(6) 0.18602(4) 1.16181(4)
Mo8A Mo 0.49491(5) 0.16609(4) 1.00335(4)
Mo12A Mo 0.60445(6) 0.40270(5) 1.16005(4)
Mo15A Mo 0.40779(6) 0.17458(4) 1.16698(4)
Mo16A Mo 0.48226(6) 0.25444(5) 1.25491(4)
N1A N -0.0671(5) 0.9090(4) 1.0000(3)
N2A N -0.0183(5) 0.9646(4) 1.0899(3)
N3A N -0.0182(6) 0.8868(5) 1.1802(4)
N4A N -0.0934(6) 0.7944(5) 0.9901(5)
C1A C -0.0218(7) 0.8381(6) 0.9890(5)
C2A C -0.1853(7) 0.8423(7) 0.9997(6)
C3A C -0.1706(7) 0.9147(6) 1.0069(6)
C4A C 0.0084(8) 0.8886(6) 1.1225(5)
C5A C -0.0605(8) 0.9647(7) 1.1867(6)
C6A C -0.0595(8) 1.0121(6) 1.1313(5)
O2 O 0.0616(4) 0.7055(3) 1.4161(3)
O5 O 0.0974(4) 0.7973(3) 1.2895(3)
O10 O -0.1073(4) 0.7748(4) 1.2846(3)
O11 O 0.1733(4) 0.7151(4) 1.4827(3)
O12 O -0.3171(4) 0.6743(4) 1.4670(3)
O15 O 0.2081(4) 0.5723(3) 1.4499(3)
O17 O 0.1800(4) 0.3938(3) 1.4598(3)
O20 O 0.0100(4) 0.8512(3) 1.4448(3)
O21 O 0.1953(4) 0.4630(3) 1.5607(3)
O22 O 0.0793(5) 0.9387(3) 1.3236(3)
O29 O 0.3573(4) 0.6655(4) 1.4074(3)
O31 O -0.2417(5) 0.9109(4) 1.3104(3)
O32 O 0.1984(4) 0.7973(3) 1.3738(3)
O34 O -0.0724(4) 0.8377(3) 1.3666(3)
O35 O 0.2319(4) 0.6642(3) 1.3324(3)
O36 O -0.1071(4) 0.7465(3) 1.4981(3)
O39 O -0.1374(4) 0.6875(3) 1.4102(3)
O41 O -0.2408(4) 0.8293(3) 1.4360(3)
O43 O -0.1632(4) 0.6272(4) 1.3205(3)
O44 O 0.0150(5) 0.7697(4) 1.5681(3)
O45 O 0.0099(4) 0.5460(3) 1.4465(3)
O46 O 0.0686(4) 0.7085(4) 1.2151(3)
O50 O -0.1568(5) 0.9762(4) 1.4064(3)
O51 O 0.2254(5) 0.5846(4) 1.2508(3)
O52 O -0.1829(5) 0.8930(4) 1.5210(3)
O56 O -0.0015(5) 0.5626(4) 1.2449(3)
O58 O 0.0285(4) 0.6225(3) 1.5475(3)
O59 O 0.0404(4) 0.6388(3) 1.3240(3)
O60 O -0.2886(4) 0.7553(4) 1.3577(3)
O61 O -0.3609(4) 0.6101(4) 1.3838(3)
O62 O 0.2582(5) 0.7372(4) 1.2083(3)
O63 O -0.3125(5) 0.7454(4) 1.5575(3)
O64 O -0.1187(5) 0.7021(4) 1.1977(3)
Cu2 Cu 0.10321(7) 0.50842(6) 1.50301(5)
Ge1 Ge -0.00601(6) 0.64386(5) 1.39939(4)
Mo4 Mo -0.22821(5) 0.70301(5) 1.50281(4)
Mo7 Mo 0.03227(6) 0.72326(5) 1.51146(4)
Mo9 Mo -0.18809(6) 0.81409(5) 1.34399(4)
Mo10 Mo -0.25234(6) 0.63004(5) 1.39424(4)
Mo11 Mo 0.17596(6) 0.68083(5) 1.26064(4)
Mo13 Mo 0.23138(5) 0.67027(4) 1.40960(4)
Mo14 Mo 0.07496(6) 0.83777(4) 1.35276(4)
Mo17 Mo -0.05058(6) 0.65891(5) 1.25372(4)
Mo18 Mo -0.13695(6) 0.87754(5) 1.44995(4)
O2A O -0.0616(4) 0.2945(3) 1.5839(3)
O5A O -0.0974(4) 0.2027(3) 1.7105(3)
O10A O 0.1073(4) 0.2252(4) 1.7154(3)
O11A O -0.1733(4) 0.2849(4) 1.5173(3)
O12A O 0.3171(4) 0.3257(4) 1.5330(3)
O15A O -0.2081(4) 0.4277(3) 1.5501(3)
O17A O -0.1800(4) 0.6062(3) 1.5402(3)
O20A O -0.0100(4) 0.1488(3) 1.5552(3)
O21A O -0.1953(4) 0.5370(3) 1.4393(3)
O22A O -0.0793(5) 0.0613(3) 1.6764(3)
O29A O -0.3573(4) 0.3345(4) 1.5926(3)
O31A O 0.2417(5) 0.0891(4) 1.6896(3)
O32A O -0.1984(4) 0.2027(3) 1.6262(3)
O34A O 0.0724(4) 0.1623(3) 1.6334(3)
O35A O -0.2319(4) 0.3358(3) 1.6676(3)
O36A O 0.1071(4) 0.2535(3) 1.5019(3)
O39A O 0.1374(4) 0.3125(3) 1.5898(3)
O41A O 0.2408(4) 0.1707(3) 1.5640(3)
O43A O 0.1632(4) 0.3728(4) 1.6795(3)
O44A O -0.0150(5) 0.2303(4) 1.4319(3)
O45A O -0.0099(4) 0.4540(3) 1.5535(3)
O46A O -0.0686(4) 0.2915(4) 1.7849(3)
O50A O 0.1568(5) 0.0238(4) 1.5936(3)
O51A O -0.2254(5) 0.4154(4) 1.7492(3)
O52A O 0.1829(5) 0.1070(4) 1.4790(3)
O56A O 0.0015(5) 0.4374(4) 1.7551(3)
O58A O -0.0285(4) 0.3775(3) 1.4525(3)
O59A O -0.0404(4) 0.3612(3) 1.6760(3)
O60A O 0.2886(4) 0.2447(4) 1.6423(3)
O61A O 0.3609(4) 0.3899(4) 1.6162(3)
O62A O -0.2582(5) 0.2628(4) 1.7917(3)
O63A O 0.3125(5) 0.2546(4) 1.4425(3)
O64A O 0.1187(5) 0.2979(4) 1.8023(3)
Cu2A Cu -0.10321(7) 0.49158(6) 1.49699(5)
Ge1A Ge 0.00601(6) 0.35614(5) 1.60061(4)
Mo4A Mo 0.22821(5) 0.29699(5) 1.49719(4)
Mo7A Mo -0.03227(6) 0.27674(5) 1.48854(4)
Mo9A Mo 0.18809(6) 0.18591(5) 1.65601(4)
Mo10A Mo 0.25234(6) 0.36996(5) 1.60576(4)
Mo11A Mo -0.17596(6) 0.31917(5) 1.73936(4)
Mo13A Mo -0.23138(5) 0.32973(4) 1.59040(4)
Mo14A Mo -0.07496(6) 0.16223(4) 1.64724(4)
Mo17A Mo 0.05058(6) 0.34109(5) 1.74628(4)
Mo18A Mo 0.13695(6) 0.12246(5) 1.55005(4)
O67 O 0.6490(9) 0.0580(7) 0.4598(6)
O68 O 0.5504(6) -0.0956(5) 0.4388(4)
O69 O 0.4087(6) 0.0906(5) 0.4246(4)
O70 O 0.5319(8) 0.2399(7) 0.4157(6)
O71 O 0.7005(7) 0.1106(6) 0.5848(5)
O72 O 0.7333(8) 0.2349(7) 0.4468(6)
O73 O 0.5230(7) 0.2791(6) 0.5349(5)
O74 O -0.2133(6) 0.7286(5) 1.6567(4)
O75 O -0.2944(8) 0.9446(6) 1.6491(5)
O76 O 0.4376(6) 0.0065(5) 0.6880(4)
O77 O -0.0288(11) 0.9270(9) 1.6169(8)
O78 O 0.6128(7) 0.3666(5) 0.8835(4)
O79 O 0.8839(7) 0.5459(5) 0.6574(4)
O80 O 0.3700(9) 0.4752(7) 0.3160(7)
O81 O 1.0989(9) -0.0638(7) 0.4961(6)
O82 O 0.4155(9) 0.4456(8) 0.4256(6)
O83 O 0.0427(10) 0.4057(9) 0.2149(7)
O84 O 0.6180(11) 0.4508(10) 0.4720(8)
O85 O 0.639(2) 0.4204(17) 0.3373(14)
O86 O -0.1467(10) 0.0808(9) 0.2938(7)
O87 O 0.5090(11) 0.5904(9) 0.3071(8)
O88 O 0.4984(12) 0.5428(10) 0.4180(8)
O89 O 0.8702(16) 0.4300(13) 0.3449(11)
O90 O 0.9903(19) 0.2444(16) 0.1574(13)
O91 O -0.1595(14) 0.3917(12) 0.2173(10)
N5 N 0.7148(10) 0.8666(9) 0.1726(7)
N6 N 0.6058(10) 0.9177(10) 0.1162(7)
C9 C 0.6940(12) 0.9541(9) 0.1591(8)
C10 C 0.6285(9) 0.9798(6) 0.1284(5)
C15 C 0.6563(10) 0.8494(6) 0.1439(7)
N7 N 0.5242(11) 0.8053(10) 0.3002(7)
N8 N 0.4086(12) 0.8915(10) 0.2526(8)
C7 C 0.4840(8) 0.8837(8) 0.2833(5)
C8 C 0.4074(11) 0.8075(10) 0.2549(8)
C14 C 0.4762(10) 0.7581(8) 0.2854(7)
N9 N 0.1887(10) 0.0046(9) 0.1803(7)
N10 N 0.3074(9) -0.0167(9) 0.1040(6)
C11 C 0.2610(14) 0.0386(9) 0.1320(8)
C12 C 0.2050(9) -0.0746(7) 0.1797(7)
C13 C 0.2759(10) -0.0869(7) 0.1325(6)
N11 N 0.0113(10) 0.5672(9) 1.0934(7)
N12 N -0.0251(12) 0.4707(9) 1.0703(8)
C16 C -0.0913(12) 0.5901(10) 1.0970(8)
C17 C -0.1146(15) 0.5231(13) 1.0842(10)
C18 C 0.0547(13) 0.4992(11) 1.0744(8)
Na1 Na 0.5000 0.0000 0.5000
Na2 Na 0.5967(4) 0.1619(4) 0.5096(3)
Na3 Na -0.1415(5) 0.8463(4) 1.6254(3)
Na4 Na 0.5790(8) 0.3503(6) 0.4338(5)
Na5 Na 0.1397(8) 0.6529(6) 1.1095(5)
O92 O -0.1303(13) 0.7906(11) 1.7366(9)
loop_
_geom_bond_atom_site_label_1
_geom_bond_atom_site_label_2
_geom_bond_site_symmetry_1
_geom_bond_site_symmetry_2
O1 Mo2 1_555 1_555
O2 Ge1 1_555 1_555
O3 Mo5 1_555 1_555
O4 Mo8 1_555 1_555
O5 Mo11 1_555 1_555
O6 Cu1 1_555 1_555
O7 Mo3 1_555 1_555
O8 Mo1 1_555 1_555
O9 Mo2 1_555 1_555
O10 Mo9 1_555 1_555
O11 Mo7 1_555 1_555
O12 Mo4 1_555 1_555
O13 Ge2 1_555 1_555
O14 Mo12 1_555 1_555
O15 Cu2 1_555 1_555
O16 Cu1 1_555 1_555
O17 Cu2 1_555 1_555
O18 Mo1 1_555 1_555
O19 Cu1 1_555 1_555
O20 Mo7 1_555 1_555
O21 Cu2 1_555 1_555
O22 Mo14 1_555 1_555
O23 Cu1 1_555 1_555
O24 Mo16 1_555 1_555
O25 Cu3 1_555 1_555
O26 Mo5 1_555 1_555
O27 Mo1 1_555 1_555
O28 Mo6 1_555 1_555
O29 Mo13 1_555 1_555
O30 Mo6 1_555 1_555
O31 Mo9 1_555 1_555
O32 Mo13 1_555 1_555
O33 Mo2 1_555 1_555
O34 Mo9 1_555 1_555
O35 Mo11 1_555 1_555
O36 Mo4 1_555 1_555
O37 Mo3 1_555 1_555
O38 Mo15 1_555 1_555
O39 Ge1 1_555 1_555
O40 Ge2 1_555 1_555
O41 Mo4 1_555 1_555
O42 Cu1 1_555 1_555
O43 Mo10 1_555 1_555
O44 Mo7 1_555 1_555
O45 Cu2 1_555 1_555
O46 Mo11 1_555 1_555
O47 Mo6 1_555 1_555
O48 Mo5 1_555 1_555
O49 Mo1 1_555 1_555
O50 Mo18 1_555 1_555
O51 Mo11 1_555 1_555
O52 Mo18 1_555 1_555
O53 Mo8 1_555 1_555
O54 Mo2 1_555 1_555
O55 Ge2 1_555 1_555
O56 Mo17 1_555 1_555
O57 Mo3 1_555 1_555
O58 Cu2 1_555 1_555
O59 Ge1 1_555 1_555
O60 Mo9 1_555 1_555
O61 Mo10 1_555 1_555
O62 Mo11 1_555 1_555
O63 Mo4 1_555 1_555
O64 Mo17 1_555 1_555
O65 Mo8 1_555 1_555
O66 Mo16 1_555 1_555
Cu1 O19A 1_555 1_555
Cu2 O45A 1_555 1_555
Cu3 N1 1_555 1_555
Ge1 O45 1_555 1_555
Ge2 O19 1_555 1_555
Mo1 O40 1_555 1_555
Mo2 O25 1_555 1_555
Mo3 O8 1_555 1_555
Mo4 O39 1_555 1_555
Mo5 O1 1_555 1_555
Mo6 O9 1_555 1_555
Mo7 O2 1_555 1_555
Mo8 O7 1_555 1_555
Mo9 O39 1_555 1_555
Mo10 O12 1_555 1_555
Mo11 O59 1_555 1_555
Mo12 O3 1_555 1_555
Mo13 O2 1_555 1_555
Mo14 O2 1_555 1_555
Mo15 O4 1_555 1_555
Mo16 O18 1_555 1_555
Mo17 O10 1_555 1_555
Mo18 O20 1_555 1_555
N1 C1 1_555 1_555
N2 Cu3 1_555 1_555
N3 C4 1_555 1_555
N4 C1 1_555 1_555
N5 C9 1_555 1_555
N6 C10 1_555 1_555
N7 C7 1_555 1_555
N8 C7 1_555 1_555
N9 C11 1_555 1_555
N10 C11 1_555 1_555
N11 C16 1_555 1_555
N12 C17 1_555 1_555
C2 N4 1_555 1_555
C3 N1 1_555 1_555
C4 N2 1_555 1_555
C5 N3 1_555 1_555
C6 N2 1_555 1_555
C8 N8 1_555 1_555
C9 C10 1_555 1_555
C12 N9 1_555 1_555
C13 N10 1_555 1_555
C14 N7 1_555 1_555
C15 N5 1_555 1_555
C16 C17 1_555 1_555
C18 N11 1_555 1_555
O1A Mo2A 1_555 1_555
O2A Ge1A 1_555 1_555
O3A Mo5A 1_555 1_555
O4A Mo8A 1_555 1_555
O5A Mo11A 1_555 1_555
O6A Mo3 1_555 1_555
O7A Mo3A 1_555 1_555
O8A Mo1A 1_555 1_555
O9A Mo2A 1_555 1_555
O10A Mo9A 1_555 1_555
O11A Mo7A 1_555 1_555
O12A Mo4A 1_555 1_555
O13A Ge2A 1_555 1_555
O14A Mo12A 1_555 1_555
O15A Cu2A 1_555 1_555
O16A Mo1 1_555 1_555
O17A Mo4 1_555 1_555
O18A Mo1A 1_555 1_555
O19A Cu1A 1_555 1_555
O20A Mo7A 1_555 1_555
O21A Mo10 1_555 1_555
O22A Mo14A 1_555 1_555
O23A Cu1A 1_555 1_555
O24A Mo16A 1_555 1_555
O25A Cu3 1_555 1_555
O25A_2 Cu3_2 1_555 1_555
O26A Mo5A 1_555 1_555
O27A Mo1A 1_555 1_555
O28A Mo6A 1_555 1_555
O29A Mo13A 1_555 1_555
O30A Mo6A 1_555 1_555
O31A Mo9A 1_555 1_555
O32A Mo13A 1_555 1_555
O33A Mo2A 1_555 1_555
O34A Mo9A 1_555 1_555
O35A Mo11A 1_555 1_555
O36A Mo4A 1_555 1_555
O37A Mo3A 1_555 1_555
O38A Mo15A 1_555 1_555
O39A Ge1A 1_555 1_555
O40A Ge2A 1_555 1_555
O41A Mo4A 1_555 1_555
O42A Cu1A 1_555 1_555
O43A Mo10A 1_555 1_555
O44A Mo7A 1_555 1_555
O45A Cu2A 1_555 1_555
O46A Mo11A 1_555 1_555
O47A Mo6A 1_555 1_555
O48A Mo5A 1_555 1_555
O49A Mo1A 1_555 1_555
O50A Mo18A 1_555 1_555
O51A Mo11A 1_555 1_555
O52A Mo18A 1_555 1_555
O53A Mo8A 1_555 1_555
O54A Mo2A 1_555 1_555
O55A Ge2A 1_555 1_555
O56A Mo17A 1_555 1_555
O57A Mo3A 1_555 1_555
O58A Cu2A 1_555 1_555
O59A Ge1A 1_555 1_555
O60A Mo9A 1_555 1_555
O61A Mo10A 1_555 1_555
O62A Mo11A 1_555 1_555
O63A Mo4A 1_555 1_555
O64A Mo17A 1_555 1_555
O65A Mo8A 1_555 1_555
O66A Mo16A 1_555 1_555
Cu1A O19 1_555 1_555
Cu2A O45 1_555 1_555
Ge1A O45A 1_555 1_555
Ge2A O19A 1_555 1_555
Mo1A O16 1_555 1_555
Mo2A O25A_2 1_555 1_555
Mo3A O6 1_555 1_555
Mo4A O17 1_555 1_555
Mo5A O1A 1_555 1_555
Mo6A O9A 1_555 1_555
Mo7A O2A 1_555 1_555
Mo8A O7A 1_555 1_555
Mo9A O39A 1_555 1_555
Mo10A O21 1_555 1_555
Mo11A O59A 1_555 1_555
Mo12A O3A 1_555 1_555
Mo13A O2A 1_555 1_555
Mo14A O2A 1_555 1_555
Mo15A O4A 1_555 1_555
Mo16A O18A 1_555 1_555
Mo17A O10A 1_555 1_555
Mo18A O20A 1_555 1_555
N1A Cu3 1_555 1_555
N2A Cu3 1_555 1_555
N3A C4A 1_555 1_555
N4A C1A 1_555 1_555
C1A N1A 1_555 1_555
C2A N4A 1_555 1_555
C3A N1A 1_555 1_555
C4A N2A 1_555 1_555
C5A N3A 1_555 1_555
C6A N2A 1_555 1_555
O5 Mo14 1_555 1_555
O11 Mo13 1_555 1_555
O13 Mo5 1_555 1_555
O13 Mo6 1_555 1_555
O13 Mo12 1_555 1_555
O15 Mo13 1_555 1_555
O18 Mo12 1_555 1_555
O20 Mo14 1_555 1_555
O23 Mo5 1_555 1_555
O26 Mo6 1_555 1_555
O27 Mo15 1_555 1_555
O27 Mo16 1_555 1_555
O28 Mo12 1_555 1_555
O28 Mo16 1_555 1_555
O30 Mo15 1_555 1_555
O30 Mo16 1_555 1_555
O32 Mo14 1_555 1_555
O33 Mo8 1_555 1_555
O34 Mo14 1_555 1_555
O34 Mo18 1_555 1_555
O35 Mo13 1_555 1_555
O36 Mo7 1_555 1_555
O36 Mo18 1_555 1_555
O37 Mo15 1_555 1_555
O39 Mo10 1_555 1_555
O40 Mo3 1_555 1_555
O40 Mo15 1_555 1_555
O41 Mo9 1_555 1_555
O41 Mo18 1_555 1_555
O42 Mo12 1_555 1_555
O43 Mo17 1_555 1_555
O46 Mo17 1_555 1_555
O55 Mo2 1_555 1_555
O55 Mo8 1_555 1_555
O58 Mo7 1_555 1_555
O59 Mo17 1_555 1_555
O60 Mo10 1_555 1_555
Cu1 Cu1A 1_555 1_555
Cu2 Cu2A 1_555 1_555
N6 C15 1_555 1_555
N12 C18 1_555 1_555
C2 C3 1_555 1_555
C5 C6 1_555 1_555
C8 C14 1_555 1_555
C12 C13 1_555 1_555
O5A Mo14A 1_555 1_555
O6A Cu1A 1_555 1_555
O8A Mo3A 1_555 1_555
O11A Mo13A 1_555 1_555
O12A Mo10A 1_555 1_555
O13A Mo5A 1_555 1_555
O13A Mo6A 1_555 1_555
O13A Mo12A 1_555 1_555
O15A Mo13A 1_555 1_555
O16A Cu1A 1_555 1_555
O17A Cu2A 1_555 1_555
O18A Mo12A 1_555 1_555
O20A Mo14A 1_555 1_555
O21A Cu2A 1_555 1_555
O23A Mo5A 1_555 1_555
O26A Mo6A 1_555 1_555
O27A Mo15A 1_555 1_555
O27A Mo16A 1_555 1_555
O28A Mo12A 1_555 1_555
O28A Mo16A 1_555 1_555
O30A Mo15A 1_555 1_555
O30A Mo16A 1_555 1_555
O32A Mo14A 1_555 1_555
O33A Mo8A 1_555 1_555
O34A Mo14A 1_555 1_555
O34A Mo18A 1_555 1_555
O35A Mo13A 1_555 1_555
O36A Mo7A 1_555 1_555
O36A Mo18A 1_555 1_555
O37A Mo15A 1_555 1_555
O39A Mo4A 1_555 1_555
O39A Mo10A 1_555 1_555
O40A Mo1A 1_555 1_555
O40A Mo3A 1_555 1_555
O40A Mo15A 1_555 1_555
O41A Mo9A 1_555 1_555
O41A Mo18A 1_555 1_555
O42A Mo12A 1_555 1_555
O43A Mo17A 1_555 1_555
O46A Mo17A 1_555 1_555
O55A Mo2A 1_555 1_555
O55A Mo8A 1_555 1_555
O58A Mo7A 1_555 1_555
O59A Mo17A 1_555 1_555
O60A Mo10A 1_555 1_555
C2A C3A 1_555 1_555
C5A C6A 1_555 1_555

#END
