
#######################################################################
#
#                 Cambridge Crystallographic Data Centre
#                                CCDC 
#
#######################################################################
#
# If this CIF has been generated from an entry in the Cambridge 
# Structural Database, then it will include bibliographic, chemical, 
# crystal, experimental, refinement or atomic coordinate data resulting 
# from the CCDC's data processing and validation procedures.
#
#######################################################################

data_ZARZAV
_symmetry_cell_setting           monoclinic
_symmetry_space_group_name_H-M   'P 21/n'
_symmetry_Int_Tables_number      14
_space_group_name_Hall           '-P 2yn'
loop_
_symmetry_equiv_pos_site_id
_symmetry_equiv_pos_as_xyz
1 x,y,z
2 1/2-x,1/2+y,1/2-z
3 -x,-y,-z
4 1/2+x,1/2-y,1/2+z
_cell_length_a                   11.7527(13)
_cell_length_b                   12.4829(13)
_cell_length_c                   16.6089(18)
_cell_angle_alpha                90
_cell_angle_beta                 90.477(3)
_cell_angle_gamma                90
_cell_volume                     2436.57
loop_
_atom_site_label
_atom_site_type_symbol
_atom_site_fract_x
_atom_site_fract_y
_atom_site_fract_z
Zn1 Zn 0.35135(4) 0.24803(5) 0.25053(3)
C1 C 0.4667(4) 0.3391(4) 0.3725(3)
C2 C 0.4853(4) 0.4249(4) 0.4361(2)
C3 C 0.5871(4) 0.4351(4) 0.4777(2)
C4 C 0.6017(4) 0.5078(4) 0.5395(3)
C5 C 0.4756(4) 0.0242(4) -0.0781(3)
C6 C 0.4582(4) 0.0988(4) -0.0188(3)
C7 C 0.4824(4) 0.0769(4) 0.0620(3)
C8 C 0.4629(4) 0.1603(4) 0.1272(3)
C9 C 0.2174(4) 0.2080(4) 0.4006(3)
H1 H 0.2643 0.2606 0.4227
C10 C 0.1690(4) 0.0990(4) 0.2955(3)
H2 H 0.1805 0.0761 0.2430
C11 C 0.1325(4) 0.1668(4) 0.4474(3)
H3 H 0.1214 0.1927 0.4993
C12 C 0.0842(4) 0.0519(4) 0.3389(3)
H4 H 0.0408 -0.0028 0.3163
C13 C 0.0635(4) 0.0866(4) 0.4173(3)
C14 C -0.0263(4) 0.0365(4) 0.4677(3)
H5 H -0.0771 -0.0051 0.4336
H6 H -0.0707 0.0922 0.4934
C15 C -0.0288(4) 0.4677(4) 0.0336(3)
H7 H -0.0750 0.5152 0.0661
H8 H -0.0784 0.4139 0.0100
C16 C 0.0590(4) 0.4143(4) 0.0860(3)
C17 C 0.0796(4) 0.4457(4) 0.1648(3)
H9 H 0.0365 0.4999 0.1879
C18 C 0.1254(4) 0.3326(4) 0.0554(3)
H10 H 0.1132 0.3080 0.0032
C19 C 0.1650(4) 0.3959(4) 0.2087(3)
H11 H 0.1767 0.4169 0.2618
C20 C 0.2099(4) 0.2877(4) 0.1029(3)
H12 H 0.2539 0.2331 0.0812
N1 N 0.2364(3) 0.1765(3) 0.3249(2)
N2 N 0.2315(3) 0.3191(3) 0.1788(2)
O1 O 0.4126(3) 0.3707(3) 0.30930(17)
O2 O 0.4988(3) 0.2470(3) 0.38540(18)
O3 O 0.4068(3) 0.1272(3) 0.18753(17)
O4 O 0.4957(3) 0.2525(3) 0.11698(18)
F1 F 0.6778(2) 0.3773(2) 0.45536(15)
F2 F 0.7055(2) 0.5136(2) 0.57442(15)
F3 F 0.4486(2) 0.0524(2) -0.15429(14)
F4 F 0.4134(2) 0.1939(2) -0.03900(15)
Zn1B Zn -0.35135(4) -0.24803(5) 0.74947(3)
Zn1B_2 Zn -0.35135(4) 0.75197(5) -0.25053(3)
Zn1B_3 Zn 0.64865(4) -0.24803(5) -0.25053(3)
Zn1B_4 Zn 0.64865(4) 0.75197(5) 0.74947(3)
C1B C 0.5333(4) 0.6609(4) 0.6275(3)
C2B C 0.5147(4) 0.5751(4) 0.5639(2)
C3B C 0.4129(4) 0.5649(4) 0.5223(2)
C4B C 0.3983(4) 0.4922(4) 0.4605(3)
C5B C 0.5244(4) -0.0242(4) 0.0781(3)
C6B C 0.5418(4) -0.0988(4) 0.0188(3)
C7B C 0.5176(4) -0.0769(4) -0.0620(3)
C8B C 0.5371(4) -0.1603(4) -0.1272(3)
C9B C -0.2174(4) -0.2080(4) 0.5994(3)
H1B H -0.2643 -0.2606 0.5773
C10B C -0.1690(4) -0.0990(4) 0.7045(3)
H2B H -0.1805 -0.0761 0.7570
C11B C -0.1325(4) -0.1668(4) 0.5526(3)
H3B H -0.1214 -0.1927 0.5007
C12B C -0.0842(4) -0.0519(4) 0.6611(3)
H4B H -0.0408 0.0028 0.6837
C13B C -0.0635(4) -0.0866(4) 0.5827(3)
C14B C 0.0263(4) -0.0365(4) 0.5323(3)
H5B H 0.0771 0.0051 0.5664
H6B H 0.0707 -0.0922 0.5066
C15B C 0.0288(4) 0.5323(4) -0.0336(3)
H7B H 0.0750 0.4848 -0.0661
H8B H 0.0784 0.5861 -0.0100
C16B C -0.0590(4) 0.5857(4) -0.0860(3)
C17B C -0.0796(4) 0.5543(4) -0.1648(3)
H9B H -0.0365 0.5001 -0.1879
C18B C -0.1254(4) 0.6674(4) -0.0554(3)
H10B H -0.1132 0.6920 -0.0032
C19B C -0.1650(4) 0.6041(4) -0.2087(3)
H11B H -0.1767 0.5831 -0.2618
C20B C -0.2099(4) 0.7123(4) -0.1029(3)
H12B H -0.2539 0.7669 -0.0812
N1B N -0.2364(3) -0.1765(3) 0.6751(2)
N2B N -0.2315(3) 0.6809(3) -0.1788(2)
N2B_2 N -0.2315(3) -0.3191(3) 0.8212(2)
O1B O 0.5874(3) 0.6293(3) 0.69070(17)
O1B_2 O -0.4126(3) -0.3707(3) 0.69070(17)
O2B O 0.5012(3) 0.7530(3) 0.61460(18)
O3B O 0.5932(3) -0.1272(3) -0.18753(17)
O3B_2 O -0.4068(3) -0.1272(3) 0.81247(17)
O4B O 0.5043(3) -0.2525(3) -0.11698(18)
F1B F 0.3222(2) 0.6227(2) 0.54464(15)
F2B F 0.2945(2) 0.4864(2) 0.42558(15)
F3B F 0.5514(2) -0.0524(2) 0.15429(14)
F4B F 0.5866(2) -0.1939(2) 0.03900(15)
C21 C 0.7015(5) 0.6809(5) 0.3608(3)
C22 C 0.6811(7) 0.5842(5) 0.3089(3)
H13 H 0.6003 0.5780 0.2974
H14 H 0.7045 0.5205 0.3381
C23 C 0.6992(7) 0.7847(5) 0.3195(4)
H15 H 0.7309 0.8388 0.3551
H16 H 0.6208 0.8040 0.3081
C24 C 0.7455(7) 0.5900(5) 0.2301(3)
H17 H 0.8259 0.5790 0.2410
H18 H 0.7197 0.5324 0.1952
C25 C 0.7658(6) 0.7849(5) 0.2404(4)
H19 H 0.7522 0.8517 0.2121
H20 H 0.8466 0.7799 0.2522
C26 C 0.7306(5) 0.6927(5) 0.1877(3)
H21 H 0.6515 0.7011 0.1720
H22 H 0.7761 0.6927 0.1392
O5 O 0.7169(4) 0.6729(5) 0.4323(3)
loop_
_geom_bond_atom_site_label_1
_geom_bond_atom_site_label_2
_geom_bond_site_symmetry_1
_geom_bond_site_symmetry_2
Zn1 N1 1_555 1_555
C1 C2 1_555 1_555
C2 C3 1_555 1_555
C3 C4 1_555 1_555
C4 F2 1_555 1_555
C5 C6 1_555 1_555
C6 C7 1_555 1_555
C7 C8 1_555 1_555
C8 O3 1_555 1_555
C9 H1 1_555 1_555
C10 H2 1_555 1_555
C11 C9 1_555 1_555
H3 C11 1_555 1_555
C12 C10 1_555 1_555
H4 C12 1_555 1_555
C13 C11 1_555 1_555
C14 C13 1_555 1_555
H5 C14 1_555 1_555
H6 C14 1_555 1_555
C15 H7 1_555 1_555
H8 C15 1_555 1_555
C16 C15 1_555 1_555
C17 C16 1_555 1_555
H9 C17 1_555 1_555
C18 C16 1_555 1_555
H10 C18 1_555 1_555
C19 C17 1_555 1_555
H11 C19 1_555 1_555
C20 C18 1_555 1_555
H12 C20 1_555 1_555
C21 C22 1_555 1_555
C22 H13 1_555 1_555
H14 C22 1_555 1_555
C23 C21 1_555 1_555
H15 C23 1_555 1_555
H16 C23 1_555 1_555
C24 C22 1_555 1_555
H17 C24 1_555 1_555
H18 C24 1_555 1_555
C25 C23 1_555 1_555
H19 C25 1_555 1_555
H20 C25 1_555 1_555
C26 C24 1_555 1_555
H21 C26 1_555 1_555
H22 C26 1_555 1_555
N1 C9 1_555 1_555
N2 Zn1 1_555 1_555
O1 Zn1 1_555 1_555
O2 C1 1_555 1_555
O3 Zn1 1_555 1_555
O4 C8 1_555 1_555
O5 C21 1_555 1_555
F1 C3 1_555 1_555
F3 C5 1_555 1_555
F4 C6 1_555 1_555
Zn1B N1B 1_555 1_555
Zn1B_2 N2B 1_555 1_555
Zn1B_3 O3B 1_555 1_555
Zn1B_4 O1B 1_555 1_555
C1B C2B 1_555 1_555
C2B C4 1_555 1_555
C3B C2B 1_555 1_555
C4B C2 1_555 1_555
C5B C7 1_555 1_555
C6B C5B 1_555 1_555
C7B C5 1_555 1_555
C8B C7B 1_555 1_555
C9B H1B 1_555 1_555
C10B H2B 1_555 1_555
C11B C9B 1_555 1_555
H3B C11B 1_555 1_555
C12B C10B 1_555 1_555
H4B C12B 1_555 1_555
C13B C11B 1_555 1_555
C14B C14 1_555 1_555
H5B C14B 1_555 1_555
H6B C14B 1_555 1_555
C15B C15 1_555 1_555
H7B C15B 1_555 1_555
H8B C15B 1_555 1_555
C16B C15B 1_555 1_555
C17B C16B 1_555 1_555
H9B C17B 1_555 1_555
C18B C16B 1_555 1_555
H10B C18B 1_555 1_555
C19B C17B 1_555 1_555
H11B C19B 1_555 1_555
C20B C18B 1_555 1_555
H12B C20B 1_555 1_555
N1B C9B 1_555 1_555
N2B C19B 1_555 1_555
N2B_2 Zn1B 1_555 1_555
O1B C1B 1_555 1_555
O1B_2 Zn1B 1_555 1_555
O2B C1B 1_555 1_555
O3B C8B 1_555 1_555
O3B_2 Zn1B 1_555 1_555
O4B C8B 1_555 1_555
F1B C3B 1_555 1_555
F2B C4B 1_555 1_555
F3B C5B 1_555 1_555
F4B C6B 1_555 1_555
C1 O1 1_555 1_555
C10 N1 1_555 1_555
C12 C13 1_555 1_555
C19 N2 1_555 1_555
C20 N2 1_555 1_555
C25 C26 1_555 1_555
C3B C4B 1_555 1_555
C6B C7B 1_555 1_555
C10B N1B 1_555 1_555
C12B C13B 1_555 1_555
C13B C14B 1_555 1_555
C20B N2B 1_555 1_555

#END
