
#######################################################################
#
#                 Cambridge Crystallographic Data Centre
#                                CCDC 
#
#######################################################################
#
# If this CIF has been generated from an entry in the Cambridge 
# Structural Database, then it will include bibliographic, chemical, 
# crystal, experimental, refinement or atomic coordinate data resulting 
# from the CCDC's data processing and validation procedures.
#
#######################################################################

data_ZIGFEC
_symmetry_cell_setting           cubic
_symmetry_space_group_name_H-M   'F m -3 m'
_symmetry_Int_Tables_number      225
_space_group_name_Hall           '-F 4 2 3'
loop_
_symmetry_equiv_pos_site_id
_symmetry_equiv_pos_as_xyz
1 x,y,z
2 x,1/2+y,1/2+z
3 1/2+x,y,1/2+z
4 1/2+x,1/2+y,z
5 -x,y,-z
6 -x,-y,z
7 1/2-x,y,1/2-z
8 x,-y,-z
9 1/2-x,-y,1/2+z
10 -x,1/2-y,1/2+z
11 -x,1/2+y,1/2-z
12 1/2-x,1/2+y,-z
13 1/2+x,1/2-y,-z
14 1/2+x,-y,1/2-z
15 1/2-x,1/2-y,z
16 x,1/2-y,1/2-z
17 -y,x,z
18 y,-x,z
19 1/2-y,1/2+x,z
20 1/2+y,1/2-x,z
21 -y,1/2+x,1/2+z
22 1/2+y,-x,1/2+z
23 y,1/2-x,1/2+z
24 1/2-y,x,1/2+z
25 1/2+z,1/2+y,-x
26 -z,1/2+y,1/2+x
27 y,x,-z
28 -y,-x,-z
29 1/2-y,1/2-x,-z
30 1/2+y,1/2+x,-z
31 z,x,y
32 y,z,x
33 -z,-y,-x
34 -x,-z,-y
35 -z,-x,y
36 z,-x,-y
37 -z,x,-y
38 y,-z,-x
39 -y,z,-x
40 -y,-z,x
41 z,1/2+x,1/2+y
42 -z,1/2-x,1/2+y
43 z,1/2-x,1/2-y
44 -z,1/2+x,1/2-y
45 y,1/2+z,1/2+x
46 y,1/2-z,1/2-x
47 -y,1/2+z,1/2-x
48 -y,1/2-z,1/2+x
49 1/2+z,x,1/2+y
50 1/2-z,-x,1/2+y
51 1/2+z,-x,1/2-y
52 1/2-z,x,1/2-y
53 1/2+y,z,1/2+x
54 1/2+y,-z,1/2-x
55 1/2-y,z,1/2-x
56 1/2-y,-z,1/2+x
57 1/2+z,1/2+x,y
58 1/2-z,1/2-x,y
59 1/2+z,1/2-x,-y
60 1/2-z,1/2+x,-y
61 1/2+y,1/2+z,x
62 1/2+y,1/2-z,-x
63 1/2-y,1/2+z,-x
64 1/2-y,1/2-z,x
65 -x,z,y
66 x,-z,y
67 x,z,-y
68 -z,y,x
69 z,y,-x
70 z,-y,x
71 y,1/2+x,1/2-z
72 -x,1/2+z,1/2+y
73 -y,1/2-x,1/2-z
74 x,1/2-z,1/2+y
75 -x,1/2-z,1/2-y
76 x,1/2+z,1/2-y
77 z,1/2+y,1/2-x
78 -z,1/2-y,1/2-x
79 z,1/2-y,1/2+x
80 1/2+y,x,1/2-z
81 1/2-x,z,1/2+y
82 1/2-y,-x,1/2-z
83 1/2+x,-z,1/2+y
84 1/2-x,-z,1/2-y
85 1/2+x,z,1/2-y
86 1/2-z,y,1/2+x
87 1/2+z,y,1/2-x
88 1/2-z,-y,1/2-x
89 1/2+z,-y,1/2+x
90 1/2-x,1/2+z,y
91 1/2+x,1/2-z,y
92 1/2-x,1/2-z,-y
93 1/2+x,1/2+z,-y
94 1/2-z,1/2+y,x
95 1/2-z,1/2-y,-x
96 1/2+z,1/2-y,x
97 -x,-y,-z
98 -x,1/2-y,1/2-z
99 1/2-x,-y,1/2-z
100 1/2-x,1/2-y,-z
101 x,-y,z
102 x,y,-z
103 1/2+x,-y,1/2+z
104 -x,y,z
105 1/2+x,y,1/2-z
106 x,1/2+y,1/2-z
107 x,1/2-y,1/2+z
108 1/2+x,1/2-y,z
109 1/2-x,1/2+y,z
110 1/2-x,y,1/2+z
111 1/2+x,1/2+y,-z
112 -x,1/2+y,1/2+z
113 y,-x,-z
114 -y,x,-z
115 1/2+y,1/2-x,-z
116 1/2-y,1/2+x,-z
117 y,1/2-x,1/2-z
118 1/2-y,x,1/2-z
119 -y,1/2+x,1/2-z
120 1/2+y,-x,1/2-z
121 1/2-z,1/2-y,x
122 z,1/2-y,1/2-x
123 -y,-x,z
124 y,x,z
125 1/2+y,1/2+x,z
126 1/2-y,1/2-x,z
127 -z,-x,-y
128 -y,-z,-x
129 z,y,x
130 x,z,y
131 z,x,-y
132 -z,x,y
133 z,-x,y
134 -y,z,x
135 y,-z,x
136 y,z,-x
137 -z,1/2-x,1/2-y
138 z,1/2+x,1/2-y
139 -z,1/2+x,1/2+y
140 z,1/2-x,1/2+y
141 -y,1/2-z,1/2-x
142 -y,1/2+z,1/2+x
143 y,1/2-z,1/2+x
144 y,1/2+z,1/2-x
145 1/2-z,-x,1/2-y
146 1/2+z,x,1/2-y
147 1/2-z,x,1/2+y
148 1/2+z,-x,1/2+y
149 1/2-y,-z,1/2-x
150 1/2-y,z,1/2+x
151 1/2+y,-z,1/2+x
152 1/2+y,z,1/2-x
153 1/2-z,1/2-x,-y
154 1/2+z,1/2+x,-y
155 1/2-z,1/2+x,y
156 1/2+z,1/2-x,y
157 1/2-y,1/2-z,-x
158 1/2-y,1/2+z,x
159 1/2+y,1/2-z,x
160 1/2+y,1/2+z,-x
161 x,-z,-y
162 -x,z,-y
163 -x,-z,y
164 z,-y,-x
165 -z,-y,x
166 -z,y,-x
167 -y,1/2-x,1/2+z
168 x,1/2-z,1/2-y
169 y,1/2+x,1/2+z
170 -x,1/2+z,1/2-y
171 x,1/2+z,1/2+y
172 -x,1/2-z,1/2+y
173 -z,1/2-y,1/2+x
174 z,1/2+y,1/2+x
175 -z,1/2+y,1/2-x
176 1/2-y,-x,1/2+z
177 1/2+x,-z,1/2-y
178 1/2+y,x,1/2+z
179 1/2-x,z,1/2-y
180 1/2+x,z,1/2+y
181 1/2-x,-z,1/2+y
182 1/2+z,-y,1/2-x
183 1/2-z,-y,1/2+x
184 1/2+z,y,1/2+x
185 1/2-z,y,1/2-x
186 1/2+x,1/2-z,-y
187 1/2-x,1/2+z,-y
188 1/2+x,1/2+z,y
189 1/2-x,1/2-z,y
190 1/2+z,1/2-y,-x
191 1/2+z,1/2+y,x
192 1/2-z,1/2+y,-x
_cell_length_a                   26.66522(35)
_cell_length_b                   26.66522(35)
_cell_length_c                   26.66522(35)
_cell_angle_alpha                90
_cell_angle_beta                 90
_cell_angle_gamma                90
_cell_volume                     18959.9
loop_
_atom_site_label
_atom_site_type_symbol
_atom_site_fract_x
_atom_site_fract_y
_atom_site_fract_z
Cr1 Cr 0.27729(23) 0.27729(23) 0.000
O1 O 0.31684(11) 0.24336(12) -0.05248(11)
C1 C 0.29671(10) 0.20329(10) -0.07085(15)
C2 C 0.32224(12) 0.17776(12) -0.11404(15)
C3 C 0.36461(11) 0.20056(18) -0.13539(11)
H1 H 0.37921(19) 0.23369(26) -0.12079(19)
O1CB O 0.25664(12) 0.05248(11) -0.18316(11)
C1CB C 0.29671(10) 0.07085(15) -0.20329(10)
C2CB C 0.32224(12) 0.11404(15) -0.17776(12)
C3CB C 0.29944(18) 0.13539(11) -0.13539(11)
H1CB H 0.26631(26) 0.12079(19) -0.12079(19)
O1FB O 0.44752(11) 0.18316(11) -0.24336(12)
C1FB C 0.42915(15) 0.20329(10) -0.20329(10)
C2FB C 0.38596(15) 0.17776(12) -0.17776(12)
C3FB C 0.36461(11) 0.13539(11) -0.20056(18)
H1FB H 0.37921(19) 0.12079(19) -0.23369(26)
O1UD O 0.25664(12) 0.18316(11) -0.05248(11)
O1DF O 0.31684(11) 0.05248(11) -0.24336(12)
O1AG O 0.44752(11) 0.24336(12) -0.18316(11)
Cr1N Cr 0.22271(23) 0.22271(23) 0.000
O1N O 0.18316(11) 0.25664(12) -0.05248(11)
C1N C 0.20329(10) 0.29671(10) -0.07085(15)
C2N C 0.17776(12) 0.32224(12) -0.11404(15)
C3N C 0.13539(11) 0.29944(18) -0.13539(11)
H1N H 0.12079(19) 0.26631(26) -0.12079(19)
O1RA O 0.24336(12) 0.44752(11) -0.18316(11)
C1RA C 0.20329(10) 0.42915(15) -0.20329(10)
C2RA C 0.17776(12) 0.38596(15) -0.17776(12)
C3RA C 0.20056(18) 0.36461(11) -0.13539(11)
H1RA H 0.23369(26) 0.37921(19) -0.12079(19)
O1JA O 0.05248(11) 0.31684(11) -0.24336(12)
C1JA C 0.07085(15) 0.29671(10) -0.20329(10)
C2JA C 0.11404(15) 0.32224(12) -0.17776(12)
C3JA C 0.13539(11) 0.36461(11) -0.20056(18)
H1JA H 0.12079(19) 0.37921(19) -0.23369(26)
O1SD O 0.24336(12) 0.31684(11) -0.05248(11)
O1DG O 0.18316(11) 0.44752(11) -0.24336(12)
O1PF O 0.05248(11) 0.25664(12) -0.18316(11)
Cr1JA Cr 0.000 0.27729(23) -0.27729(23)
Cr1KA Cr 0.27729(23) 0.000 -0.27729(23)
Cr1OA Cr 0.000 0.22271(23) -0.22271(23)
Cr1RA Cr 0.27729(23) 0.500 -0.22271(23)
Cr1VA Cr 0.500 0.27729(23) -0.22271(23)
Cr1CB Cr 0.22271(23) 0.000 -0.22271(23)
Cr1FB Cr 0.500 0.22271(23) -0.27729(23)
Cr1JB Cr 0.22271(23) 0.500 -0.27729(23)
O1Z O 0.24336(12) 0.31684(11) 0.05248(11)
O1BA O 0.25664(12) 0.18316(11) 0.05248(11)
O1PB O -0.05248(11) 0.24336(12) -0.31684(11)
O1UC O 0.18316(11) 0.25664(12) 0.05248(11)
O1WC O 0.31684(11) 0.24336(12) 0.05248(11)
O1ZD O -0.05248(11) 0.31684(11) -0.24336(12)
O1IF O 0.05248(11) 0.24336(12) -0.31684(11)
loop_
_geom_bond_atom_site_label_1
_geom_bond_atom_site_label_2
_geom_bond_site_symmetry_1
_geom_bond_site_symmetry_2
Cr1 O1 1_555 1_555
O1 C1 1_555 1_555
C1 C2 1_555 1_555
C2 C3 1_555 1_555
C3 H1 1_555 1_555
O1CB C1CB 1_555 1_555
C1CB C2CB 1_555 1_555
C2CB C3CB 1_555 1_555
C3CB C2 1_555 1_555
H1CB C3CB 1_555 1_555
O1FB C1FB 1_555 1_555
C1FB C2FB 1_555 1_555
C2FB C3 1_555 1_555
C3FB C2CB 1_555 1_555
H1FB C3FB 1_555 1_555
O1UD C1 1_555 1_555
O1DF C1CB 1_555 1_555
O1AG C1FB 1_555 1_555
Cr1N Cr1 1_555 1_555
O1N Cr1N 1_555 1_555
C1N O1N 1_555 1_555
C2N C1N 1_555 1_555
C3N C2N 1_555 1_555
H1N C3N 1_555 1_555
O1RA C1RA 1_555 1_555
C1RA C2RA 1_555 1_555
C2RA C3RA 1_555 1_555
C3RA C2N 1_555 1_555
H1RA C3RA 1_555 1_555
O1JA C1JA 1_555 1_555
C1JA C2JA 1_555 1_555
C2JA C3N 1_555 1_555
C3JA C2RA 1_555 1_555
H1JA C3JA 1_555 1_555
O1SD Cr1 1_555 1_555
O1DG C1RA 1_555 1_555
O1PF C1JA 1_555 1_555
Cr1JA O1JA 1_555 1_555
Cr1KA O1DF 1_555 1_555
Cr1OA O1PF 1_555 1_555
Cr1RA O1RA 1_555 1_555
Cr1VA O1AG 1_555 1_555
Cr1CB O1CB 1_555 1_555
Cr1FB O1FB 1_555 1_555
Cr1JB O1DG 1_555 1_555
O1Z Cr1 1_555 1_555
O1BA Cr1N 1_555 1_555
O1PB Cr1JA 1_555 1_555
O1UC Cr1N 1_555 1_555
O1WC Cr1 1_555 1_555
O1ZD Cr1JA 1_555 1_555
O1IF Cr1JA 1_555 1_555
C2FB C3FB 1_555 1_555
O1UD Cr1N 1_555 1_555
C1N O1SD 1_555 1_555
C2JA C3JA 1_555 1_555
Cr1JA Cr1OA 1_555 1_555
Cr1KA Cr1CB 1_555 1_555
Cr1RA Cr1JB 1_555 1_555
Cr1VA Cr1FB 1_555 1_555

#END
