
#######################################################################
#
#                 Cambridge Crystallographic Data Centre
#                                CCDC 
#
#######################################################################
#
# If this CIF has been generated from an entry in the Cambridge 
# Structural Database, then it will include bibliographic, chemical, 
# crystal, experimental, refinement or atomic coordinate data resulting 
# from the CCDC's data processing and validation procedures.
#
#######################################################################

data_ZIYPUU
_symmetry_cell_setting           triclinic
_symmetry_space_group_name_H-M   'P -1'
_symmetry_Int_Tables_number      2
_space_group_name_Hall           '-P 1'
loop_
_symmetry_equiv_pos_site_id
_symmetry_equiv_pos_as_xyz
1 x,y,z
2 -x,-y,-z
_cell_length_a                   9.5996(10)
_cell_length_b                   9.7638(14)
_cell_length_c                   9.8660(17)
_cell_angle_alpha                88.150(17)
_cell_angle_beta                 77.431(15)
_cell_angle_gamma                64.293(10)
_cell_volume                     811.202
loop_
_atom_site_label
_atom_site_type_symbol
_atom_site_fract_x
_atom_site_fract_y
_atom_site_fract_z
Cd1 Cd 0.04806(3) 0.77333(3) 0.97169(3)
O1 O 0.1206(5) 0.6954(5) 0.7309(4)
O2 O -0.0576(4) 0.6355(4) 0.8605(3)
O3 O -0.1146(4) 1.0159(4) 0.9033(4)
O4 O -0.2723(4) 1.1992(4) 1.0643(4)
N1 N -0.3200(5) 0.8785(5) 1.3659(4)
N2 N -0.3516(5) 0.7803(5) 1.2994(4)
N3 N -0.1453(5) 0.8079(5) 1.1695(4)
C1 C -0.4161(6) 0.9480(7) 1.5035(5)
H1 H -0.3705 1.0055 1.5409
H2 H -0.4156 0.8688 1.5655
C2 C -0.2422(6) 0.7410(6) 1.1825(5)
H3 H -0.2333 0.6721 1.1144
C3 C -0.1975(6) 0.8943(6) 1.2870(5)
H4 H -0.1547 0.9568 1.3108
C4 C 0.0123(6) 0.5657(5) 0.6179(5)
C5 C -0.1225(7) 0.5493(7) 0.6160(5)
H5 H -0.2064 0.5833 0.6939
C6 C -0.1354(7) 0.4829(7) 0.5001(5)
H6 H -0.2267 0.4710 0.5014
C7 C 0.0253(6) 0.6362(6) 0.7439(5)
C8 C -0.3793(5) 1.0457(5) 0.9895(5)
C9 C -0.3703(5) 0.9450(5) 0.8885(5)
H7 H -0.2832 0.9080 0.8133
C10 C -0.4878(6) 0.8996(5) 0.8982(5)
H8 H -0.4798 0.8317 0.8296
C11 C -0.2477(6) 1.0905(5) 0.9843(5)
O5 O 0.2045(5) 0.5394(5) 1.0370(5)
H9 H 0.143(6) 0.502(7) 1.084(6)
H10 H 0.279(6) 0.529(7) 1.078(6)
O1A O -0.1206(5) 0.3046(5) 0.2691(4)
O2A O 0.0576(4) 0.3645(4) 0.1395(3)
C4A C -0.0123(6) 0.4343(5) 0.3821(5)
C5A C 0.1225(7) 0.4507(7) 0.3840(5)
H5A H 0.2064 0.4167 0.3061
C6A C 0.1354(7) 0.5171(7) 0.4999(5)
H6A H 0.2267 0.5290 0.4986
C7A C -0.0253(6) 0.3638(6) 0.2561(5)
O3A O -0.8854(4) 0.9841(4) 1.0967(4)
O4A O -0.7277(4) 0.8008(4) 0.9357(4)
C8A C -0.6207(5) 0.9543(5) 1.0105(5)
C9A C -0.6297(5) 1.0550(5) 1.1115(5)
H7A H -0.7168 1.0920 1.1867
C10A C -0.5122(6) 1.1004(5) 1.1018(5)
H8A H -0.5202 1.1683 1.1704
C11A C -0.7523(6) 0.9095(5) 1.0157(5)
N1A N -0.6800(5) 1.1215(5) 1.6341(4)
N2A N -0.6484(5) 1.2197(5) 1.7006(4)
N3A N -0.8547(5) 1.1921(5) 1.8305(4)
C1A C -0.5839(6) 1.0520(7) 1.4965(5)
H1A H -0.6295 0.9945 1.4591
H2A H -0.5844 1.1312 1.4345
C2A C -0.7578(6) 1.2590(6) 1.8175(5)
H3A H -0.7667 1.3279 1.8856
C3A C -0.8025(6) 1.1057(6) 1.7130(5)
H4A H -0.8453 1.0432 1.6892
Cd1A Cd -1.04806(3) 1.22667(3) 1.02831(3)
O5A O -1.2045(5) 1.4606(5) 0.9630(5)
H9A H -1.143(6) 1.498(7) 0.916(6)
H10A H -1.279(6) 1.471(7) 0.922(6)
Cd1_2 Cd -0.95194(3) 0.77333(3) 0.97169(3)
Cd1A_2 Cd -1.04806(3) 1.22667(3) 2.02831(3)
Cd1A_3 Cd -0.04806(3) 0.22667(3) 0.02831(3)
Cd1A_4 Cd -0.04806(3) 1.22667(3) 1.02831(3)
O1A_2 O -1.1206(5) 1.3046(5) 1.2691(4)
O2A_2 O -0.9424(4) 1.3645(4) 1.1395(3)
O3_2 O -1.1146(4) 1.0159(4) 0.9033(4)
O3A_2 O 0.1146(4) 0.9841(4) 1.0967(4)
O4_2 O -1.2723(4) 1.1992(4) 1.0643(4)
O4A_2 O 0.2723(4) 0.8008(4) 0.9357(4)
N3A_2 N -0.8547(5) 1.1921(5) 0.8305(4)
O6 O 0.4466(9) 0.4828(11) 1.1580(12)
O7 O 0.1263(14) 0.9640(16) 0.3927(9)
O8 O 0.3945(14) 0.6949(16) 0.3478(15)
O9 O 0.4260(16) 0.6952(18) 0.6231(15)
loop_
_geom_bond_atom_site_label_1
_geom_bond_atom_site_label_2
_geom_bond_site_symmetry_1
_geom_bond_site_symmetry_2
Cd1 O1 1_555 1_555
O1 C7 1_555 1_555
O2 Cd1 1_555 1_555
O3 Cd1 1_555 1_555
O4 C11 1_555 1_555
N1 N2 1_555 1_555
N2 C2 1_555 1_555
N3 Cd1 1_555 1_555
C1 N1 1_555 1_555
H1 C1 1_555 1_555
H2 C1 1_555 1_555
C2 N3 1_555 1_555
H3 C2 1_555 1_555
C3 N1 1_555 1_555
H4 C3 1_555 1_555
C4 C5 1_555 1_555
C5 H5 1_555 1_555
C6 C5 1_555 1_555
H6 C6 1_555 1_555
C7 O2 1_555 1_555
C8 C9 1_555 1_555
C9 H7 1_555 1_555
C10 C9 1_555 1_555
H8 C10 1_555 1_555
C11 O3 1_555 1_555
O5 Cd1 1_555 1_555
H9 O5 1_555 1_555
H10 O5 1_555 1_555
O1A C7A 1_555 1_555
O2A C7A 1_555 1_555
C4A C6 1_555 1_555
C5A C4A 1_555 1_555
H5A C5A 1_555 1_555
C6A C4 1_555 1_555
H6A C6A 1_555 1_555
C7A C4A 1_555 1_555
O3A C11A 1_555 1_555
O4A C11A 1_555 1_555
C8A C10 1_555 1_555
C9A C8A 1_555 1_555
H7A C9A 1_555 1_555
C10A C8 1_555 1_555
H8A C10A 1_555 1_555
C11A C8A 1_555 1_555
N1A N2A 1_555 1_555
N2A C2A 1_555 1_555
N3A C2A 1_555 1_555
C1A C1 1_555 1_555
H1A C1A 1_555 1_555
H2A C1A 1_555 1_555
C2A H3A 1_555 1_555
C3A N1A 1_555 1_555
H4A C3A 1_555 1_555
Cd1A O3A 1_555 1_555
O5A Cd1A 1_555 1_555
H9A O5A 1_555 1_555
H10A O5A 1_555 1_555
Cd1_2 O3A 1_555 1_555
Cd1A_2 N3A 1_555 1_555
Cd1A_3 O1A 1_555 1_555
Cd1A_4 O3 1_555 1_555
O1A_2 Cd1A 1_555 1_555
O2A_2 Cd1A 1_555 1_555
O3_2 Cd1A 1_555 1_555
O3A_2 Cd1 1_555 1_555
O4_2 Cd1A 1_555 1_555
O4A_2 Cd1 1_555 1_555
N3A_2 Cd1A 1_555 1_555
O4 Cd1A_4 1_555 1_555
N3 C3 1_555 1_555
C4 C7 1_555 1_555
C8 C11 1_555 1_555
O2A Cd1A_3 1_555 1_555
C5A C6A 1_555 1_555
O4A Cd1_2 1_555 1_555
C9A C10A 1_555 1_555
N1A C1A 1_555 1_555
N3A C3A 1_555 1_555
Cd1_2 O3_2 1_555 1_555
Cd1A_4 O3A_2 1_555 1_555

#END
