_symmetry_space_group_name_H-M   'P 1'
_cell_length_a 11.619300
_cell_length_b 5.566700
_cell_length_c 22.931200
_cell_angle_alpha 90.000000
_cell_angle_beta 100.897000
_cell_angle_gamma 90.000000
_cell_volume 1456.472102
_symmetry_Int_Tables_number 1

loop_
_symmetry_equiv_pos_as_xyz
 'x, y, z'

loop_
_atom_site_label
_atom_site_type_symbol
_atom_site_fract_x
_atom_site_fract_y
_atom_site_fract_z
_atom_site_charge
C C 0.493200 0.258600 0.262000 0.000000
C C 0.006800 0.758600 0.238000 0.000000
C C 0.506800 0.741400 0.738000 0.000000
C C 0.993200 0.241400 0.762000 0.000000
C C 0.399800 0.211100 0.299100 0.000000
C C 0.100200 0.711100 0.200900 0.000000
C C 0.600200 0.788900 0.700900 0.000000
C C 0.899800 0.288900 0.799100 0.000000
C C 0.312100 0.378900 0.300100 0.000000
C C 0.187900 0.878900 0.199900 0.000000
C C 0.687900 0.621100 0.699900 0.000000
C C 0.812100 0.121100 0.800100 0.000000
H H 0.314200 0.528700 0.280400 0.000000
H H 0.185800 0.028700 0.219600 0.000000
H H 0.685800 0.471300 0.719600 0.000000
H H 0.814200 0.971300 0.780400 0.000000
C C 0.220800 0.328200 0.329900 0.000000
C C 0.279200 0.828200 0.170100 0.000000
C C 0.779200 0.671800 0.670100 0.000000
C C 0.720800 0.171800 0.829900 0.000000
H H 0.159700 0.441300 0.330400 0.000000
H H 0.340300 0.941300 0.169600 0.000000
H H 0.840300 0.558700 0.669600 0.000000
H H 0.659700 0.058700 0.830400 0.000000
C C 0.220900 0.109600 0.358900 0.000000
C C 0.279100 0.609600 0.141100 0.000000
C C 0.779100 0.890400 0.641100 0.000000
C C 0.720900 0.390400 0.858900 0.000000
C C 0.310900 0.941300 0.360300 0.000000
C C 0.189100 0.441300 0.139700 0.000000
C C 0.689100 0.058700 0.639700 0.000000
C C 0.810900 0.558700 0.860300 0.000000
H H 0.311000 0.795800 0.382000 0.000000
H H 0.189000 0.295800 0.118000 0.000000
H H 0.689000 0.204200 0.618000 0.000000
H H 0.811000 0.704200 0.882000 0.000000
C C 0.400200 0.991200 0.329300 0.000000
C C 0.099800 0.491200 0.170700 0.000000
C C 0.599800 0.008800 0.670700 0.000000
C C 0.900200 0.508800 0.829300 0.000000
H H 0.460900 0.877700 0.328600 0.000000
H H 0.039100 0.377700 0.171400 0.000000
H H 0.539100 0.122300 0.671400 0.000000
H H 0.960900 0.622300 0.828600 0.000000
C C 0.149000 0.111900 0.470200 0.000000
C C 0.351000 0.611900 0.029800 0.000000
C C 0.851000 0.888100 0.529800 0.000000
C C 0.649000 0.388100 0.970200 0.000000
C C 0.119400 0.334000 0.490100 0.000000
C C 0.380600 0.834000 0.009900 0.000000
C C 0.880600 0.666000 0.509900 0.000000
C C 0.619400 0.166000 0.990100 0.000000
H H 0.080300 0.450200 0.463000 0.000000
H H 0.419700 0.950200 0.037000 0.000000
H H 0.919700 0.549800 0.537000 0.000000
H H 0.580300 0.049800 0.963000 0.000000
C C 0.148200 0.383700 0.550800 0.000000
C C 0.351800 0.883700 0.949200 0.000000
C C 0.851800 0.616300 0.449200 0.000000
C C 0.648200 0.116300 0.050800 0.000000
H H 0.129800 0.536100 0.565200 0.000000
H H 0.370200 0.036100 0.934800 0.000000
H H 0.870200 0.463900 0.434800 0.000000
H H 0.629800 0.963900 0.065200 0.000000
C C 0.203600 0.211400 0.590000 0.000000
C C 0.296400 0.711400 0.910000 0.000000
C C 0.796400 0.788600 0.410000 0.000000
C C 0.703600 0.288600 0.090000 0.000000
C C 0.236700 0.990500 0.569300 0.000000
C C 0.263300 0.490500 0.930700 0.000000
C C 0.763300 0.009500 0.430700 0.000000
C C 0.736700 0.509500 0.069300 0.000000
H H 0.277500 0.875900 0.596200 0.000000
H H 0.222500 0.375900 0.903800 0.000000
H H 0.722500 0.124100 0.403800 0.000000
H H 0.777500 0.624100 0.096200 0.000000
C C 0.209500 0.939800 0.508800 0.000000
C C 0.290500 0.439800 0.991200 0.000000
C C 0.790500 0.060200 0.491200 0.000000
C C 0.709500 0.560200 0.008800 0.000000
H H 0.231700 0.791000 0.493900 0.000000
H H 0.268300 0.291000 0.006100 0.000000
H H 0.768300 0.209000 0.506100 0.000000
H H 0.731700 0.709000 0.993900 0.000000
C C 0.227500 0.262400 0.655700 0.000000
C C 0.272500 0.762400 0.844300 0.000000
C C 0.772500 0.737600 0.344300 0.000000
C C 0.727500 0.237600 0.155700 0.000000
O O 0.512400 0.475500 0.252210 0.000000
O O 0.987600 0.975500 0.247790 0.000000
O O 0.487600 0.524500 0.747790 0.000000
O O 0.012400 0.024500 0.752210 0.000000
O O 0.540900 0.080800 0.243720 0.000000
O O 0.959100 0.580800 0.256280 0.000000
O O 0.459100 0.919200 0.756280 0.000000
O O 0.040900 0.419200 0.743720 0.000000
O O 0.005400 0.195800 0.371240 0.000000
O O 0.494600 0.695800 0.128760 0.000000
O O 0.994600 0.804200 0.628760 0.000000
O O 0.505400 0.304200 0.871240 0.000000
O O 0.086600 0.779600 0.390540 0.000000
O O 0.413400 0.279600 0.109460 0.000000
O O 0.913400 0.220400 0.609460 0.000000
O O 0.586600 0.720400 0.890540 0.000000
O O 0.237100 0.476800 0.672650 0.000000
O O 0.262900 0.976800 0.827350 0.000000
O O 0.762900 0.523200 0.327350 0.000000
O O 0.737100 0.023200 0.172650 0.000000
O O 0.240600 0.085000 0.690660 0.000000
O O 0.259400 0.585000 0.809340 0.000000
O O 0.759400 0.915000 0.309340 0.000000
O O 0.740600 0.415000 0.190660 0.000000
S S 0.103230 0.036400 0.394140 0.000000
S S 0.396770 0.536400 0.105860 0.000000
S S 0.896770 0.963600 0.605860 0.000000
S S 0.603230 0.463600 0.894140 0.000000
Ca Ca 0.637200 0.743310 0.221170 0.000000
Ca Ca 0.862800 0.243310 0.278830 0.000000
Ca Ca 0.362800 0.256690 0.778830 0.000000
Ca Ca 0.137200 0.756690 0.721170 0.000000
